#------------------------------------------------------------------------------
#$Date: 2015-06-04 06:32:09 +0300 (Thu, 04 Jun 2015) $
#$Revision: 137844 $
#$URL: svn://www.crystallography.net/cod/cif/4/51/31/4513162.cif $
#------------------------------------------------------------------------------
#
# This file is available in the Crystallography Open Database (COD),
# http://www.crystallography.net/
#
# All data on this site have been placed in the public domain by the
# contributors.
#
data_4513162
loop_
_publ_author_name
'Abrahams, Brendan F.'
'Elliott, Robert W.'
'Hudson, Timothy A.'
'Robson, Richard'
'Sutton, Ashley L.'
_publ_section_title
;
 New CuI2(TCNQ--II) and CuI2(F4TCNQ--II) Coordination Polymers
;
_journal_issue                   5
_journal_name_full               'Crystal Growth &amp; Design'
_journal_page_first              2437
_journal_paper_doi               10.1021/acs.cgd.5b00220
_journal_volume                  15
_journal_year                    2015
_chemical_formula_sum            'C34 H51 Cu2 N13 O8'
_chemical_formula_weight         896.95
_space_group_crystal_system      monoclinic
_space_group_IT_number           10
_space_group_name_Hall           '-P 2y'
_space_group_name_H-M_alt        'P 1 2/m 1'
_symmetry_space_group_name_Hall  '-P 2y'
_symmetry_space_group_name_H-M   'P 1 2/m 1'
_atom_sites_solution_hydrogens   geom
_audit_creation_method           SHELXL-2014/6
_cell_angle_alpha                90
_cell_angle_beta                 103.846(3)
_cell_angle_gamma                90
_cell_formula_units_Z            1
_cell_length_a                   11.0071(4)
_cell_length_b                   7.6667(2)
_cell_length_c                   14.9346(4)
_cell_measurement_reflns_used    2683
_cell_measurement_temperature    250.00(10)
_cell_measurement_theta_max      74.4720
_cell_measurement_theta_min      4.1130
_cell_volume                     1223.68(7)
_computing_cell_refinement
;
CrysAlisPro, Agilent Technologies,
Version 1.171.37.33 (release 27-03-2014 CrysAlis171 .NET)
(compiled Mar 27 2014,17:12:48)
;
_computing_data_collection
;
CrysAlisPro, Agilent Technologies,
Version 1.171.37.33 (release 27-03-2014 CrysAlis171 .NET)
(compiled Mar 27 2014,17:12:48)
;
_computing_data_reduction
;
CrysAlisPro, Agilent Technologies,
Version 1.171.37.33 (release 27-03-2014 CrysAlis171 .NET)
(compiled Mar 27 2014,17:12:48)
;
_computing_structure_refinement  'SHELXL-2014/6 (Sheldrick, 2014)'
_computing_structure_solution    'SHELXS-2014/6 (Sheldrick, 2014)'
_diffrn_ambient_temperature      250.00(10)
_diffrn_detector_area_resol_mean 10.2273
_diffrn_measured_fraction_theta_full 0.997
_diffrn_measured_fraction_theta_max 0.984
_diffrn_measurement_device       'four-circle diffractometer'
_diffrn_measurement_device_type  'SuperNova, Dual, Cu at zero, Atlas'
_diffrn_measurement_method       '\w scans'
_diffrn_radiation_monochromator  mirror
_diffrn_radiation_type           CuK\a
_diffrn_radiation_wavelength     1.54184
_diffrn_reflns_av_R_equivalents  0.0228
_diffrn_reflns_av_unetI/netI     0.0256
_diffrn_reflns_laue_measured_fraction_full 0.997
_diffrn_reflns_laue_measured_fraction_max 0.984
_diffrn_reflns_limit_h_max       13
_diffrn_reflns_limit_h_min       -11
_diffrn_reflns_limit_k_max       6
_diffrn_reflns_limit_k_min       -9
_diffrn_reflns_limit_l_max       18
_diffrn_reflns_limit_l_min       -16
_diffrn_reflns_number            5756
_diffrn_reflns_point_group_measured_fraction_full 0.997
_diffrn_reflns_point_group_measured_fraction_max 0.984
_diffrn_reflns_theta_full        67.684
_diffrn_reflns_theta_max         77.023
_diffrn_reflns_theta_min         4.137
_diffrn_source                   'sealed X-ray tube'
_diffrn_source_type              'SuperNova (Cu) X-ray Source'
_exptl_absorpt_coefficient_mu    1.529
_exptl_absorpt_correction_T_max  0.842
_exptl_absorpt_correction_T_min  0.428
_exptl_absorpt_correction_type   gaussian
_exptl_absorpt_process_details
;
CrysAlisPro, Agilent Technologies,
Version 1.171.37.33 (release 27-03-2014 CrysAlis171 .NET)
(compiled Mar 27 2014,17:12:48)
Numerical absorption correction based on gaussian integration 
over a multifaceted crystal model
Empirical absorption correction using spherical harmonics,
 implemented in SCALE3 ABSPACK scaling algorithm.
;
_exptl_crystal_colour            orange
_exptl_crystal_density_diffrn    1.217
_exptl_crystal_description       rod
_exptl_crystal_F_000             468
_exptl_crystal_size_max          0.78
_exptl_crystal_size_mid          0.12
_exptl_crystal_size_min          0.09
_platon_squeeze_details
;
The unit cell contains  5 highly disordered methanol
 molecules and 3 highly disordered DMF molecules  which have 
been treated as a diffuse contribution to the overall 
scattering without specific atom positions by SQUEEZE/PLATON.
;
_refine_diff_density_max         0.471
_refine_diff_density_min         -0.377
_refine_diff_density_rms         0.055
_refine_ls_extinction_method     none
_refine_ls_goodness_of_fit_ref   1.046
_refine_ls_hydrogen_treatment    constr
_refine_ls_matrix_type           full
_refine_ls_number_parameters     112
_refine_ls_number_reflns         2742
_refine_ls_number_restraints     27
_refine_ls_restrained_S_all      1.417
_refine_ls_R_factor_all          0.0456
_refine_ls_R_factor_gt           0.0415
_refine_ls_shift/su_max          0.001
_refine_ls_shift/su_mean         0.000
_refine_ls_structure_factor_coef Fsqd
_refine_ls_weighting_details
'w=1/[\s^2^(Fo^2^)+(0.0908P)^2^] where P=(Fo^2^+2Fc^2^)/3'
_refine_ls_weighting_scheme      calc
_refine_ls_wR_factor_gt          0.1257
_refine_ls_wR_factor_ref         0.1296
_reflns_Friedel_coverage         0.000
_reflns_number_gt                2348
_reflns_number_total             2742
_reflns_threshold_expression     'I > 2\s(I)'
_cod_data_source_file            cg5b00220_si_002.cif
_cod_data_source_block           aminopyrazine
_cod_database_code               4513162
_shelx_space_group_comment
;
The symmetry employed for this shelxl refinement is uniquely defined
by the following loop, which should always be used as a source of
symmetry information in preference to the above space-group names.
They are only intended as comments.
;
_shelxl_version_number           2014/6
_shelx_res_file
;
TITL shelx
CELL  1.54184  11.0071   7.6667  14.9346   90.000  103.846   90.000
ZERR     1.00   0.0004   0.0002   0.0004    0.000    0.003    0.000
LATT   1
SYMM  - X,   Y, - Z
SFAC  C    H    N    O    CU
UNIT  34 51 13 8 2
MERG   2
FREE C7 C8_01
eqiv $1   -x, -y, -z+2
EQIV $2   -x+1, -y, -z+2
EQIV $3   -x+1, y, -z+2
EQIV $4   x, -y, z
FREE C7 C8_$4
FREE C7 C7_$3
FREE C7 N5_$4
FREE  N4 N4_$4
FREE  N4 C6_$4
FREE C5 C6_$4
FREE C5 C5_$4
FLAT  0.100 C5 C6 N3 N4
DELU  0.010 0.010 C5 C6 N3 N4
SIMU  0.040 0.080 1.700 C5 C6 N3 N4
DFIX  1.347 0.005 N4 C6
DFIX  1.347 0.005 N4' C6
DFIX  1.350 0.020 C6 N4'
DFIX  0.350 0.020 C6 N4
FMAP   2
PLAN   20
ACTA
BOND
L.S.  14
WGHT    0.090800
FVAR      80.55370
PART    1
N4    3    0.968630    0.043550    0.821262    10.25000    0.07276    0.17349 =
         0.04954    0.02898    0.00362   -0.00447
AFIX  93
H4A   2    0.963347   -0.047007    0.786558    10.25000   -1.20000
H4B   2    0.965013    0.146159    0.797500    10.25000   -1.20000
AFIX   0
C5    1    1.100851    0.029750    0.969071    10.50000    0.05843    0.06923 =
         0.04645    0.00994    0.00473   -0.00213
AFIX  43
H5    2    1.169602    0.054371    0.945177    10.50000   -1.20000
AFIX   0
C6    1    0.982002    0.025444    0.909104    10.50000    0.06383    0.08750 =
         0.04438    0.01095    0.00435   -0.00292
C7    1    0.512066   -0.134557    0.947065    10.50000    0.07576    0.05125 =
         0.07257   -0.01683    0.01761   -0.00948
C8    1    0.574339    0.137842    0.997570    10.50000    0.07540    0.05427 =
         0.06258   -0.01470    0.01401   -0.01306
N5    3    0.646338    0.271008    0.998967    10.25000    0.12274    0.07264 =
         0.11297   -0.03495    0.06885   -0.02911
AFIX  23
H5A   2    0.717657    0.259766    0.981325    10.25000   -1.20000
H5B   2    0.635954    0.366086    1.030511    10.25000   -1.20000
AFIX   0
MOLE    1
C1    1    0.650366   -0.344780    0.743435    11.00000    0.08450    0.04300 =
         0.04434    0.00223    0.00304    0.00169
C2    1    0.620494   -0.500000    0.694635    10.50000    0.09021    0.04101 =
         0.04441    0.00000    0.00630    0.00000
C3    1    0.559427   -0.500000    0.595814    10.50000    0.08060    0.03845 =
         0.04749    0.00000    0.00569    0.00000
C4    1    0.528249   -0.344516    0.546400    11.00000    0.10530    0.03462 =
         0.04866   -0.00208    0.00418   -0.00232
AFIX  43
H4    2    0.546172   -0.238594    0.577067    11.00000   -1.20000
AFIX   0
N1    3    0.673367   -0.215304    0.782161    11.00000    0.10023    0.04551 =
         0.05123   -0.00234   -0.00017    0.00132
N2    3    0.584598    0.000000    0.943877    10.50000    0.06234    0.05275 =
         0.05858    0.00000    0.00966    0.00000
N3    3    0.880827    0.000000    0.941171    10.50000    0.05782    0.06600 =
         0.04562    0.00000    0.00005    0.00000
CU1   5    0.704077    0.000000    0.852838    10.50000    0.06549    0.04429 =
         0.04751    0.00000   -0.00119    0.00000
HKLF    4

REM  shelx
REM R1 =  0.0415 for    2348 Fo > 4sig(Fo)  and  0.0456 for all    2742 data
REM    112 parameters refined using     27 restraints

END

WGHT      0.0897      0.0000

REM Highest difference peak  0.471,  deepest hole -0.377,  1-sigma level  0.055
Q1    1   0.7277  0.5000  0.9973  10.50000  0.05    0.47
Q2    1   0.6746  0.5000  1.0781  10.50000  0.05    0.45
Q3    1   0.8365  0.0000  0.7691  10.50000  0.05    0.21
Q4    1   0.8242  0.0000  0.9180  10.50000  0.05    0.19
Q5    1   0.5152 -0.2401  0.9118  11.00000  0.05    0.18
Q6    1   0.7986  0.0000  0.8343  10.50000  0.05    0.13
Q7    1   0.5443  0.5000  0.9703  10.50000  0.05    0.12
Q8    1   0.6592 -0.5000  0.6894  10.50000  0.05    0.12
Q9    1   0.6454  0.5000  0.8859  10.50000  0.05    0.11
Q10   1   0.4984 -0.0957  0.9371  11.00000  0.05    0.11
Q11   1   0.7409 -0.5000  0.6666  10.50000  0.05    0.10
Q12   1   0.7528 -0.1799  0.8382  11.00000  0.05    0.10
Q13   1   1.0360  0.2118  0.9509  11.00000  0.05    0.10
Q14   1   0.5780  0.0000  0.7867  10.50000  0.05    0.10
Q15   1   0.4192  0.0000  0.9102  10.50000  0.05    0.10
Q16   1   0.5998  0.3970  0.9657  11.00000  0.05    0.10
Q17   1   0.6939  0.0000  0.9967  10.50000  0.05    0.10
Q18   1   0.8018  0.2742  1.0473  11.00000  0.05    0.09
Q19   1   1.0146  0.0000  0.5860  10.50000  0.05    0.09
Q20   1   0.7981 -0.0944  0.8990  11.00000  0.05    0.08
;
_shelx_res_checksum              96391
_shelx_hkl_file
;
   0   0   2 1716974   18659                                                      479116  -27.98   -0.03  1.0000
   0   0   3 3046332   53477                                                     2579947    1.95    0.00  1.0000
   0   0   4 1433010   85304                                                     4725957   13.66    0.06  1.0000
   0   0   5 1688893   94181                                                     4401650   11.16    0.02  1.0000
   0   0   6  231844   27201                                                      275927    0.65   -0.08  1.0000
   0   0   7 3403524   99961                                                     3296231   -0.41    0.03  1.0000
   0   0   8   75733   10478                                                         245    4.06    0.02  1.0000
   0   0  -9  514906   44639                                                      381220    1.40    0.00  1.0000
   0   0   9  578939   19839                                                      436562    1.40    0.00  1.0000
   0   0 -10 4231756  171944                                                     5211003   -3.15   -0.02  1.0000
   0   0  10 4360823   73356                                                     5353712   -3.15    0.02  1.0000
   0   0 -11 1365437  112202                                                     1914973   -3.01   -0.02  1.0000
   0   0  11 1326542   45143                                                     1868593   -3.01    0.02  1.0000
   0   0  12       1    7060                                                       -9144    0.01    0.01  1.0000
   0   0  12    2342    9925                                                        2266    0.01    0.01  1.0000
   0   0  12    5812    9294                                                        5692    0.01    0.01  1.0000
   0   0  12       1    9342                                                       -4021    0.01    0.01  1.0000
   0   0  13 1641276   71966                                                     1879183    1.25   -0.01  1.0000
   0   0  13 1538771   61453                                                     1769384    1.25   -0.01  1.0000
   0   0  14  376842   32910                                                      371963   -0.06   -0.01  1.0000
   0   0  14  390786   30669                                                      385817   -0.06   -0.01  1.0000
   0   0  15  146782   19065                                                      125161   -0.41    0.00  1.0000
   0   0  15  149376   19844                                                      127557   -0.41    0.00  1.0000
   0   0  16   89706   13225                                                       62829    0.69   -0.01  1.0000
   0   0  17  198139   17266                                                      185614    0.20    0.02  1.0000
   0   0  18   24562    5563                                                       22423    0.10    0.01  1.0000
   0  -1   035810756   87928                                                    13673976  -31.97    0.36  1.0000
   0  -1  -175247456  177292                                                    33153700  -40.76    0.08  1.0000
   0   1   175314816  133655                                                    33196800  -40.76   -0.08  1.0000
   0   1   2 3082269   25384                                                      870334  -11.50   -0.18  1.0000
   0   1   3 7005412   62908                                                     3857675    9.53    0.73  1.0000
   0  -1   3 7297673   37715                                                     4091703    9.54   -0.72  1.0000
   0  -1   4 7495321   56003                                                     6883788    1.60   -0.18  1.0000
   0   1   4 7346949   96819                                                     6732029    1.62    0.20  1.0000
   0   1   5   76116    6287                                                        6353   -4.96   -0.29  1.0000
   0  -1   5    6727    7498                                                       74732   -4.95    0.31  1.0000
   0  -1   6 4988730   48004                                                     3071972   -6.72   -0.22  1.0000
   0   1   6 5110472   86571                                                     3171321   -6.72    0.15  1.0000
   0  -1  -7  208326   19814                                                       64342   -2.87   -0.01  1.0000
   0   1   7  220228   17470                                                       71183   -2.87    0.01  1.0000
   0  -1   7  231860    9526                                                       77798   -2.87    0.00  1.0000
   0  -1   8   59458    8464                                                       37907   -0.78    0.12  1.0000
   0   1   8   55101   13360                                                       31345   -0.79   -0.14  1.0000
   0  -1  -8   28044   11888                                                       13732   -0.79    0.14  1.0000
   0   1  -9 2120731  101132                                                     2371809   -1.17    0.09  1.0000
   0  -1   9 2220615   52549                                                     2478218   -1.17   -0.09  1.0000
   0  -1  -9 2150565  117845                                                     2405128   -1.18   -0.08  1.0000
   0   1   9 2062406   99587                                                     2311109   -1.18    0.08  1.0000
   0   1  10 3463313  120261                                                     2824035    2.53   -0.21  1.0000
   0  -1 -10 3538898  137498                                                     2888454    2.53    0.21  1.0000
   0  -1  10 3647329   61656                                                     2986953    2.53    0.19  1.0000
   0   1  11 1481387   46534                                                     1215909    1.61   -0.12  1.0000
   0  -1  11 1635007   58347                                                     1353468    1.61    0.12  1.0000
   0  -1  11 1618088   47120                                                     1338078    1.61    0.12  1.0000
   0  -1  11 1562165   54559                                                     1287268    1.61    0.12  1.0000
   0  -1  11 1575338   42942                                                     1299228    1.61    0.12  1.0000
   0  -1 -11 1547705   96883                                                     1274489    1.61    0.12  1.0000
   0  -1  12    4597    9662                                                        6973    0.22   -0.01  1.0000
   0   1  12   13866    7207                                                       17742    0.22    0.01  1.0000
   0  -1 -12     607    5887                                                        1602    0.22   -0.01  1.0000
   0  -1  12    3722    9484                                                        5884    0.22   -0.01  1.0000
   0   1  12     239   12425                                                       -4649    0.22    0.01  1.0000
   0  -1  12   15705   12369                                                       19890    0.22   -0.01  1.0000
   0   1  12     239    8053                                                        -216    0.22    0.01  1.0000
   0  -1  13  465100   35277                                                      413209   -0.55    0.09  1.0000
   0  -1  13  527292   32237                                                      471947   -0.55    0.09  1.0000
   0   1  13  470703   33984                                                      416799   -0.56   -0.09  1.0000
   0   1  13  484269   31498                                                      429571   -0.56   -0.09  1.0000
   0  -1  14 1218020   59250                                                     1259079    0.26   -0.17  1.0000
   0   1  14 1092593   54119                                                     1134060    0.27    0.18  1.0000
   0  -1  14 1199650   50878                                                     1240399    0.26   -0.17  1.0000
   0  -1  15    1834   11986                                                         440   -0.30   -0.03  1.0000
   0  -1  15   20505   11051                                                       14727   -0.30   -0.03  1.0000
   0   1  15     453    9412                                                        -232   -0.29    0.04  1.0000
   0  -1  16  125606   18813                                                      139585   -0.27    0.00  1.0000
   0   1  16  121049   17063                                                      134910   -0.27   -0.02  1.0000
   0  -1  16  110594   16814                                                      123734   -0.27    0.00  1.0000
   0   1  17  125184   14621                                                      146146   -0.40   -0.04  1.0000
   0  -1  17  135731   16497                                                      157535   -0.40    0.03  1.0000
   0  -1  18    2988    3791                                                        4602   -0.20    0.07  1.0000
   0  -2   027855484  276011                                                    66829896   40.49   -0.13  1.0000
   0   2   117791104  156351                                                    25523468   11.65    0.37  1.0000
   0  -2   117688140  141514                                                    25405270   11.67   -0.41  1.0000
   0  -2  -2 1388046   81378                                                     3304290    8.94    0.42  1.0000
   0   2   2 1341022   57741                                                     3233251    8.94   -0.42  1.0000
   0   2   3  818221   33495                                                      892318   -0.55   -0.11  1.0000
   0  -2  -3  823768   47149                                                      896173   -0.55    0.11  1.0000
   0   2   419840836  168800                                                    18586332    2.01   -0.29  1.0000
   0  -2  -419938160  234489                                                    18674230    2.01    0.29  1.0000
   0  -2  -5 3327503  109143                                                     3300870    0.10    0.45  1.0000
   0   2   5 3333205   81371                                                     3308230    0.10   -0.45  1.0000
   0   2   6 2469610   81524                                                     2677366    0.89    0.30  1.0000
   0  -2  -6 2464643  107069                                                     2667616    0.89   -0.30  1.0000
   0   2   7 4455550  121056                                                     4583209    0.41    0.17  1.0000
   0  -2  -7 4447498  151281                                                     4571669    0.41   -0.17  1.0000
   0   2   8   53207   13678                                                       41344    5.76    0.27  1.0000
   0  -2  -8   45217   19275                                                       40383    5.76   -0.27  1.0000
   0  -2  -9 5320633  188967                                                     5319132    0.00    0.09  1.0000
   0   2   9 5303540  153623                                                     5303032    0.00   -0.09  1.0000
   0   2  10 1845238  111783                                                     2404738   -2.69   -0.10  1.0000
   0  -2 -10 2135018  144558                                                     2732405   -2.69    0.10  1.0000
   0   2  11 1635851  106517                                                     1878393   -1.28    0.09  1.0000
   0  -2  11 1780233   69992                                                     2035682   -1.29   -0.10  1.0000
   0   2  11 1637017   65396                                                     1879643   -1.28    0.09  1.0000
   0  -2 -11 1695281  127723                                                     1943013   -1.28   -0.09  1.0000
   0  -2  11 1764787   71972                                                     2019162   -1.29   -0.10  1.0000
   0   2  12   55493   14432                                                       76420    0.57   -0.14  1.0000
   0  -2  12   55180   15971                                                       76044    0.56    0.15  1.0000
   0  -2  12   61872   17614                                                       83871    0.56    0.15  1.0000
   0   2  13  465528   36619                                                      541633    0.75    0.10  1.0000
   0  -2  13  483913   34534                                                      560828    0.75   -0.10  1.0000
   0  -2  13  495033   39763                                                      572796    0.75   -0.10  1.0000
   0  -2  13  480128   40019                                                      556752    0.75   -0.10  1.0000
   0   2  14  209763   21339                                                      181843   -0.45    0.08  1.0000
   0  -2  14  214968   21396                                                      186070   -0.45   -0.06  1.0000
   0  -2  14  206140   22937                                                      177863   -0.45   -0.06  1.0000
   0   2  15    9294    7135                                                        7681   -0.12   -0.02  1.0000
   0  -2  15    9254   10481                                                        7783   -0.12    0.04  1.0000
   0  -2  15   13810    9610                                                       12001   -0.12    0.04  1.0000
   0  -2  16   58921    9154                                                       36645    0.72   -0.01  1.0000
   0   2  16   74211    9997                                                       48908    0.72   -0.01  1.0000
   0  -2  16   40271   10181                                                       22305    0.72   -0.01  1.0000
   0  -2  17   54691    9684                                                       56077   -0.05    0.06  1.0000
   0  -3   022367682  153498                                                    13563777  -14.63    0.06  1.0000
   0  -3   1 6398434   53512                                                     2299379  -14.16   -0.21  1.0000
   0   3   1 6221151   57047                                                     2206160  -14.12    0.35  1.0000
   0  -3  -1 6297672   72524                                                     2246160  -14.12   -0.35  1.0000
   0   3   2  493332   24574                                                      413885   -0.83   -0.06  1.0000
   0  -3  -2  487396   33935                                                      408170   -0.83    0.06  1.0000
   0   3   3 9518385  114698                                                     8411054    2.59   -0.24  1.0000
   0  -3  -3 9220802  161373                                                     8126147    2.59    0.24  1.0000
   0  -3  -4 2207492   96043                                                     2457948   -1.15    0.02  1.0000
   0   3   4 2233718   68227                                                     2486038   -1.15   -0.02  1.0000
   0  -3  -5 2199598  106609                                                     2549687   -1.59   -0.09  1.0000
   0   3   5 2106432   75187                                                     2449018   -1.59    0.09  1.0000
   0  -3  -6  246955   36695                                                      244950   -0.03   -0.01  1.0000
   0   3   6  252047   27667                                                      250183   -0.03    0.01  1.0000
   0   3   7 2627647   89109                                                     2402848   -0.99    0.00  1.0000
   0  -3  -7 2749419  121818                                                     2519387   -0.99    0.00  1.0000
   0   3   8  182670   21553                                                       91357   -1.76    0.07  1.0000
   0  -3  -8  206832   29407                                                      108080   -1.76   -0.07  1.0000
   0   3   9 1294519   81154                                                     1382248   -0.52   -0.20  1.0000
   0  -3  -9 1303019  102348                                                     1389247   -0.52    0.20  1.0000
   0  -3  10 7472579  127341                                                     7138506    0.87   -0.07  1.0000
   0  -3 -10 7801072  248590                                                     7465133    0.85   -0.08  1.0000
   0  -3 -10 7582768  105868                                                     7251614    0.85   -0.08  1.0000
   0  -3  10 7337390  128069                                                     7006387    0.87   -0.07  1.0000
   0  -3  11    3360   10703                                                      -11129    0.81   -0.02  1.0000
   0  -3  11    3360    9650                                                       -5337    0.81   -0.02  1.0000
   0  -3 -11    9240    6697                                                        6773    0.82   -0.02  1.0000
   0  -3  12   10280   10060                                                        8091   -0.16   -0.05  1.0000
   0  -3  12   21712   10520                                                       18478   -0.16   -0.05  1.0000
   0  -3  13  233300   22623                                                      243649    0.16   -0.14  1.0000
   0  -3  13  189123   22996                                                      198440    0.16   -0.14  1.0000
   0  -3  14   55794   11917                                                       43181   -0.41    0.02  1.0000
   0  -3  14   51049   13100                                                       39018   -0.41    0.02  1.0000
   0  -3  15   86369   14436                                                       84462   -0.05    0.07  1.0000
   0  -3  15   85040   14052                                                       83148   -0.05    0.07  1.0000
   0  -3  16    8855    6172                                                        7268    0.12    0.02  1.0000
   0  -3  16      78    9150                                                       -7179    0.12    0.02  1.0000
   0  -3  17  284172   15935                                                      299728   -0.20    0.03  1.0000
   0   4   014914332  218898                                                    20807412    9.77    0.33  1.0000
   0  -4   015145553  216311                                                    21072710    9.77   -0.33  1.0000
   0   4   1 6389190  131099                                                     8164947    4.61   -0.09  1.0000
   0  -4  -1 6231228  154850                                                     7987548    4.61    0.09  1.0000
   0  -4  -2  440330   32346                                                      293637    1.70    0.16  1.0000
   0   4   2  437835   24147                                                      292431    1.70   -0.16  1.0000
   0  -4  -3 2265898  101349                                                     2492738   -1.02   -0.14  1.0000
   0   4   3 2265897   71972                                                     2490388   -1.02    0.14  1.0000
   0   4   4 5634778  120402                                                     6173934   -1.55   -0.01  1.0000
   0  -4  -4 5700989  171074                                                     6243124   -1.55    0.01  1.0000
   0   4   5    6215    7927                                                        6501   -0.16    0.60  1.0000
   0  -4  -5   11358   14194                                                       13437   -0.16   -0.60  1.0000
   0   4   6 1017236   59861                                                     1087880    0.48   -0.02  1.0000
   0  -4  -6  984826   80879                                                     1054621    0.48    0.02  1.0000
   0  -4  -7  585834   71461                                                      717893    1.14    0.13  1.0000
   0   4   7  624874   53340                                                      759104    1.14   -0.13  1.0000
   0   4   8    4020   10518                                                        4585    1.75   -0.03  1.0000
   0  -4  -8   15697   23043                                                      -46554    1.75    0.03  1.0000
   0  -4  -9  850535   85870                                                      873116   -0.17    0.05  1.0000
   0  -4   9  804208   42402                                                      826573   -0.17    0.05  1.0000
   0   4   9  787803   62813                                                      809922   -0.17   -0.05  1.0000
   0  -4  -9  912840   40769                                                      936229   -0.17    0.05  1.0000
   0  -4  10  182428   26353                                                      281854   -1.46    0.01  1.0000
   0  -4 -10  200379   23723                                                      303782   -1.45    0.00  1.0000
   0  -4 -11 2311013   62344                                                     2313819   -0.01    0.06  1.0000
   0  -4  11 2227275   73579                                                     2227800    0.00    0.04  1.0000
   0  -4 -12    7168    5892                                                        6064    0.10    0.03  1.0000
   0  -4 -13  420387   22927                                                      418586   -0.02    0.00  1.0000
   0  -4  13  424424   27082                                                      422620   -0.02    0.03  1.0000
   0  -4  14  553600   28343                                                      522434   -0.30    0.04  1.0000
   0  -4  15     175    5096                                                       -1381    0.18   -0.03  1.0000
   0  -4  15     175    9189                                                      -13412    0.18   -0.03  1.0000
   0  -4  16  174471   11415                                                      162181    0.21    0.02  1.0000
   0  -4  16  193380   12789                                                      180428    0.21    0.02  1.0000
   0   5   0 6153808  125412                                                     5145064   -2.97   -0.17  1.0000
   0   5  -1 4652033  114500                                                     3859965   -2.69   -0.06  1.0000
   0   5   1 4552586  103743                                                     3780646   -2.65    0.05  1.0000
   0   5   2  289207   31176                                                      342974   -0.67    0.02  1.0000
   0   5   3 4520216  107246                                                     4103583    1.41   -0.09  1.0000
   0  -5  -3 4195301  136722                                                     3792816    1.41    0.09  1.0000
   0   5   4 1278548   59974                                                     1163700    0.74   -0.15  1.0000
   0  -5  -4 1279821   82273                                                     1162750    0.74    0.15  1.0000
   0   5   5     641    7633                                                        5773    1.37   -0.33  1.0000
   0  -5  -5      40   16859                                                       11420    1.37    0.33  1.0000
   0  -5   6  474374   26196                                                      463271   -0.12    0.12  1.0000
   0  -5  -6  383579   54297                                                      374068   -0.12    0.12  1.0000
   0  -5  -6  385133   26141                                                      375603   -0.12    0.12  1.0000
   0  -5   7  104629   10626                                                       51811   -1.40    0.01  1.0000
   0  -5  -7   99819   10475                                                       48331   -1.39   -0.02  1.0000
   0  -5  -8   39014    9785                                                       30556   -0.32   -0.02  1.0000
   0  -5   8   53537   10586                                                       43306   -0.33   -0.01  1.0000
   0  -5  -9  170792   17711                                                      151654    0.34   -0.03  1.0000
   0  -5 -10 1404357   47762                                                     1311738    0.55    0.03  1.0000
   0  -5 -11  567243   29663                                                      541227    0.25   -0.03  1.0000
   0  -5 -12   31666    8634                                                       34530   -0.11    0.05  1.0000
   0  -5 -13  151803   13385                                                      149354   -0.04    0.00  1.0000
   0  -5  13  131294   14552                                                      129013   -0.04   -0.02  1.0000
   0  -5 -14  335495   16788                                                      382633    0.55   -0.04  1.0000
   0  -5  14  322483   19963                                                      369149    0.56   -0.04  1.0000
   0  -5  15     651    4928                                                         418   -0.07   -0.01  1.0000
   0  -6   0 9172711  125116                                                    10005509    1.88   -0.01  1.0000
   0  -6   1  684075   33638                                                      742180    0.48   -0.08  1.0000
   0  -6   1  618816   31016                                                      674135    0.48   -0.08  1.0000
   0  -6  -1  634506   32475                                                      689922    0.48   -0.07  1.0000
   0  -6   2    1858    6176                                                        7416   -0.77    0.02  1.0000
   0  -6   2    3052    5494                                                        -623   -0.77    0.02  1.0000
   0  -6   2    3052    6979                                                       -4630   -0.77    0.02  1.0000
   0  -6  -2    3509    6849                                                       11305   -0.78    0.04  1.0000
   0  -6  -3  780400   38503                                                      908177   -0.97   -0.01  1.0000
   0  -6   3  790797   36036                                                      919608   -0.97   -0.05  1.0000
   0  -6   3  842543   37165                                                      975345   -0.97   -0.05  1.0000
   0  -6   3  745064   37348                                                      870237   -0.97   -0.05  1.0000
   0  -6  -3  764531   37085                                                      891051   -0.97   -0.01  1.0000
   0  -6  -4  473710   33117                                                      627921   -1.45   -0.13  1.0000
   0  -6   4  434596   32259                                                      583097   -1.45   -0.11  1.0000
   0  -6   4  507824   31170                                                      667467   -1.45   -0.11  1.0000
   0  -6   4  443899   24664                                                      593866   -1.45   -0.11  1.0000
   0  -6  -5  122393   17582                                                      162733   -0.74   -0.21  1.0000
   0  -6   5  135859   13166                                                      178637   -0.75   -0.15  1.0000
   0  -6   5  143877   17914                                                      187816   -0.75   -0.15  1.0000
   0  -6   5  111527   18013                                                      150553   -0.75   -0.15  1.0000
   0  -6  -6   98372   13867                                                       97334   -0.01   -0.14  1.0000
   0  -6   7 1250355   45669                                                     1307398    0.35    0.00  1.0000
   0  -6  -7 1261424   48438                                                     1319308    0.36   -0.05  1.0000
   0  -6  -8   18280    8937                                                       23181    0.24   -0.01  1.0000
   0  -6  -9  343894   25724                                                      391739   -0.55    0.05  1.0000
   0  -6 -10 1099316   41319                                                     1143850   -0.29   -0.02  1.0000
   0  -6 -11  191254   16823                                                      199602   -0.13    0.00  1.0000
   0  -6  12    4006    7227                                                        8402    0.37   -0.15  1.0000
   0  -6 -12     598    4809                                                        2897    0.36   -0.20  1.0000
   0  -6  13  165739   11142                                                      152874   -0.23    0.01  1.0000
   0  -6  13  181617   13263                                                      168137   -0.23    0.01  1.0000
   0  -6  14    3758    2509                                                         974   -0.51    0.06  1.0000
   0  -7   0  185134   15923                                                      166489   -0.30   -0.09  1.0000
   0  -7   0  174400   15672                                                      156319   -0.30   -0.09  1.0000
   0  -7  -1 2256854   57585                                                     2260450    0.02    0.01  1.0000
   0  -7   1 2414511   59158                                                     2423368    0.04   -0.01  1.0000
   0  -7   1 2354362   57822                                                     2363109    0.04   -0.01  1.0000
   0  -7  -1 2404767   62935                                                     2408478    0.02    0.01  1.0000
   0  -7  -2  277049   23705                                                      308343    0.40    0.00  1.0000
   0  -7   2  296415   21611                                                      330102    0.42    0.05  1.0000
   0  -7  -2  272941   21155                                                      304008    0.40    0.00  1.0000
   0  -7   2  323664   23047                                                      358825    0.42    0.05  1.0000
   0  -7   2  306103   22466                                                      340322    0.42    0.05  1.0000
   0  -7   3  183957   13098                                                      109551    1.38    0.00  1.0000
   0  -7  -3  151369   13639                                                       84715    1.37    0.04  1.0000
   0  -7   3  165046   10545                                                       95066    1.38    0.00  1.0000
   0  -7  -3  162662   12306                                                       93216    1.37    0.04  1.0000
   0  -7   3  174693   13018                                                      102425    1.38    0.00  1.0000
   0  -7   4  972337   35191                                                      794723    1.32    0.16  1.0000
   0  -7  -4 1072036   37813                                                      885093    1.32    0.11  1.0000
   0  -7   4 1056682   29228                                                      871148    1.32    0.16  1.0000
   0  -7   5   43184    6825                                                       31831    0.41    0.08  1.0000
   0  -7   5   17971    6688                                                       10944    0.41    0.08  1.0000
   0  -7  -5   27000    7791                                                       18161    0.41    0.09  1.0000
   0  -7  -6  772488   35765                                                      787549    0.10    0.36  1.0000
   0  -7   6  799631   38960                                                      816134    0.11    0.36  1.0000
   0  -7   6  884129   26021                                                      901511    0.11    0.36  1.0000
   0  -7  -7  324272   21580                                                      293233   -0.38   -0.39  1.0000
   0  -7   7  288660   23153                                                      259246   -0.38   -0.38  1.0000
   0  -7   8   25686    9754                                                       29433    0.16    0.02  1.0000
   0  -7  -8   49378   10837                                                       54599    0.16    0.06  1.0000
   0  -7   9  278948   21555                                                      244218    0.47    0.17  1.0000
   0  -7  -9  403652   21429                                                      362429    0.46    0.17  1.0000
   0  -7 -10  322584   18484                                                      311644    0.14   -0.01  1.0000
   0  -7  10  244323   18883                                                      234349    0.14   -0.01  1.0000
   0  -7  11   78980    9625                                                       75478    0.08    0.07  1.0000
   0  -7 -11  104993    9762                                                      100655    0.09    0.05  1.0000
   0  -7 -12   17335    3788                                                       14866   -0.14    0.02  1.0000
   0  -7  12    8995    2794                                                        7227   -0.14    0.00  1.0000
   0  -8   0 1781276   48456                                                     1862673    0.41    0.31  1.0000
   0  -8   0 1790174   46883                                                     1871773    0.41    0.31  1.0000
   0  -8  -1  366837   22577                                                      371954    0.05    0.11  1.0000
   0  -8  -1  354370   20451                                                      359398    0.05    0.11  1.0000
   0  -8   1  355712   19087                                                      360543    0.05    0.11  1.0000
   0  -8   1  378046   21982                                                      383028    0.05    0.11  1.0000
   0  -8  -2   10748    5529                                                        6360   -0.71   -0.50  1.0000
   0  -8  -2    8715    4405                                                        4413   -0.71   -0.50  1.0000
   0  -8   2    4613    4600                                                       -1380   -0.78   -0.55  1.0000
   0  -8   2    7379    4974                                                        3183   -0.78   -0.55  1.0000
   0  -8   3   86897    9605                                                      102284   -0.36    0.09  1.0000
   0  -8  -3   87274   13637                                                      102933   -0.36    0.09  1.0000
   0  -8   4  297235   15462                                                      336619   -0.49    0.01  1.0000
   0  -8  -4  269682   19018                                                      307898   -0.50    0.01  1.0000
   0  -8  -4  278376   23846                                                      317183   -0.50    0.01  1.0000
   0  -8  -5    4303    5061                                                        5889   -0.16   -0.01  1.0000
   0  -8  -5    3172    6246                                                        4552   -0.16   -0.01  1.0000
   0  -8   5    7409    3935                                                        9423   -0.15   -0.02  1.0000
   0  -8  -6  111653   11809                                                      110538   -0.02   -0.05  1.0000
   0  -8  -6   85931   13978                                                       84952   -0.02   -0.05  1.0000
   0  -8  -7  216457   19126                                                      214713   -0.02   -0.08  1.0000
   0  -8   7  232704   15329                                                      231064   -0.02   -0.09  1.0000
   0  -8  -7  277381   17063                                                      275411   -0.02   -0.08  1.0000
   0  -8  -8      19    4606                                                       -2360   -0.06   -0.01  1.0000
   0  -8  -8      19    5379                                                       -4139   -0.06   -0.01  1.0000
   0  -8  -9  131117   11892                                                      141038   -0.19    0.03  1.0000
   0  -8  -9  137289   10582                                                      147436   -0.19    0.03  1.0000
   0  -8 -10   99657    7311                                                      100214   -0.01    0.01  1.0000
   0  -8 -10   79582    6939                                                       80080   -0.01    0.01  1.0000
   0  -9   0  771292   23253                                                      780733    0.07    0.00  1.0000
   0  -9   1  163755    9922                                                      148979   -0.26    0.04  1.0000
   0  -9  -1  150416   10582                                                      135563   -0.28    0.01  1.0000
   0  -9   2   28879    4506                                                       25108    0.16    0.07  1.0000
   0  -9  -2   19159    4491                                                       16251    0.15    0.08  1.0000
   0  -9  -3  446354   17725                                                      409617    0.39    0.13  1.0000
   0  -9   3  499451   14250                                                      459654    0.40    0.14  1.0000
   0  -9  -4    9751    4988                                                       12817   -0.20   -0.04  1.0000
   0  -9  -4     211    5083                                                       -5075   -0.20   -0.04  1.0000
   0  -9  -5     496    3604                                                       -4098   -0.31   -0.01  1.0000
   0  -9  -5    2104    3640                                                        4643   -0.31   -0.01  1.0000
   0  -9  -6     427    2466                                                       -1181   -0.29    0.04  1.0000
   0  -9  -6    3580    2748                                                        1938   -0.29    0.04  1.0000
  -1   0  18  132696    9861                                                      126500    0.12    0.00  1.0000
  -1   0  17     136    7592                                                       -2129   -0.16    0.00  1.0000
  -1   0  16  167324   20457                                                      170633    0.06   -0.01  1.0000
  -1   0  15    1996    9734                                                        1404   -0.11    0.00  1.0000
  -1   0  14    3990   12948                                                        9766   -0.50    0.06  1.0000
  -1   0  14   15455   12326                                                       25593   -0.50    0.06  1.0000
  -1   0  13 1936771   68147                                                     2212940   -1.34   -0.03  1.0000
  -1   0  13 2007668   79395                                                     2288679   -1.34   -0.03  1.0000
  -1   0  12 2103623   70287                                                     1882363    1.10    0.00  1.0000
   1   0 -12 1992644  113051                                                     1777424    1.10    0.00  1.0000
  -1   0  12 2015098   57938                                                     1798674    1.10    0.00  1.0000
   1   0 -11  491114   40524                                                      247489    2.84    0.01  1.0000
  -1   0  10 1486653   32996                                                     1263939   -1.33    0.01  1.0000
  -1   0  10 1289437   74218                                                     1082640   -1.33    0.01  1.0000
  -1   0   9  938287   57321                                                      762037   -1.34    0.00  1.0000
  -1   0   9 1106333   25990                                                      914166   -1.34    0.00  1.0000
  -1   0   8 1269407   86385                                                     2155681    4.78    0.00  1.0000
  -1   0   7 2406199   88352                                                     2693266   -1.26    0.01  1.0000
  -1   0   6  754009   46304                                                      903361   -1.15   -0.02  1.0000
  -1   0   5 3569684   68328                                                     2540747    4.13   -0.01  1.0000
  -1   0   415531916  178986                                                    22754594  -11.59    0.01  1.0000
  -1   0   3   29493  138001                                                    19981918   64.79   -0.01  1.0000
  -1   0   213736871  112291                                                    21509706   13.02    0.05  1.0000
  -1   0   162230752   40028                                                     5472191  -77.56    0.01  1.0000
  -1   0   035039560   36171                                                     2484418   60.70    0.00  1.0000
  -1   0  -139650352   78120                                                     8739721   46.71   -0.14  1.0000
  -1   0  -219568852   23989                                                      536190   51.84    0.03  1.0000
  -1   0  -3   96832  102263                                                     7150735  -41.72    0.13  1.0000
   1   0   3  108792   95126                                                     7051507  -41.72   -0.13  1.0000
   1   0   4  125562   30055                                                      501441    4.97   -0.02  1.0000
  -1   0  -4  109122   31030                                                      468275    4.97    0.02  1.0000
   1   0   5  111712   42022                                                      781535    7.91    0.06  1.0000
  -1   0  -5  103252   43774                                                      759645    7.91   -0.06  1.0000
  -1   0  -6 1486825   63849                                                     1316978   -1.00   -0.01  1.0000
  -1   0  -7 2972599  110874                                                     3395339   -1.66    0.03  1.0000
  -1   0  -8 2873173  117864                                                     3228301   -1.42    0.03  1.0000
   1   0   9 3247794   50599                                                     2628346    2.53    0.01  1.0000
  -1   0  -9 2898074  107016                                                     2314839    2.53   -0.01  1.0000
   1   0  10  163221   23927                                                      477438    4.01    0.02  1.0000
  -1   0 -10  161177   52349                                                      473909    4.01   -0.02  1.0000
   1   0  11 2483907   60981                                                     2200680   -1.30    0.03  1.0000
   1   0  11 2523217   70432                                                     2237690   -1.30    0.03  1.0000
   1   0  11 2601249   76141                                                     2311209   -1.30    0.03  1.0000
   1   0  11 2409877   51013                                                     2131031   -1.30    0.03  1.0000
   1   0  12 3133631   57017                                                     2395608   -3.11    0.00  1.0000
   1   0  12 3237288   68963                                                     2486348   -3.11    0.00  1.0000
   1   0  12 3214770   77593                                                     2466618   -3.11    0.00  1.0000
   1   0  12 3202553   81505                                                     2455918   -3.11    0.00  1.0000
   1   0  13   23880   13596                                                       22385   -0.07    0.02  1.0000
   1   0  13   26563   10741                                                       24986   -0.07    0.02  1.0000
   1   0  13    4529    7466                                                        3890   -0.07    0.02  1.0000
   1   0  14  159878   19826                                                      129266    0.57    0.00  1.0000
   1   0  14  165877   21016                                                      134666    0.57    0.00  1.0000
   1   0  15  836974   45351                                                      865957   -0.22    0.00  1.0000
   1   0  15  873968   41984                                                      903579   -0.22    0.00  1.0000
   1   0  16  240314   23317                                                      264139   -0.33    0.00  1.0000
   1   0  17    5659    5559                                                        2815   -0.32   -0.01  1.0000
  -1  -1  18  129916   11382                                                      136496   -0.12   -0.06  1.0000
  -1  -1  17   13672    6697                                                        7224    0.45    0.03  1.0000
  -1   1  17    1073    7136                                                       -1921    0.46   -0.03  1.0000
  -1   1  17    5869    5025                                                        1923    0.46   -0.03  1.0000
  -1   1  16   84449   14049                                                       73982   -0.26    0.02  1.0000
  -1  -1  16   84075   14488                                                       73450   -0.26   -0.01  1.0000
  -1   1  15  304130   26417                                                      274770   -0.37   -0.21  1.0000
  -1  -1  15  278738   26923                                                      252854   -0.37    0.20  1.0000
  -1  -1  15  330624   27219                                                      302399   -0.37    0.20  1.0000
  -1  -1  14  225941   23404                                                      177771    0.75   -0.02  1.0000
  -1   1  14  200141   20933                                                      154920    0.75   -0.03  1.0000
  -1  -1  14  238262   22959                                                      188719    0.75   -0.02  1.0000
  -1  -1  13 1135939   54672                                                     1049211    0.58   -0.11  1.0000
  -1  -1  13 1120663   45921                                                     1034531    0.58   -0.11  1.0000
  -1   1  13  998755   44640                                                      917274    0.58    0.08  1.0000
  -1   1  13 1073505   51770                                                      988967    0.58    0.08  1.0000
  -1  -1  12 1878391   72288                                                     1968912   -0.45   -0.08  1.0000
  -1  -1  12 1880803   59361                                                     1971382   -0.45   -0.08  1.0000
  -1   1  12 1719631   59779                                                     1805324   -0.46    0.12  1.0000
  -1   1  12 1894475   70436                                                     1984372   -0.46    0.12  1.0000
   1  -1 -12 1772289  122866                                                     1861033   -0.46   -0.12  1.0000
  -1   1  11  365810   22041                                                      527345   -1.70    0.22  1.0000
   1  -1 -11  264739   57007                                                      405661   -1.70   -0.22  1.0000
  -1   1  11  313879   53151                                                      464570   -1.70    0.22  1.0000
   1  -1 -10  465338   52275                                                      387284   -0.85    0.25  1.0000
  -1   1  10  443127   44186                                                      365283   -0.85   -0.25  1.0000
  -1  -1  10  487871   22038                                                      408015   -0.85    0.25  1.0000
  -1   1   9 2452856  102980                                                     2472518    0.10   -0.24  1.0000
  -1  -1   9 2536604   49434                                                     2559267    0.09    0.24  1.0000
  -1  -1   8  271890   17647                                                      364106    1.13    0.27  1.0000
  -1   1   8  257081   35579                                                      343405    1.12   -0.24  1.0000
  -1  -1   7  230585   11623                                                      157945   -1.16    0.22  1.0000
  -1   1   7  287892   25081                                                      206191   -1.16   -0.23  1.0000
  -1  -1   6 4737769   52945                                                     4812837   -0.23   -0.17  1.0000
  -1   1   6 5005632  105794                                                     5077854   -0.23    0.20  1.0000
  -1   1   5 9755333  140123                                                    11162999   -3.05    0.46  1.0000
  -1  -1   5 9938474  161077                                                    11362997   -3.04   -0.46  1.0000
  -1  -1   5 9749628   71175                                                    11160999   -3.04   -0.46  1.0000
  -1   1   4  999376   81985                                                     5083384  -17.53   -0.40  1.0000
  -1  -1   4  974448   93343                                                     5021145  -17.52    0.36  1.0000
  -1   1   3 7980411   88861                                                     7644371   -0.86    0.54  1.0000
  -1   1   228953540  144763                                                    24876974   -5.50    0.22  1.0000
  -1  -1   1  280254   10052                                                       93609  -11.61   -1.21  1.0000
  -1  -1   1  270568    8952                                                       99342  -11.61   -1.21  1.0000
  -1  -1   0 5737656   26625                                                      663614  -22.47    2.58  1.0000
   1   1   0 5592375   12538                                                      631292  -22.47   -2.58  1.0000
  -1  -1  -117696070  199754                                                    31176518  -19.25    0.09  1.0000
   1   1   117947992  109920                                                    31512814  -19.25   -0.09  1.0000
   1  -1   223059226  106818                                                    33208800  -13.41   -1.04  1.0000
   1   1   223139570  155843                                                    33282798  -13.41    1.10  1.0000
   1   1   3 2616598  100346                                                     8732661  -18.68   -0.70  1.0000
   1  -1   3 2820998   64908                                                     9099518  -18.68    0.70  1.0000
  -1  -1  -3 2668335  134541                                                     8825030  -18.68    0.70  1.0000
  -1   1  -3 2750732   87163                                                     8974899  -18.68   -0.70  1.0000
  -1   1  -4 4334245   89700                                                     6010066    5.16    0.20  1.0000
  -1  -1  -4 4141179  121226                                                     5774808    5.15   -0.23  1.0000
   1  -1   4 4280644   62499                                                     5943486    5.16   -0.20  1.0000
   1   1   4 4364068   96432                                                     6041516    5.15    0.23  1.0000
   1   1   5 6322010  129520                                                     8265635    5.05   -0.23  1.0000
  -1  -1  -5 6370707  159055                                                     8326295    5.05    0.23  1.0000
   1  -1   5 5978743   81900                                                     7874308    5.04    0.25  1.0000
  -1   1  -5 6367834  123889                                                     8314525    5.04   -0.25  1.0000
  -1  -1  -6  154713   33108                                                      266503   -1.71    0.12  1.0000
   1  -1   6  204300   19087                                                      330855   -1.72    0.13  1.0000
  -1   1  -6  163003   26525                                                      276650   -1.72   -0.13  1.0000
   1   1   6  159740   27855                                                      272112   -1.71   -0.12  1.0000
  -1  -1  -7  700626   50787                                                      574867    1.11   -0.18  1.0000
  -1   1  -7  710345   42384                                                      582696    1.11    0.14  1.0000
   1   1   7  696704   43617                                                      569767    1.11    0.18  1.0000
   1  -1   7  784171   26956                                                      651072    1.11   -0.14  1.0000
  -1  -1  -8 4275633  141579                                                     3952925    1.11    0.13  1.0000
  -1   1  -8 4312242  119647                                                     3990914    1.11   -0.12  1.0000
   1  -1   8 4618452   70375                                                     4283261    1.11    0.12  1.0000
   1  -1   9 1277217   47910                                                     1797364   -2.94   -0.07  1.0000
  -1  -1  -9 1230317  100105                                                     1742534   -2.95   -0.07  1.0000
   1  -1  10  296109   17214                                                      177783   -1.71   -0.18  1.0000
  -1  -1 -10  230898   31296                                                      128305   -1.71   -0.18  1.0000
   1  -1  11 3052718   70687                                                     3175001    0.48    0.04  1.0000
   1   1  11 2807076   77961                                                     2921214    0.47   -0.06  1.0000
   1   1  11 2841220   73823                                                     2956043    0.47   -0.06  1.0000
  -1  -1 -11 2737352  143776                                                     2850934    0.47    0.06  1.0000
   1   1  11 3000377   87550                                                     3118342    0.47   -0.06  1.0000
   1  -1  11 3076879   86186                                                     3199641    0.48    0.04  1.0000
   1  -1  12 1938375   76537                                                     2306379    1.77   -0.11  1.0000
   1   1  12 1873694   67236                                                     2237620    1.77    0.10  1.0000
   1   1  12 1978636   54797                                                     2352169    1.77    0.10  1.0000
   1  -1  12 1985766   66461                                                     2358049    1.77   -0.11  1.0000
   1  -1  12 1995072   80871                                                     2368189    1.77   -0.11  1.0000
   1  -1  12 1817092   59752                                                     2173900    1.77   -0.11  1.0000
   1   1  12 1908764   76705                                                     2275930    1.77    0.10  1.0000
   1  -1  13  431771   31676                                                      443122    0.12    0.12  1.0000
   1   1  13  406546   30734                                                      417511    0.12   -0.14  1.0000
   1  -1  13  374009   33642                                                      384575    0.12    0.12  1.0000
   1   1  13  407949   34333                                                      418933    0.12   -0.14  1.0000
   1  -1  13  417856   36040                                                      429023    0.12    0.12  1.0000
   1   1  13  381676   23484                                                      392299    0.12   -0.14  1.0000
   1  -1  14  674770   37829                                                      688807   -0.12    0.22  1.0000
   1  -1  14  675018   43591                                                      689058   -0.12    0.22  1.0000
   1   1  14  653081   41518                                                      668966   -0.13   -0.22  1.0000
   1  -1  15  664863   34894                                                      635466    0.26   -0.06  1.0000
   1   1  15  669387   37806                                                      638921    0.26    0.06  1.0000
   1  -1  15  687391   39827                                                      657495    0.26   -0.06  1.0000
   1   1  16  141038   15172                                                      114070    0.53    0.00  1.0000
   1  -1  16  142354   16188                                                      115164    0.53    0.00  1.0000
   1  -1  16   97597   13639                                                       75331    0.53    0.00  1.0000
   1   1  17   16233    6254                                                       11374   -0.31    0.12  1.0000
   1  -1  17   14486    5837                                                        9543   -0.31   -0.11  1.0000
  -1  -2  18    1816    3660                                                        -649    0.60   -0.02  1.0000
  -1  -2  17     411    6626                                                       -7074   -0.28    0.03  1.0000
  -1  -2  17     411    7338                                                       -7652   -0.28    0.03  1.0000
  -1   2  16   61867   11955                                                       82443    0.54    0.01  1.0000
  -1  -2  16   58884   13827                                                       78990    0.54    0.01  1.0000
  -1  -2  16   32815   11557                                                       48195    0.54    0.01  1.0000
  -1  -2  15   66644   15607                                                       81494    0.39   -0.06  1.0000
  -1   2  15   58536   14027                                                       72980    0.39    0.06  1.0000
  -1  -2  15   43204   13154                                                       55296    0.39   -0.06  1.0000
  -1   2  14    1046    8582                                                        3311   -0.35   -0.11  1.0000
  -1  -2  14   14756   11865                                                       21844   -0.35    0.16  1.0000
  -1  -2  14    2251    9034                                                        5391   -0.35    0.16  1.0000
  -1   2  13  535352   40494                                                      661543   -1.15    0.09  1.0000
  -1  -2  13  543499   36675                                                      672999   -1.16   -0.07  1.0000
  -1  -2  13  603857   45651                                                      739984   -1.16   -0.07  1.0000
  -1  -2  12 1895965   71500                                                     1872223    0.12    0.09  1.0000
  -1  -2  12 1855631   57241                                                     1832143    0.12    0.09  1.0000
  -1   2  12 1830369   65409                                                     1808394    0.12   -0.12  1.0000
  -1   2  11  102023   13473                                                       13890    2.81    0.20  1.0000
   1  -2 -11   40629   21342                                                       -9514    2.81   -0.20  1.0000
  -1  -2  11  110600    9760                                                       20877    2.82   -0.22  1.0000
  -1  -2  11  122263   11617                                                       26436    2.82   -0.22  1.0000
   1  -2 -10    7891   12935                                                        1002    1.02   -0.29  1.0000
  -1   2  10   19649   15352                                                       19119    1.02    0.29  1.0000
   1  -2  -9 3931419  146459                                                     3241891   -2.54   -0.30  1.0000
  -1   2   9 3981244  119782                                                     3292981   -2.54    0.30  1.0000
  -1   2   8 4854773  138233                                                     5198493    1.08   -0.50  1.0000
   1  -2  -8 4776181  171050                                                     5124734    1.08    0.50  1.0000
  -1   2   7  138782   17682                                                       79591    1.27   -0.03  1.0000
  -1   2   6 9706103  151768                                                     9364475    0.77    0.45  1.0000
  -1   2   5 6663737  109474                                                     6002736    1.83    0.08  1.0000
  -1   2   4 4175929   94325                                                     5530990    4.30   -0.38  1.0000
  -1   2   3 7673663  121350                                                    10918901    7.47   -0.46  1.0000
  -1  -2   3 7414325   93695                                                    10616104    7.47    0.41  1.0000
  -1   2   212445921  144136                                                    16563350    7.57    0.15  1.0000
  -1  -2   212017262  108889                                                    16067454    7.58   -0.12  1.0000
  -1  -2   1 7816765  112546                                                     9082908    3.04    0.24  1.0000
   1  -2  -1 7747423  111222                                                     9010418    3.05    0.21  1.0000
  -1  -2   1 7769116   86383                                                     9031538    3.04    0.24  1.0000
   1  -2   0 1387683   67206                                                     5555950   16.48    0.57  1.0000
  -1  -2   0 1122530   95741                                                     5018705   16.50    0.45  1.0000
   1   2   1 1840656   17859                                                      443052   10.25    1.52  1.0000
  -1  -2  -1 1388055   31243                                                      469278   10.25   -1.52  1.0000
   1   2   2 4167854   36669                                                     1492197   11.48   -0.10  1.0000
  -1  -2  -2 4189650   59784                                                     1502836   11.48    0.10  1.0000
   1   2   3 8111979   99498                                                     8228246   -0.28   -0.07  1.0000
  -1  -2  -3 7880984  147557                                                     7995278   -0.28    0.07  1.0000
   1   2   4 3432179   84334                                                     4609538    4.11    0.20  1.0000
  -1  -2  -4 3200167  118825                                                     4336901    4.11   -0.20  1.0000
  -1  -2  -512920800  227287                                                    13568277    1.24    0.18  1.0000
   1   2   512981880  168963                                                    13626777    1.24   -0.18  1.0000
   1   2   6 1916041   68320                                                     1772144   -0.74    0.13  1.0000
  -1  -2  -6 1986481   90979                                                     1838623   -0.74   -0.13  1.0000
  -1  -2  -7 3452561  160804                                                     4970545   -5.19    0.17  1.0000
   1   2   7 3280444  123813                                                     4765307   -5.19   -0.17  1.0000
  -1  -2  -8 6840663  203493                                                     6997457   -0.42    0.23  1.0000
   1   2   8 6207186  156456                                                     6361143   -0.42   -0.23  1.0000
  -1  -2  -9   41457   18042                                                       17801    2.71   -0.08  1.0000
   1   2   9   34463    9452                                                        2261    2.71    0.08  1.0000
   1  -2  10  169570   29142                                                      359294    2.62   -0.03  1.0000
  -1  -2 -10  156688   51261                                                      340831    2.63   -0.06  1.0000
   1   2  10  114332   38922                                                      276921    2.63    0.06  1.0000
  -1  -2 -11 3073849  152053                                                     2778635   -1.21    0.10  1.0000
   1  -2  11 3168111   86899                                                     2867434   -1.21    0.04  1.0000
   1   2  11 2934306   77753                                                     2644676   -1.21   -0.10  1.0000
   1  -2  11 3082805   82902                                                     2786305   -1.21    0.04  1.0000
   1  -2  12 1284773   52593                                                     1032741   -1.64   -0.04  1.0000
   1   2  12 1233157   49709                                                      987286   -1.64    0.03  1.0000
   1  -2  12 1318020   54385                                                     1062570   -1.64   -0.04  1.0000
   1  -2  13   45026   14393                                                       48083    0.09    0.07  1.0000
   1  -2  13   55760   16098                                                       59160    0.09    0.07  1.0000
   1   2  13   64101   10723                                                       67346    0.09   -0.06  1.0000
   1  -2  13   52703   15569                                                       56009    0.09    0.07  1.0000
   1   2  13   33994   10966                                                       36361    0.09   -0.06  1.0000
   1  -2  14  123330   17520                                                       96354    0.58   -0.08  1.0000
   1  -2  14  128795   16901                                                      101193    0.58   -0.08  1.0000
   1   2  14  121247   14935                                                       94035    0.58    0.07  1.0000
   1  -2  15  228280   23619                                                      250929   -0.32   -0.07  1.0000
   1   2  15  222418   21619                                                      244534   -0.32    0.06  1.0000
   1  -2  15  225715   22012                                                      248240   -0.32   -0.07  1.0000
   1  -2  16   58846   12701                                                       77447   -0.50   -0.01  1.0000
   1   2  16   51071   10611                                                       68553   -0.50    0.03  1.0000
   1  -2  16   45699   11259                                                       62242   -0.50   -0.01  1.0000
   1  -2  17   22914    5576                                                       17165    0.28    0.01  1.0000
  -1  -3  17   94063   10071                                                       87181   -0.16   -0.04  1.0000
  -1  -3  16  111908   13467                                                       98902   -0.28   -0.04  1.0000
  -1  -3  16  141069   14636                                                      126417   -0.28   -0.04  1.0000
  -1  -3  16  119609   13589                                                      106149   -0.28   -0.04  1.0000
  -1  -3  15    3721    7720                                                        3545    0.04   -0.04  1.0000
  -1  -3  15      18   12466                                                      -12104    0.04   -0.04  1.0000
  -1  -3  14   15732   12144                                                       20053   -0.22    0.09  1.0000
  -1  -3  14     280    7898                                                       -1166   -0.22    0.09  1.0000
  -1  -3  13  286875   25939                                                      243978    0.58    0.00  1.0000
  -1  -3  13  276503   22593                                                      234420    0.58    0.00  1.0000
  -1  -3  12  454130   35422                                                      464891   -0.12    0.08  1.0000
   1  -3 -12  456899   25965                                                      466677   -0.10    0.04  1.0000
   1  -3 -11 3301338  175932                                                     3508229   -0.79    0.21  1.0000
  -1  -3  11 3204178   91754                                                     3408769   -0.79    0.26  1.0000
  -1  -3  11 3188308   92083                                                     3392399   -0.79    0.26  1.0000
   1  -3 -11 3225660   71202                                                     3430199   -0.79    0.21  1.0000
  -1   3  11 2955699  136383                                                     3153242   -0.79   -0.21  1.0000
  -1   3  10  934426   65786                                                      805909   -0.96    0.03  1.0000
  -1  -3  10  960532   43726                                                      828348   -0.98   -0.02  1.0000
   1  -3 -10 1031378   86996                                                      895893   -0.96   -0.03  1.0000
   1  -3  -9 3193691  156892                                                     3282990    0.34    0.09  1.0000
  -1   3   9 2945841  118455                                                     3030203    0.34   -0.09  1.0000
   1  -3  -8 1627604  103893                                                     1645315    0.10   -0.15  1.0000
  -1   3   8 1616897   79641                                                     1636515    0.10    0.15  1.0000
  -1   3   7  691453   50626                                                      773531   -0.67   -0.09  1.0000
   1  -3  -7  662954   65346                                                      743160   -0.67    0.09  1.0000
   1  -3  -6 3731688  133580                                                     3637757    0.34    0.17  1.0000
  -1   3   6 3764201  101348                                                     3672697    0.34   -0.17  1.0000
   1  -3  -5  556326   48572                                                      543436    0.13   -0.13  1.0000
  -1   3   5  541686   35410                                                      527093    0.13    0.13  1.0000
   1  -3  -4  416535   66068                                                     1177319   -6.14   -0.24  1.0000
  -1   3   4  372462   46735                                                     1101250   -6.14    0.24  1.0000
   1  -3  -310436511  155070                                                     8212246   -5.10   -0.15  1.0000
  -1   3   310056597  117859                                                     7877949   -5.10    0.15  1.0000
   1  -3  -211254882  158826                                                    10166408   -2.33    0.27  1.0000
  -1   3   211398193  134593                                                    10296507   -2.33   -0.27  1.0000
   1  -3  -111792595  147257                                                    11404897   -0.80   -0.03  1.0000
  -1  -3   111666516  147152                                                    11289698   -0.78   -0.11  1.0000
  -1   3   111764379  143676                                                    11377597   -0.80    0.03  1.0000
  -1  -3   0   82324    6329                                                        4465   -4.94   -0.09  1.0000
   1   3   0   86492    4880                                                        3536   -4.94    0.09  1.0000
   1  -3   0   61073    5174                                                       11730   -4.96   -0.06  1.0000
  -1  -3  -1 1017644   84081                                                     2635556   -8.60   -0.10  1.0000
   1   3   1  935951   53848                                                     2501127   -8.60    0.10  1.0000
   1  -3   1  935927   35854                                                     2518487   -8.67    0.06  1.0000
   1   3   2 7268756  104343                                                     9125827   -4.54   -0.09  1.0000
  -1  -3  -2 7229803  169799                                                     9080328   -4.54    0.09  1.0000
   1   3   3  321601   16084                                                      158724   -2.37   -0.17  1.0000
  -1  -3  -3  299920   23636                                                      143237   -2.37    0.17  1.0000
  -1  -3  -4  515687   56811                                                      761599    2.16    0.05  1.0000
   1   3   4  528232   38086                                                      776089    2.16   -0.05  1.0000
  -1  -3  -5 4486258  146127                                                     4577749    0.29    0.18  1.0000
   1   3   5 4352636  100127                                                     4439100    0.29   -0.18  1.0000
  -1  -3  -6 1792542   98792                                                     1801904    0.05   -0.07  1.0000
   1   3   6 1818586   72379                                                     1828614    0.05    0.07  1.0000
   1   3   7  837332   47028                                                      623532    1.75    0.18  1.0000
  -1  -3  -7 1016080   70558                                                      780695    1.75   -0.18  1.0000
  -1  -3  -8 4208283  167278                                                     4005554    0.71   -0.26  1.0000
   1   3   8 3861094  124491                                                     3662387    0.71    0.26  1.0000
   1   3   9 2776586  118847                                                     3059102   -1.16    0.12  1.0000
  -1  -3  -9 3281000  167628                                                     3589028   -1.16   -0.12  1.0000
  -1  -3 -10 3178894  158162                                                     2893764   -1.14    0.01  1.0000
   1  -3  10 2937994   79893                                                     2665016   -1.14    0.06  1.0000
   1  -3  10 3018435   81290                                                     2741655   -1.14    0.06  1.0000
  -1  -3 -10 3061999   69357                                                     2782285   -1.14    0.01  1.0000
   1  -3  11 1157796   56461                                                     1233919    0.49    0.04  1.0000
  -1  -3 -11 1207545   45723                                                     1284538    0.48    0.04  1.0000
   1  -3  11 1150115   56333                                                     1225989    0.49    0.04  1.0000
   1  -3  12  682042   45687                                                      776041    0.77    0.08  1.0000
   1  -3  12  668316   44866                                                      761394    0.77    0.08  1.0000
   1  -3  13   14722   10335                                                       15669    0.05    0.07  1.0000
   1  -3  13   31594   14013                                                       32984    0.05    0.07  1.0000
   1  -3  13    8703   10167                                                        9429    0.05    0.07  1.0000
   1  -3  14    6828   10213                                                        8225   -0.36   -0.07  1.0000
   1  -3  14     590    8069                                                          35   -0.36   -0.07  1.0000
   1  -3  15  156617   16844                                                      163892   -0.13   -0.01  1.0000
   1  -3  15  151503   16557                                                      158660   -0.13   -0.01  1.0000
   1  -3  16  275322   17364                                                      259528    0.21   -0.01  1.0000
   1  -3  16  281681   17449                                                      265704    0.21   -0.01  1.0000
  -1  -4  16  121972   11295                                                      118464   -0.07    0.04  1.0000
  -1  -4  15  287000   21622                                                      314329    0.34    0.09  1.0000
  -1  -4  15  302481   20884                                                      330522    0.34    0.09  1.0000
  -1  -4  14   21885   10002                                                       22557   -0.02   -0.13  1.0000
   1  -4 -14    9474    4756                                                        9979   -0.03   -0.13  1.0000
  -1  -4  14    4826    6846                                                        5096   -0.02   -0.13  1.0000
   1  -4 -13  726155   31742                                                      783767   -0.46    0.00  1.0000
  -1  -4  13  729497   35921                                                      788944   -0.48    0.00  1.0000
   1  -4 -12 1682258   51750                                                     1791714   -0.58   -0.08  1.0000
   1  -4 -11  101206   17139                                                      153105    1.02   -0.06  1.0000
   1  -4 -10     739    5819                                                        3534    0.46    0.02  1.0000
  -1   4  10    1090   14138                                                      -24770    0.46   -0.02  1.0000
  -1   4   9  645171   55159                                                      607023   -0.33   -0.10  1.0000
   1  -4  -9  653730   32366                                                      616646   -0.33    0.10  1.0000
   1  -4  -9  595506   68980                                                      560134   -0.33    0.10  1.0000
   1  -4  -8  718650   68462                                                      619192   -0.85   -0.06  1.0000
  -1   4   8  713692   51263                                                      615224   -0.85    0.06  1.0000
   1  -4  -7   26243   17542                                                       35472    0.37    0.05  1.0000
  -1   4   7    9419    9878                                                       15263    0.37   -0.05  1.0000
  -1   4   6 1077964   58003                                                     1058260    0.14   -0.20  1.0000
   1  -4  -6 1149259   82639                                                     1126160    0.14    0.20  1.0000
  -1   4   5 4297100  102888                                                     3829335    1.61    0.37  1.0000
   1  -4  -5 4262244  140214                                                     3802905    1.61   -0.37  1.0000
  -1   4   4   76722   22313                                                      192414    2.26   -0.04  1.0000
   1  -4  -4   92498   30521                                                      216796    2.26    0.04  1.0000
  -1   4   3 2254408   81230                                                     2782645    2.33   -0.19  1.0000
   1  -4  -3 2287981  102380                                                     2822225    2.33    0.19  1.0000
  -1   4   212249203  175284                                                    12742085    0.97    0.13  1.0000
   1  -4  -212540690  200617                                                    13036482    0.97   -0.13  1.0000
  -1  -4   1 6978971  134597                                                     7178615    0.52    0.27  1.0000
   1  -4  -1 6948221  131133                                                     7178356    0.60    0.07  1.0000
  -1   4   1 7149479  137377                                                     7381973    0.60   -0.07  1.0000
   1   4   0    2562    5749                                                       14275    0.98    0.01  1.0000
  -1  -4   0    4436    8906                                                       18435    0.98   -0.01  1.0000
  -1  -4  -1 4484822  115071                                                     3813196    2.30    0.19  1.0000
   1   4   1 4546923   80814                                                     3874445    2.30   -0.19  1.0000
   1   4   2 1591373   42130                                                     1065530    3.19    0.40  1.0000
  -1  -4  -2 1420620   60750                                                      933500    3.19   -0.40  1.0000
   1   4   3  316261   21679                                                      246514    0.92   -0.04  1.0000
  -1  -4  -3  334534   35185                                                      262584    0.92    0.04  1.0000
   1   4   4 4370155   97696                                                     4289251   -0.27   -0.28  1.0000
  -1  -4  -4 4249046  147522                                                     4173573   -0.27    0.28  1.0000
  -1  -4  -5 2226374  104978                                                     1880523   -1.68   -0.24  1.0000
   1   4   5 2283404   71334                                                     1937413   -1.68    0.24  1.0000
  -1  -4  -6   38343   18505                                                       16382   -1.42    0.05  1.0000
   1   4   6   28337    7428                                                        7167   -1.42   -0.05  1.0000
  -1  -4  -7  833127   88676                                                     1053641   -1.59    0.00  1.0000
  -1  -4  -8 1345612  101326                                                     1252599    0.57    0.01  1.0000
   1  -4   8 1305322   45113                                                     1215299    0.56    0.00  1.0000
  -1  -4  -8 1394910   48357                                                     1300178    0.57    0.01  1.0000
   1  -4   9   35700    8352                                                        7781    1.48    0.09  1.0000
   1  -4   9   43890    7977                                                       11960    1.48    0.09  1.0000
  -1  -4  -9   30164   13433                                                        5253    1.49    0.07  1.0000
  -1  -4  -9   43363    7620                                                       11738    1.49    0.07  1.0000
  -1  -4 -10  383941   26901                                                      390749   -0.08    0.03  1.0000
   1  -4  10  394444   31834                                                      401162   -0.07    0.01  1.0000
   1  -4  11 1462776   56740                                                     1314548   -0.88    0.05  1.0000
  -1  -4 -11 1512649   48386                                                     1361358   -0.88    0.04  1.0000
   1  -4  12 1343520   56637                                                     1326928   -0.10   -0.03  1.0000
  -1  -4 -12 1377993   45325                                                     1361258   -0.10   -0.04  1.0000
  -1  -4 -13  189159   16266                                                      213202    0.38   -0.12  1.0000
   1  -4  13  247466   22169                                                      274477    0.37   -0.12  1.0000
   1  -4  14  250468   20046                                                      256741   -0.09   -0.01  1.0000
   1  -4  15  293995   18510                                                      294961   -0.01   -0.03  1.0000
   1  -4  15  261514   16905                                                      262425   -0.01   -0.03  1.0000
   1  -4  16     132    5936                                                       -6997    0.16    0.03  1.0000
  -1  -5  15  172287   10232                                                      147611   -0.43    0.02  1.0000
   1  -5 -14   13527    4034                                                        6506    0.50   -0.01  1.0000
  -1  -5  14    7441    7186                                                        2534    0.50    0.00  1.0000
  -1  -5  14   21423    5456                                                       12199    0.50    0.00  1.0000
  -1  -5  13  357103   22379                                                      323362    0.40    0.02  1.0000
  -1  -5  13  329791   20218                                                      297398    0.40    0.02  1.0000
   1  -5 -13  403053   20797                                                      367254    0.40    0.04  1.0000
  -1  -5  12  525092   27185                                                      510731    0.14    0.09  1.0000
   1  -5 -12  487599   26438                                                      472799    0.15    0.06  1.0000
  -1  -5  12  478128   29527                                                      464428    0.14    0.09  1.0000
   1  -5 -11  164979   17454                                                      175629   -0.17   -0.11  1.0000
   1  -5 -10  334929   23775                                                      309792   -0.31   -0.01  1.0000
   1  -5  -9  650061   34415                                                      664347    0.13   -0.07  1.0000
   1  -5  -8  188057   48275                                                      227154    0.60    0.01  1.0000
   1  -5  -8  155457   18827                                                      191170    0.60    0.01  1.0000
   1  -5  -7   27929   20037                                                       32996    0.20   -0.03  1.0000
   1  -5  -7   58154   12026                                                       65373    0.20   -0.03  1.0000
  -1   5   7   44833   16299                                                       51175    0.20    0.03  1.0000
   1  -5  -6  495024   29379                                                      512701   -0.18    0.03  1.0000
  -1   5   6  434861   42348                                                      451795   -0.18   -0.03  1.0000
   1  -5  -6  382075   55277                                                      397623   -0.18    0.03  1.0000
   1  -5  -5 1392423   97938                                                     1511586   -0.70    0.19  1.0000
  -1   5   5 1341362   71847                                                     1461137   -0.70   -0.19  1.0000
  -1   5   4  546025   48475                                                      714845   -1.49    0.01  1.0000
   1  -5  -4  553957   61934                                                      723976   -1.49   -0.01  1.0000
  -1   5   3 2201276   81505                                                     2106671   -0.45    0.05  1.0000
  -1   5   2 8362033  162577                                                     8293555   -0.17    0.14  1.0000
  -1   5   1 2197707   87865                                                     2260330    0.30   -0.14  1.0000
  -1   5   0   21457   10314                                                       17975   -0.23   -0.35  1.0000
  -1  -5  -1 3958788  128496                                                     4058083   -0.35   -0.04  1.0000
  -1  -5  -2 2582934  112089                                                     2723625   -0.60    0.00  1.0000
  -1  -5  -3  204786   33395                                                      194489   -0.16   -0.04  1.0000
  -1  -5  -4 1644328  100598                                                     1607246   -0.20    0.03  1.0000
  -1  -5  -5  978322   88988                                                     1160160    1.22    0.15  1.0000
   1  -5   6    1063    7027                                                       17149    1.79    0.00  1.0000
   1  -5   6    1545    8255                                                       21575    1.79    0.00  1.0000
  -1  -5  -6    1736    6827                                                        9919    1.79    0.04  1.0000
  -1  -5  -6    4791   18611                                                       33859    1.79    0.04  1.0000
   1  -5   7  102392   13210                                                       74743    0.66   -0.03  1.0000
  -1  -5  -7   88781   12160                                                       63172    0.65    0.02  1.0000
  -1  -5  -7  101181   28890                                                       73695    0.65    0.02  1.0000
   1  -5   8  685367   36122                                                      722446   -0.32    0.13  1.0000
  -1  -5  -8  663933   36955                                                      700977   -0.32    0.13  1.0000
   1  -5   9  724031   38613                                                      789797   -0.53   -0.03  1.0000
  -1  -5  -9  787066   40070                                                      856195   -0.53   -0.01  1.0000
   1  -5  10   50617   13035                                                       51946    0.04    0.01  1.0000
  -1  -5 -10   28231    9428                                                       29259    0.04   -0.01  1.0000
  -1  -5 -11  575823   32058                                                      618675    0.39    0.04  1.0000
  -1  -5 -12  775408   32335                                                      773031   -0.02    0.01  1.0000
   1  -5  13  226597   17685                                                      221094   -0.09    0.11  1.0000
  -1  -5 -13  230089   15360                                                      224776   -0.08    0.11  1.0000
  -1  -5 -14  114083    8669                                                      120333   -0.13    0.09  1.0000
   1  -5  14  149370   13263                                                      156401   -0.13    0.09  1.0000
   1  -5  15  175655   10343                                                      160344    0.26   -0.03  1.0000
  -1  -6  14   17656    4529                                                       15519   -0.12   -0.03  1.0000
   1  -6 -13  118952   11572                                                      146367   -0.53    0.12  1.0000
  -1  -6  13  102633   13047                                                      128622   -0.54    0.10  1.0000
   1  -6 -12  258904   17521                                                      272557   -0.18   -0.05  1.0000
   1  -6 -11  234799   17862                                                      221460    0.19    0.03  1.0000
   1  -6 -10  142090   16368                                                      158186    0.29   -0.05  1.0000
   1  -6  -9  703988   34472                                                      711377    0.06    0.06  1.0000
   1  -6  -8  881239   36859                                                      792792   -0.68   -0.03  1.0000
   1  -6  -7  184787   20810                                                      221150   -0.56    0.05  1.0000
   1  -6  -7  196095   20816                                                      233505   -0.56    0.05  1.0000
   1  -6  -6  678950   37486                                                      698529   -0.16   -0.10  1.0000
   1  -6  -6  738736   36392                                                      759154   -0.16   -0.10  1.0000
   1  -6  -5  419544   27849                                                      388411    0.34   -0.02  1.0000
  -1  -6   5  479683   27382                                                      446922    0.34    0.00  1.0000
  -1  -6   5  385937   27301                                                      356610    0.34    0.00  1.0000
   1  -6  -5  424194   25935                                                      392885    0.34   -0.02  1.0000
   1  -6  -4   80261   12823                                                       62151    0.48   -0.04  1.0000
  -1  -6   4   82315   10274                                                       64721    0.45    0.02  1.0000
  -1  -6   4   69252   11982                                                       53202    0.45    0.02  1.0000
   1  -6  -4   76136   11048                                                       58526    0.48   -0.04  1.0000
   1  -6  -3  576627   32525                                                      592176    0.14    0.06  1.0000
  -1  -6   3  596077   28837                                                      612533    0.15    0.01  1.0000
  -1  -6   3  596920   29068                                                      613388    0.15    0.01  1.0000
  -1  -6   3  554361   31031                                                      570235    0.15    0.01  1.0000
   1  -6  -3  583125   30209                                                      598761    0.14    0.06  1.0000
  -1   6   2 1335956   68878                                                     1202739   -0.83   -0.01  1.0000
  -1  -6   2 1225310   39154                                                     1097370   -0.83    0.02  1.0000
  -1  -6   2 1200344   41021                                                     1073750   -0.83    0.02  1.0000
   1  -6  -2 1241228   43391                                                     1113120   -0.83    0.01  1.0000
  -1  -6   2 1252595   38423                                                     1123200   -0.83    0.02  1.0000
   1  -6  -1 3162381   68966                                                     2970393   -0.76   -0.15  1.0000
  -1   6   1 3279595  112121                                                     3085642   -0.76    0.15  1.0000
  -1  -6   1 3247496   66661                                                     3052352   -0.77   -0.11  1.0000
   1  -6  -1 3275165   70862                                                     3079732   -0.76   -0.15  1.0000
  -1  -6   1 3085080   61318                                                     2894954   -0.77   -0.11  1.0000
  -1  -6   1 3159556   65893                                                     2967113   -0.77   -0.11  1.0000
  -1  -6   0 1524633   50237                                                     1630905   -0.59   -0.24  1.0000
  -1  -6   0 1462017   47337                                                     1566116   -0.59   -0.24  1.0000
  -1   6   0 1488524   83111                                                     1595736   -0.61    0.18  1.0000
   1  -6   0 1594592   51989                                                     1706545   -0.61   -0.18  1.0000
   1  -6   1 1617041   50909                                                     1699385   -0.44   -0.10  1.0000
  -1   6  -1 1519748   85048                                                     1598086   -0.44    0.10  1.0000
   1  -6   1 1558547   49123                                                     1639405   -0.44   -0.10  1.0000
  -1   6  -2 1377737   81773                                                     1414697   -0.22   -0.05  1.0000
   1  -6   2 1451055   46825                                                     1488357   -0.22    0.05  1.0000
   1  -6   2 1464988   47073                                                     1502466   -0.22    0.05  1.0000
   1  -6   3   35359    7200                                                       42968   -0.27    0.02  1.0000
   1  -6   3   39773    9591                                                       47821   -0.27    0.02  1.0000
   1  -6   3   43333    9744                                                       51717   -0.27    0.02  1.0000
  -1  -6  -3   45117   10507                                                       53762   -0.27    0.03  1.0000
   1  -6   3   55349   10873                                                       64777   -0.27    0.02  1.0000
   1  -6   4  101543   11517                                                       80730   -0.49    0.02  1.0000
   1  -6   4   90596   11513                                                       71002   -0.49    0.02  1.0000
  -1  -6  -4  111629   13853                                                       89668   -0.49    0.01  1.0000
   1  -6   4   99028    9463                                                       78489   -0.49    0.02  1.0000
   1  -6   5  522620   20043                                                      435216   -0.87   -0.17  1.0000
   1  -6   5  545309   26319                                                      455944   -0.87   -0.17  1.0000
   1  -6   5  517079   25667                                                      430160   -0.87   -0.17  1.0000
  -1  -6  -5  534146   28813                                                      445193   -0.88   -0.18  1.0000
   1  -6   6  473837   18016                                                      371123   -1.11   -0.04  1.0000
   1  -6   6  473639   25056                                                      370948   -1.11   -0.04  1.0000
  -1  -6  -6  458397   26176                                                      356499   -1.12   -0.04  1.0000
  -1  -6  -7  495417   33092                                                      572455   -0.73   -0.25  1.0000
   1  -6   7  518895   32654                                                      599236   -0.74   -0.23  1.0000
   1  -6   8  870824   38358                                                      831408    0.30   -0.01  1.0000
  -1  -6  -8  862346   38096                                                      823319    0.30   -0.02  1.0000
  -1  -6  -9  411477   25915                                                      399485    0.13   -0.02  1.0000
  -1  -6 -10  142699   15826                                                      141598   -0.02    0.02  1.0000
  -1  -6 -11  393001   21983                                                      373473   -0.22    0.06  1.0000
  -1  -6 -12  323188   18800                                                      341496    0.23   -0.07  1.0000
   1  -6  12  331685   18916                                                      350878    0.23   -0.06  1.0000
   1  -6  13   13428    5828                                                       10919    0.17   -0.18  1.0000
   1  -6  13   12841    4023                                                       10386    0.17   -0.18  1.0000
  -1  -6 -13   10206    3669                                                        8050    0.17   -0.20  1.0000
   1  -7 -12  204658   11370                                                      189261    0.24    0.03  1.0000
  -1  -7  12  167502   11188                                                      153591    0.24    0.02  1.0000
   1  -7 -11   77559    9135                                                       83096   -0.13   -0.06  1.0000
  -1  -7  11   62622   10339                                                       67553   -0.13   -0.07  1.0000
  -1  -7  10     178    7611                                                       -7264   -0.19    0.00  1.0000
   1  -7 -10    2068    4890                                                        1132   -0.19   -0.01  1.0000
   1  -7  -9  497635   25358                                                      503093    0.05    0.11  1.0000
  -1  -7   9  392729   28409                                                      397085    0.04    0.12  1.0000
  -1  -7   8  221802   23638                                                      249194    0.39    0.01  1.0000
   1  -7  -8  244478   19573                                                      272733    0.39    0.00  1.0000
   1  -7  -7   25779    9004                                                       40802    0.58    0.13  1.0000
  -1  -7   7   29692   11936                                                       45767    0.58    0.13  1.0000
  -1  -7   6  920922   41128                                                      864412    0.42   -0.10  1.0000
   1  -7  -6  914918   36592                                                      859598    0.41   -0.05  1.0000
   1  -7  -6  993548   38284                                                      935865    0.41   -0.05  1.0000
   1  -7  -5 1067304   43424                                                     1127980   -0.40   -0.09  1.0000
   1  -7  -5 1015855   40844                                                     1075070   -0.40   -0.09  1.0000
  -1  -7   5 1017454   44039                                                     1075430   -0.39   -0.11  1.0000
  -1  -7   5 1077236   30948                                                     1136870   -0.39   -0.11  1.0000
   1  -7  -4   23383    8080                                                       19215   -0.22   -0.12  1.0000
  -1  -7   4    9472    6651                                                        6814   -0.21   -0.03  1.0000
  -1  -7   4   12541    7980                                                        9451   -0.21   -0.03  1.0000
   1  -7  -4     328    6843                                                       -4456   -0.22   -0.12  1.0000
  -1  -7   4    5047    4643                                                        3162   -0.21   -0.03  1.0000
  -1  -7   3  546125   30122                                                      581958    0.33    0.10  1.0000
   1  -7  -3  524144   27901                                                      558858    0.33    0.10  1.0000
   1  -7  -3  539503   33205                                                      574715    0.33    0.10  1.0000
  -1  -7   3  590043   30464                                                      627268    0.33    0.10  1.0000
  -1  -7   2  676264   32482                                                      777635    0.83    0.11  1.0000
  -1  -7   2  678085   32703                                                      779587    0.83    0.11  1.0000
  -1  -7   2  636039   33253                                                      734454    0.83    0.11  1.0000
   1  -7  -2  620615   35778                                                      717212    0.82    0.08  1.0000
  -1  -7   1  360796   20232                                                      286067    0.93    0.13  1.0000
   1  -7  -1  347074   21240                                                      274116    0.92    0.12  1.0000
  -1  -7   1  366188   19668                                                      290872    0.93    0.13  1.0000
   1  -7  -1  376428   22417                                                      300274    0.92    0.12  1.0000
  -1  -7   0   84080   11646                                                      108653    0.56    0.09  1.0000
   1  -7   0   92328   14003                                                      118828    0.57    0.10  1.0000
  -1  -7   0   90722   13582                                                      116188    0.56    0.09  1.0000
   1  -7   0   87408   13642                                                      113236    0.57    0.10  1.0000
   1  -7   1  982443   31894                                                      884648    0.71   -0.01  1.0000
  -1  -7  -1  992116   37808                                                      896321    0.69    0.05  1.0000
   1  -7   1  988084   36989                                                      890001    0.71   -0.01  1.0000
   1  -7   1 1064002   37689                                                      962124    0.71   -0.01  1.0000
   1  -7   2 1769735   50408                                                     1711725    0.31   -0.01  1.0000
  -1  -7  -2 1594327   51473                                                     1540516    0.30    0.00  1.0000
   1  -7   2 1655232   42239                                                     1599146    0.31   -0.01  1.0000
   1  -7   2 1605109   47663                                                     1549886    0.31   -0.01  1.0000
   1  -7   3  774471   27687                                                      740227    0.28   -0.04  1.0000
  -1  -7  -3  734702   34253                                                      701680    0.27   -0.04  1.0000
  -1  -7  -3  764245   37487                                                      730557    0.27   -0.04  1.0000
   1  -7   3  811309   33806                                                      776252    0.28   -0.04  1.0000
   1  -7   4  212509   19949                                                      246405    0.50   -0.16  1.0000
  -1  -7  -4  195534   20223                                                      228467    0.51   -0.18  1.0000
   1  -7   4  202870   18378                                                      236013    0.50   -0.16  1.0000
   1  -7   4  199431   15166                                                      232301    0.50   -0.16  1.0000
   1  -7   5  946504   38236                                                     1053821    0.76   -0.34  1.0000
   1  -7   5 1034203   31636                                                     1146280    0.76   -0.34  1.0000
  -1  -7  -5  903533   41551                                                     1008561    0.76   -0.30  1.0000
  -1  -7  -6    4125    7683                                                       13702    1.07    1.08  1.0000
   1  -7   6    5147    7676                                                       17438    1.07    1.08  1.0000
   1  -7   6    3656    4946                                                       10979    1.07    1.08  1.0000
   1  -7   6    3552    5912                                                        6720    1.07    1.08  1.0000
  -1  -7  -7  186399   16805                                                      173714    0.23   -0.25  1.0000
   1  -7   7  195242   16702                                                      182628    0.22   -0.23  1.0000
   1  -7   7  138462   15335                                                      127826    0.22   -0.23  1.0000
  -1  -7  -8  768688   32828                                                      775003   -0.05   -0.10  1.0000
   1  -7   8  537997   28932                                                      543100   -0.04   -0.08  1.0000
  -1  -7  -9   49505    8973                                                       49475    0.00    0.02  1.0000
   1  -7   9   60001    9692                                                       59956    0.00    0.05  1.0000
  -1  -7 -10   45021    7738                                                       38773   -0.21   -0.09  1.0000
   1  -7  10   28916    6502                                                       23874   -0.22   -0.11  1.0000
  -1  -7 -11  201078   13306                                                      222006    0.32    0.06  1.0000
  -1  -7 -12   51061    5001                                                       42562   -0.29    0.10  1.0000
   1  -8 -10     255    3451                                                       -1306   -0.22    0.01  1.0000
   1  -8  -9  141574   10577                                                      143592    0.04   -0.05  1.0000
   1  -8  -9  125664   12297                                                      127565    0.04   -0.05  1.0000
  -1  -8   9  119067   10556                                                      121094    0.04   -0.04  1.0000
  -1  -8   8  175454   14191                                                      165072   -0.18   -0.02  1.0000
   1  -8  -8  213372   10051                                                      201911   -0.17   -0.03  1.0000
   1  -8  -8  187134   16716                                                      176411   -0.17   -0.03  1.0000
  -1  -8   7    6230    6076                                                        9918   -0.29   -0.01  1.0000
   1  -8  -7     601    3558                                                        2072   -0.29   -0.02  1.0000
   1  -8  -7   13371    8423                                                       18673   -0.29   -0.02  1.0000
   1  -8  -7    7325    4802                                                       11363   -0.29   -0.02  1.0000
  -1  -8   6  179654   16423                                                      184247   -0.07   -0.02  1.0000
   1  -8  -6  208755   15795                                                      212980   -0.06   -0.02  1.0000
   1  -8  -6  193571   20074                                                      197640   -0.06   -0.02  1.0000
   1  -8  -5  304590   24530                                                      310811   -0.08    0.12  1.0000
   1  -8  -5  288455   18001                                                      294508   -0.08    0.12  1.0000
   1  -8  -5  335442   19388                                                      341974   -0.08    0.12  1.0000
  -1  -8   4    5941    3179                                                        3669    0.23    0.01  1.0000
   1  -8  -4     290    6166                                                       -1910    0.24    0.02  1.0000
   1  -8  -4     290    3933                                                        -445    0.24    0.02  1.0000
  -1  -8   3   81821    8889                                                       89859    0.18    0.15  1.0000
   1  -8  -3   65284   10186                                                       71825    0.16    0.17  1.0000
   1  -8  -3   76445   12507                                                       83521    0.16    0.17  1.0000
  -1  -8   2  216100   13265                                                      185357   -0.47   -0.23  1.0000
   1  -8  -2  273828   19137                                                      240925   -0.44   -0.21  1.0000
   1  -8  -2  241924   17098                                                      211049   -0.44   -0.21  1.0000
   1  -8  -2  230737   15054                                                      200605   -0.44   -0.21  1.0000
   1  -8  -1  284655   18935                                                      254246   -0.40   -0.20  1.0000
  -1  -8   1  299792   18185                                                      268312   -0.41   -0.19  1.0000
   1  -8  -1  256392   15870                                                      227566   -0.40   -0.20  1.0000
   1  -8  -1  266418   18203                                                      237021   -0.40   -0.20  1.0000
   1  -8   0  316105   19484                                                      363395   -0.57   -0.02  1.0000
   1  -8   0  326033   22251                                                      374034   -0.57   -0.02  1.0000
  -1  -8   0  329933   21512                                                      378183   -0.57   -0.06  1.0000
   1  -8   0  340329   22678                                                      389335   -0.57   -0.02  1.0000
  -1  -8   0  340927   20410                                                      389947   -0.57   -0.06  1.0000
   1  -8   1  613833   28374                                                      623252   -0.09    0.23  1.0000
  -1  -8  -1  608343   28013                                                      618734   -0.10    0.21  1.0000
   1  -8   1  635727   24825                                                      645317   -0.09    0.23  1.0000
   1  -8   2  466003   24915                                                      472563   -0.06   -0.20  1.0000
   1  -8   2  427934   19469                                                      434213   -0.06   -0.20  1.0000
  -1  -8  -2  426343   24321                                                      430919   -0.04   -0.19  1.0000
   1  -8   3  161973   15808                                                      169283   -0.13    0.03  1.0000
   1  -8   3  140218   11049                                                      147025   -0.13    0.03  1.0000
  -1  -8  -3  137233   15347                                                      143790   -0.12    0.03  1.0000
  -1  -8  -4   78814    9340                                                       63127   -0.42    0.03  1.0000
  -1  -8  -4   95350   12453                                                       78011   -0.42    0.03  1.0000
   1  -8   4  108407    8719                                                       89652   -0.42    0.03  1.0000
   1  -8   5  208663   11738                                                      198049   -0.17    0.00  1.0000
  -1  -8  -5  209291   15728                                                      198783   -0.16    0.00  1.0000
  -1  -8  -5  172558   16880                                                      163030   -0.16    0.00  1.0000
  -1  -8  -6   66227    8594                                                       50891   -0.44   -0.12  1.0000
  -1  -8  -6   62547    9622                                                       47670   -0.44   -0.12  1.0000
  -1  -8  -7  123623   13703                                                      131395   -0.15   -0.10  1.0000
  -1  -8  -7  160002   13536                                                      168834   -0.15   -0.10  1.0000
  -1  -8  -8  214308   13925                                                      220636   -0.09   -0.01  1.0000
  -1  -8  -8  171810   13741                                                      177481   -0.09   -0.01  1.0000
  -1  -8  -9   14246    3960                                                       15578   -0.08    0.02  1.0000
  -1  -8  -9   10300    4044                                                       11436   -0.08    0.02  1.0000
   1  -9  -6    5476    2118                                                        3942    0.17   -0.05  1.0000
   1  -9  -6   13156    4055                                                       10732    0.17   -0.05  1.0000
   1  -9  -5   20318    5095                                                       16514    0.22   -0.08  1.0000
   1  -9  -5   19879    3552                                                       16119    0.22   -0.08  1.0000
   1  -9  -4  156951   10527                                                      181265   -0.41    0.02  1.0000
   1  -9  -4  185700   14542                                                      212072   -0.41    0.02  1.0000
   1  -9  -3  122513    8944                                                      106247   -0.34   -0.01  1.0000
  -1  -9   3  143293    7383                                                      126011   -0.33   -0.02  1.0000
  -1  -9   2  376309   13853                                                      374816   -0.02    0.04  1.0000
   1  -9  -2  371156   16184                                                      369273   -0.02    0.05  1.0000
   1  -9  -1  254334   14026                                                      277224    0.31    0.00  1.0000
  -1  -9   1  251016   13203                                                      273804    0.31    0.00  1.0000
   1  -9   0  103393    8584                                                       96660    0.15    0.03  1.0000
  -1  -9   0   86030    8225                                                       79948    0.15    0.04  1.0000
   1  -9   1  379871   15156                                                      387330   -0.09    0.10  1.0000
  -1  -9  -1  359841   17483                                                      366342   -0.08    0.06  1.0000
  -1  -9  -2  295924   16365                                                      309740   -0.18    0.08  1.0000
   1  -9   2  336394   13686                                                      350555   -0.17    0.07  1.0000
  -1  -9  -3   72903    8277                                                       69307   -0.09    0.07  1.0000
   1  -9   3  119143    7615                                                      114615   -0.09    0.07  1.0000
  -1  -9  -4   25264    5568                                                       29570    0.18   -0.02  1.0000
  -1  -9  -5   15576    4710                                                       22998    0.38    0.02  1.0000
  -1  -9  -6   12733    2401                                                        3635   -0.75    0.06  1.0000
  -2   0  18  184843   12078                                                      172710   -0.20    0.00  1.0000
  -2   0  17  257141   21836                                                      257810    0.01    0.01  1.0000
  -2   0  17  244774   18661                                                      245426    0.01    0.01  1.0000
  -2   0  16    4593    8762                                                        4596    0.00    0.01  1.0000
  -2   0  15  114194   20305                                                      138777   -0.48   -0.03  1.0000
  -2   0  14 1218073   55771                                                     1114420    0.67    0.01  1.0000
  -2   0  14 1178080   48997                                                     1076180    0.67    0.01  1.0000
  -2   0  13  132337   22790                                                      153999   -0.40   -0.01  1.0000
  -2   0  13  124085   19830                                                      145087   -0.40   -0.01  1.0000
  -2   0  12  367621   26458                                                      255110   -1.42    0.01  1.0000
  -2   0  12  363321   23415                                                      251530   -1.42    0.01  1.0000
  -2   0  11 2389584  116155                                                     2429348    0.18    0.01  1.0000
  -2   0  10   35045   28068                                                      148452    2.78   -0.01  1.0000
  -2   0   9 1139576   63063                                                      980606    1.08    0.01  1.0000
  -2   0   812013599  191981                                                    10998800    2.09   -0.02  1.0000
  -2   0   7 3117103   76235                                                     2104861    4.40   -0.03  1.0000
  -2   0   7 3055488   29690                                                     2054281    4.40   -0.03  1.0000
  -2   0   6 2841916   52507                                                     1228919    8.07    0.01  1.0000
  -2   0   5 1285384   51198                                                     1503226   -1.29   -0.03  1.0000
  -2   0   4 8176885   27551                                                      567335  -29.55   -0.05  1.0000
  -2   0   314913560  160926                                                    28404342   20.51   -0.02  1.0000
  -2   0   212323723  121489                                                    24647576   20.32    0.03  1.0000
  -2   0   148090908   95212                                                    17765740   38.02   -0.04  1.0000
  -2   0   0  105036   60654                                                     3461699  -30.42    0.10  1.0000
  -2   0  -114316787   61332                                                     3278610  -27.57   -0.01  1.0000
  -2   0  -114545289   63728                                                     3388430  -27.57   -0.01  1.0000
  -2   0  -232047556  333634                                                    81859656   47.33   -0.08  1.0000
  -2   0  -232351212  334318                                                    82344552   47.33   -0.08  1.0000
  -2   0  -3 4018913   53715                                                     1583366  -10.44    0.00  1.0000
  -2   0  -4  552732   36194                                                      586276    0.29    0.17  1.0000
  -2   0  -5  268476   27915                                                      258962   -0.13    0.07  1.0000
  -2   0  -6 6013920  117824                                                     4349561    5.13   -0.04  1.0000
  -2   0  -7 1705422   68657                                                     1228849    2.76   -0.01  1.0000
  -2   0  -8  332993   60084                                                      808067   -4.50   -0.01  1.0000
   2   0   9 2891347   47913                                                     2070211   -3.66    0.02  1.0000
  -2   0  -9 2865238  102552                                                     2047812   -3.66   -0.02  1.0000
   2   0  10 3362892   66890                                                     3567978    0.77   -0.02  1.0000
   2   0  11  946359   59827                                                     1349928    2.64    0.01  1.0000
   2   0  11  952766   56114                                                     1357578    2.64    0.01  1.0000
   2   0  11  914369   48136                                                     1311668    2.64    0.01  1.0000
   2   0  11  888959   41785                                                     1281198    2.64    0.01  1.0000
   2   0  12  522129   29727                                                      541900   -0.19    0.00  1.0000
   2   0  12  606065   40021                                                      627352   -0.19    0.00  1.0000
   2   0  12  606749   35283                                                      628048   -0.19    0.00  1.0000
   2   0  13  524689   32906                                                      634862   -1.01   -0.01  1.0000
   2   0  13  612077   44952                                                      730652   -1.01   -0.01  1.0000
   2   0  13  548975   40924                                                      661549   -1.01   -0.01  1.0000
   2   0  13  635064   39484                                                      755748   -1.01   -0.01  1.0000
   2   0  14  388429   31879                                                      374206    0.16    0.01  1.0000
   2   0  14  457709   30214                                                      442258    0.16    0.01  1.0000
   2   0  15   35280   14333                                                       61853    0.85   -0.01  1.0000
   2   0  16  371111   25358                                                      391829    0.23    0.01  1.0000
   2   0  17  130923   10029                                                       91084   -0.84    0.00  1.0000
  -2  -1  18  122309    9876                                                       94024   -0.60   -0.05  1.0000
  -2   1  17  198841   18559                                                      211221    0.19    0.05  1.0000
  -2  -1  17  226874   21490                                                      239446    0.18   -0.07  1.0000
  -2   1  17  180618   14234                                                      192425    0.19    0.05  1.0000
  -2  -1  17  216848   18896                                                      229142    0.18   -0.07  1.0000
  -2   1  16   48333   13247                                                       63759    0.46    0.00  1.0000
  -2  -1  16   33870   12132                                                       46836    0.45    0.02  1.0000
  -2  -1  15  642176   41980                                                      663663   -0.19    0.05  1.0000
  -2   1  15  598292   38899                                                      619837   -0.19   -0.04  1.0000
  -2  -1  15  606661   36910                                                      627550   -0.19    0.05  1.0000
  -2   1  14  646761   43815                                                      720584   -0.62   -0.07  1.0000
  -2  -1  14  667785   45636                                                      741919   -0.62    0.08  1.0000
  -2  -1  14  654898   40172                                                      728331   -0.62    0.08  1.0000
  -2  -1  13  153762   20209                                                      134378    0.36    0.01  1.0000
  -2  -1  13  169284   20723                                                      148913    0.36    0.01  1.0000
  -2   1  13  200219   23543                                                      179145    0.34   -0.02  1.0000
  -2  -1  12  454330   40535                                                      613118    1.52    0.04  1.0000
  -2  -1  12  412132   32243                                                      563931    1.52    0.04  1.0000
  -2   1  12  393129   37702                                                      539867    1.51   -0.04  1.0000
   2  -1 -12  413925   70710                                                      564458    1.51    0.04  1.0000
  -2   1  12  319725   54726                                                      453192    1.51   -0.04  1.0000
  -2   1  11 1723925   97844                                                     1681695   -0.24    0.27  1.0000
  -2   1  10  579848   43436                                                      340153   -2.50   -0.01  1.0000
  -2   1   9 1467925   87047                                                     1865023   -2.15    0.21  1.0000
  -2   1   8 3654576  121024                                                     4345631   -2.41   -0.15  1.0000
  -2  -1   712588787  219625                                                    14240771   -3.16    0.40  1.0000
  -2   1   712466934  194759                                                    14114072   -3.15   -0.37  1.0000
  -2  -1   6 3521220   97353                                                     3318670    0.77   -0.12  1.0000
  -2   1   6 3389703   83696                                                     3190461    0.77    0.16  1.0000
  -2  -1   5 1948134   65147                                                     1845203   -0.59    1.03  1.0000
  -2   1   5 1831525   55001                                                     1718824   -0.59   -1.04  1.0000
  -2  -1   411508745  150247                                                    12523987    2.05   -0.33  1.0000
  -2   1   411488905  132168                                                    12519587    2.07    0.44  1.0000
  -2  -1   3 6043128   89988                                                     6699730    1.82   -0.19  1.0000
  -2   1   3 5706781   85665                                                     6347423    1.82    0.22  1.0000
  -2   1   2 3394616  102504                                                     9843451  -18.07   -1.24  1.0000
  -2  -1   2 3754433   83246                                                    10441205  -18.07    1.29  1.0000
  -2  -1   1 2487146   56620                                                     2204400   -1.56   -2.13  1.0000
  -2   1   0 2811604   90513                                                     9172047  -18.86   -1.20  1.0000
  -2  -1   0 2826277  117911                                                     9176907  -18.86    1.17  1.0000
  -2   1  -1 2415017   58291                                                     3733077    5.18   -1.87  1.0000
  -2  -1  -1 2382116   79837                                                     3685327    5.16    1.93  1.0000
   2  -1   1 2375034   36012                                                     3681967    5.18    1.87  1.0000
  -2  -1  -217922378  232043                                                    26549560   12.84    0.61  1.0000
   2   1   217599036  153666                                                    26143864   12.84   -0.61  1.0000
   2  -1   217977696  109036                                                    26632058   12.86    0.60  1.0000
  -2   1  -217543084  164612                                                    26090864   12.86   -0.60  1.0000
  -2   1  -217947980  133607                                                    26584160   12.86   -0.60  1.0000
   2   1   320950360  152736                                                    17858338   -4.96    1.26  1.0000
  -2   1  -321079268  132909                                                    17977438   -4.95    1.18  1.0000
   2  -1   320619730  106645                                                    17521842   -4.95   -1.18  1.0000
  -2  -1  -320924430  207405                                                    17800538   -4.96   -1.26  1.0000
  -2  -1  -4 2713546   68149                                                     1634915   -5.18    0.42  1.0000
   2   1   4 2720552   54408                                                     1635175   -5.18   -0.42  1.0000
  -2   1  -4 2722874   49135                                                     1636725   -5.18   -0.54  1.0000
   2   1   5 2918759   92408                                                     3656517   -2.84   -0.32  1.0000
   2  -1   5 2952462   60688                                                     3693406   -2.85    0.40  1.0000
  -2   1  -5 3319672   89379                                                     4107243   -2.85   -0.40  1.0000
  -2  -1  -5 3206369  115014                                                     3974224   -2.84    0.32  1.0000
   2  -1   6 2306549   55757                                                     2690556   -1.70    0.04  1.0000
  -2  -1  -6 2069513   97602                                                     2434068   -1.70    0.00  1.0000
  -2   1  -6 2079732   78086                                                     2445888   -1.70   -0.04  1.0000
  -2  -1  -7 2972609  119269                                                     3114852   -0.57    0.12  1.0000
   2  -1   7 3500528   66816                                                     3655097   -0.57    0.08  1.0000
   2  -1   8     256    9645                                                       28746    2.15    0.01  1.0000
  -2  -1  -8     172   13014                                                       20097    2.15   -0.01  1.0000
   2  -1   9 2193253   64496                                                     2899104    3.10    0.03  1.0000
  -2  -1  -9 2103787  129847                                                     2794565    3.09    0.05  1.0000
  -2  -1 -10 3143906  141356                                                     2984023   -0.64   -0.07  1.0000
   2  -1  10 3088131   81633                                                     2927684   -0.64   -0.07  1.0000
   2  -1  10 3324188   87832                                                     3157642   -0.64   -0.07  1.0000
   2   1  10 3172464   84965                                                     3013053   -0.64    0.07  1.0000
   2  -1  10 3167085   68605                                                     3004573   -0.64   -0.07  1.0000
   2  -1  11  474926   33262                                                      401373   -0.78   -0.11  1.0000
   2  -1  11  472426   32543                                                      399075   -0.78   -0.11  1.0000
   2  -1  11  441152   25920                                                      370373   -0.78   -0.11  1.0000
   2   1  11  455728   29541                                                      384774   -0.77    0.12  1.0000
   2   1  11  451452   27813                                                      380846   -0.77    0.12  1.0000
   2   1  11  494503   23957                                                      420471   -0.77    0.12  1.0000
   2   1  11  480524   33216                                                      407587   -0.77    0.12  1.0000
   2  -1  12   61068   14558                                                       48597    0.39   -0.08  1.0000
   2   1  12   70539   11315                                                       56447    0.38    0.09  1.0000
   2   1  12   82940   15119                                                       67594    0.38    0.09  1.0000
   2  -1  12   63810   11742                                                       51049    0.39   -0.08  1.0000
   2  -1  12   62300   14400                                                       49698    0.39   -0.08  1.0000
   2   1  12   52317   12243                                                       40288    0.38    0.09  1.0000
   2   1  12   83156   14189                                                       67789    0.38    0.09  1.0000
   2   1  13 1173314   40231                                                     1146350    0.17    0.16  1.0000
   2  -1  13 1319580   50003                                                     1292988    0.17   -0.17  1.0000
   2  -1  13 1282433   58922                                                     1256219    0.17   -0.17  1.0000
   2  -1  13 1238178   55433                                                     1212419    0.17   -0.17  1.0000
   2   1  13 1278528   49859                                                     1250379    0.17    0.16  1.0000
   2   1  13 1285959   57545                                                     1257729    0.17    0.16  1.0000
   2  -1  14  126727   19177                                                      158324   -0.59    0.07  1.0000
   2   1  14  135771   21774                                                      168894   -0.59   -0.07  1.0000
   2  -1  14  136116   22197                                                      168800   -0.59    0.07  1.0000
   2   1  15   88963   13692                                                       73523   -0.38   -0.01  1.0000
   2  -1  15  105475   15424                                                       88611   -0.38    0.01  1.0000
   2  -1  15   92284   13583                                                       76557   -0.38    0.01  1.0000
   2   1  16  284744   21038                                                      296871    0.16   -0.13  1.0000
   2  -1  16  257948   21534                                                      271034    0.17    0.12  1.0000
   2  -1  17   31156    6600                                                       29608   -0.06    0.02  1.0000
   2   1  17   28956    5282                                                       27420   -0.06   -0.02  1.0000
  -2  -2  18   41023    6804                                                       41580    0.01    0.12  1.0000
  -2  -2  17   61447    9874                                                       47970   -0.40   -0.14  1.0000
  -2   2  16    2519    7510                                                        8488    0.58   -0.11  1.0000
  -2  -2  16    4335    8847                                                       11786    0.58    0.13  1.0000
  -2  -2  15  116715   18255                                                      115283    0.05   -0.22  1.0000
  -2  -2  15  119829   17022                                                      118381    0.05   -0.22  1.0000
  -2   2  15  126497   16439                                                      123759    0.05    0.22  1.0000
  -2   2  14  530447   32174                                                      435947    0.95    0.10  1.0000
  -2  -2  14  542349   35633                                                      448003    0.95   -0.11  1.0000
  -2  -2  14  602095   32276                                                      502454    0.95   -0.11  1.0000
  -2  -2  13  390464   35232                                                      427602   -0.41    0.29  1.0000
  -2   2  13  358067   31171                                                      395640   -0.41   -0.28  1.0000
  -2  -2  13  339659   28518                                                      374325   -0.41    0.29  1.0000
  -2   2  12  417442   27871                                                      304320   -1.32   -0.01  1.0000
  -2  -2  12  424475   29485                                                      310082   -1.32    0.02  1.0000
  -2  -2  12  395870   24060                                                      285705   -1.32    0.02  1.0000
  -2   2  12  436449   47611                                                      320580   -1.32   -0.01  1.0000
   2  -2 -12  444449   55725                                                      327482   -1.32    0.01  1.0000
   2  -2 -11  506190   66101                                                      495209   -0.12    0.17  1.0000
  -2   2  11  511021   56617                                                      497668   -0.12   -0.17  1.0000
  -2  -2  11  477185   27902                                                      466419   -0.12    0.19  1.0000
  -2  -2  11  505029   35967                                                      493957   -0.12    0.19  1.0000
  -2   2  10 1923185  111812                                                     2440708    2.46   -0.33  1.0000
  -2   2   9   37931   16277                                                       34602    1.84    1.26  1.0000
  -2   2   8 8983019  176201                                                     8724611    0.61    0.03  1.0000
  -2   2   712257371  178785                                                    10770802    3.07   -0.22  1.0000
  -2   2   6  587120   33637                                                      430769    1.54    0.00  1.0000
  -2   2   5 9126942  127629                                                     8010828   -2.66   -0.22  1.0000
  -2  -2   4 2461635   55557                                                     1835414   -2.99   -0.19  1.0000
  -2   2   4 2614139   58719                                                     1966632   -3.01    0.14  1.0000
  -2  -2   3  273806   24534                                                      387426    1.41   -0.50  1.0000
  -2   2   3  256240   24634                                                      373150    1.43    0.49  1.0000
  -2  -2   2  242156    6612                                                       10532    6.37   -0.58  1.0000
  -2   2   2  284164    6936                                                        9987    6.36    0.54  1.0000
  -2  -2   1  611942    6635                                                        9378   11.89   -0.64  1.0000
  -2  -2   1  597772    6255                                                       12118   11.89   -0.64  1.0000
  -2  -2   0  796422   30689                                                      548822    2.11    1.02  1.0000
   2   2   0  769379   13851                                                      559439    2.11   -1.02  1.0000
  -2  -2   0  842834   36365                                                      587610    2.11    1.02  1.0000
  -2  -2  -1   61512   12394                                                       31738   -1.10   -0.55  1.0000
  -2   2  -1   58565    4876                                                       30083   -1.10    0.70  1.0000
   2   2   1   55677    3910                                                       26417   -1.10    0.55  1.0000
   2   2   2  407811    9188                                                       91969   -4.78    0.59  1.0000
  -2  -2  -2  442486   18698                                                      103380   -4.78   -0.59  1.0000
  -2  -2  -315470277  208336                                                    13651576   -3.32   -0.47  1.0000
   2   2   315758958  131373                                                    13934174   -3.32    0.47  1.0000
  -2  -2  -4 5073779  129877                                                     4560149   -1.63   -0.10  1.0000
   2   2   4 5412718   90535                                                     4882816   -1.63    0.10  1.0000
   2  -2   5 1874483   44680                                                     1493657    2.06   -0.05  1.0000
   2   2   5 1919267   58408                                                     1534116    2.05    0.05  1.0000
  -2  -2  -5 1849176   78562                                                     1472077    2.05   -0.05  1.0000
   2   2   610725081  154152                                                     8592792    4.81   -0.10  1.0000
   2  -2   610381706  115261                                                     8284025    4.81    0.02  1.0000
   2  -2   7 3005606   69911                                                     2629466    1.57   -0.14  1.0000
  -2  -2  -7 2832972  117318                                                     2467768    1.57   -0.15  1.0000
   2   2   7 2727655   89689                                                     2367319    1.57    0.15  1.0000
  -2  -2  -8 1294803   72905                                                      813281   -3.30    0.05  1.0000
   2  -2   8 1387566   42452                                                      885784   -3.31    0.04  1.0000
  -2  -2  -9 1525680   82079                                                      947074   -3.68    0.13  1.0000
   2  -2  10 3086554   88854                                                     3224981    0.54    0.04  1.0000
   2   2  10 3113899   87172                                                     3251641    0.54   -0.06  1.0000
  -2  -2 -10 3098444  158322                                                     3236721    0.54    0.06  1.0000
   2  -2  10 3237475   89382                                                     3379209    0.54    0.04  1.0000
   2  -2  11  140190   24487                                                      214790    1.24    0.08  1.0000
   2   2  11  125669   23147                                                      196547    1.24   -0.06  1.0000
   2   2  12  252089   27732                                                      307599   -0.73   -0.02  1.0000
   2   2  12  262862   21794                                                      319488   -0.73   -0.02  1.0000
   2  -2  12  236834   29029                                                      290377   -0.73    0.04  1.0000
   2  -2  12  244800   30239                                                      299191   -0.73    0.04  1.0000
   2   2  13  489383   34926                                                      518626   -0.29   -0.02  1.0000
   2   2  13  431257   25371                                                      458735   -0.29   -0.02  1.0000
   2  -2  13  470805   37359                                                      499109   -0.28    0.00  1.0000
   2  -2  13  465857   30937                                                      494015   -0.28    0.00  1.0000
   2  -2  13  428136   35129                                                      455147   -0.28    0.00  1.0000
   2   2  14  120976   16219                                                      110011    0.23    0.01  1.0000
   2  -2  14  103209   16945                                                       93319    0.22    0.00  1.0000
   2  -2  14  108223   15860                                                       98091    0.22    0.00  1.0000
   2  -2  14   79084   15616                                                       70458    0.22    0.00  1.0000
   2  -2  15   10019    9636                                                       18530    0.50    0.02  1.0000
   2   2  15    3795    6496                                                        9569    0.51   -0.02  1.0000
   2  -2  15    7674    8125                                                       15285    0.50    0.02  1.0000
   2   2  16   32511    6672                                                       23503   -0.38    0.00  1.0000
   2  -2  16   38091    8200                                                       28310   -0.38   -0.02  1.0000
   2  -2  16    8526    7589                                                        4277   -0.38   -0.02  1.0000
  -2  -3  17   17268    5546                                                       13805   -0.19   -0.03  1.0000
  -2  -3  16   60299   11397                                                       57587    0.08    0.00  1.0000
  -2  -3  15   66641   13167                                                       62755    0.11   -0.02  1.0000
  -2  -3  15   93097   14294                                                       88494    0.11   -0.02  1.0000
  -2  -3  14  300899   28930                                                      340424   -0.49    0.00  1.0000
  -2  -3  14  255558   23669                                                      292079   -0.49    0.00  1.0000
  -2  -3  13  111039   17671                                                      112788   -0.04    0.03  1.0000
  -2  -3  13  121772   17487                                                      123603   -0.04    0.03  1.0000
   2  -3 -12  227932   16957                                                      189616    0.58   -0.14  1.0000
  -2  -3  12  191243   21324                                                      158014    0.55   -0.11  1.0000
  -2  -3  12  234907   20324                                                      197912    0.55   -0.11  1.0000
   2  -3 -11 3463845   72149                                                     3571128    0.39    0.19  1.0000
  -2   3  11 3618140  147500                                                     3725016    0.39   -0.19  1.0000
   2  -3 -11 3569618  180518                                                     3678517    0.39    0.19  1.0000
  -2  -3  11 3515839   94689                                                     3620867    0.38    0.16  1.0000
   2  -3 -10  939933   81310                                                      772148   -1.28    0.21  1.0000
  -2   3  10 1034018   68274                                                      855164   -1.28   -0.21  1.0000
  -2   3   9  386088   49709                                                      520936   -1.39   -0.29  1.0000
   2  -3  -9  378367   64186                                                      511298   -1.39    0.29  1.0000
   2  -3  -8 5631849  199453                                                     6093645   -1.34    0.24  1.0000
  -2   3   8 5978525  157427                                                     6457872   -1.34   -0.24  1.0000
  -2   3   7 4723526  128289                                                     5036195   -0.99   -0.04  1.0000
   2  -3  -7 4466029  166042                                                     4769437   -0.99    0.04  1.0000
  -2   3   6   81644   18176                                                      103894   -0.52    0.19  1.0000
  -2   3   5   29531   15946                                                       96464    1.92    0.24  1.0000
  -2   3   4 5838833  120017                                                     6851109    2.81    0.03  1.0000
  -2  -3   4 5486085   97058                                                     6461032    2.79    0.01  1.0000
  -2   3   3  187710   18557                                                      148963   -0.65   -0.16  1.0000
  -2  -3   3  171141   14718                                                      134900   -0.66    0.16  1.0000
   2  -3  -2  381665   60424                                                     1495157   -8.46    0.21  1.0000
  -2   3   2  399944   56283                                                     1532286   -8.46   -0.21  1.0000
  -2  -3   2  401725   59668                                                     1538486   -8.48    0.36  1.0000
  -2  -3   2  345250   45872                                                     1425847   -8.48    0.36  1.0000
   2  -3  -1 6310138  111784                                                     7559652   -3.33    0.29  1.0000
  -2  -3   1 6471371  138886                                                     7730470   -3.31    0.26  1.0000
  -2  -3   0 2286121   83275                                                     2484128   -0.88   -0.27  1.0000
   2   3   0 2184240   42935                                                     2373299   -0.88    0.27  1.0000
   2   3   1  651163   14269                                                      243611    4.40    0.47  1.0000
  -2  -3  -1  670586   29831                                                      257118    4.40   -0.47  1.0000
  -2  -3  -2 5773356  161037                                                     7302244    4.19   -0.10  1.0000
   2   3   2 5956137   88770                                                     7509242    4.19    0.10  1.0000
   2   3   3 1602497   49251                                                     1741314    0.76   -0.11  1.0000
  -2  -3  -3 1603777   84866                                                     1744874    0.76    0.11  1.0000
   2   3   4 1566647   57318                                                     1797164    1.25   -0.13  1.0000
  -2  -3  -4 1661178   94140                                                     1899593    1.25    0.13  1.0000
   2   3   5  361273   26075                                                      298930    0.76   -0.03  1.0000
  -2  -3  -5  421741   44433                                                      353860    0.76    0.03  1.0000
   2   3   6 5225961  125271                                                     5556190   -1.00    0.14  1.0000
  -2  -3  -6 5690040  188822                                                     6037146   -1.00   -0.14  1.0000
   2   3   7 2971527  103033                                                     3195981   -0.89   -0.09  1.0000
  -2  -3  -7 3330070  154527                                                     3566248   -0.89    0.09  1.0000
  -2  -3  -8    4383   18098                                                      -24930    0.93   -0.02  1.0000
   2  -3   9 7336907  118335                                                     8147597    2.04   -0.02  1.0000
  -2  -3  -9 7525308  261251                                                     8345404    2.04   -0.08  1.0000
   2  -3   9 7566954  139834                                                     8389924    2.04   -0.02  1.0000
   2  -3  10  482006   37287                                                      519767    0.37    0.00  1.0000
  -2  -3 -10  475782   31798                                                      513669    0.38    0.00  1.0000
  -2  -3 -11   50436    9313                                                       30944   -0.68   -0.05  1.0000
   2  -3  11   47438   12353                                                       28661   -0.68   -0.05  1.0000
   2  -3  11   21886   11210                                                        9886   -0.68   -0.05  1.0000
   2  -3  12  200627   22971                                                      165308    0.57    0.09  1.0000
   2  -3  12  190642   20667                                                      156255    0.57    0.09  1.0000
   2  -3  13   95229   17352                                                       85098    0.24   -0.02  1.0000
   2  -3  13  104969   15705                                                       94319    0.24   -0.02  1.0000
   2  -3  13  100370   16392                                                       89962    0.24   -0.02  1.0000
   2  -3  14  184325   19728                                                      206570   -0.35    0.02  1.0000
   2  -3  14  164248   19454                                                      185281   -0.35    0.02  1.0000
   2  -3  15   21724    7688                                                       21380    0.02    0.02  1.0000
   2  -3  15   33292    9929                                                       32866    0.02    0.02  1.0000
   2  -3  16  187011   11615                                                      166584   -0.34   -0.04  1.0000
   2  -3  16  195948   13060                                                      175025   -0.34   -0.04  1.0000
  -2  -4  16   13193    5223                                                        4537   -0.67    0.02  1.0000
  -2  -4  15  308933   22093                                                      309863   -0.02    0.19  1.0000
  -2  -4  15  280730   18790                                                      281608   -0.02    0.19  1.0000
  -2  -4  14  613711   33592                                                      597522    0.15   -0.08  1.0000
  -2  -4  14  540317   27645                                                      525131    0.15   -0.08  1.0000
   2  -4 -14  636244   25342                                                      621418    0.13   -0.07  1.0000
   2  -4 -13  166145   14526                                                      152297    0.24    0.02  1.0000
  -2  -4  13  175023   17410                                                      159752    0.26   -0.04  1.0000
  -2  -4  13  168978   19696                                                      153979    0.26   -0.04  1.0000
   2  -4 -12 1014250   37554                                                      954073   -0.42   -0.30  1.0000
  -2  -4  12  924625   37359                                                      874989   -0.36   -0.38  1.0000
   2  -4 -11   82797   11113                                                       60096   -0.64    0.18  1.0000
   2  -4 -10  359082   26070                                                      403183    0.50   -0.09  1.0000
  -2   4  10  289732   43749                                                      330259    0.50    0.09  1.0000
   2  -4 -10  357357   61337                                                      401355    0.50   -0.09  1.0000
   2  -4  -9   19106    7080                                                      -10297    1.92   -0.22  1.0000
  -2   4   9   23172    9276                                                        1546    1.92    0.22  1.0000
   2  -4  -9   19106   14141                                                       -1837    1.92   -0.22  1.0000
   2  -4  -8 1319113  101325                                                     1295698    0.14    0.03  1.0000
  -2   4   8 1324995   74976                                                     1301908    0.14   -0.03  1.0000
   2  -4  -7 3074384  145487                                                     3004873    0.28   -0.14  1.0000
  -2   4   7 3229749  108816                                                     3156342    0.28    0.14  1.0000
   2  -4  -6 1953444  113088                                                     2032742   -0.39    0.03  1.0000
  -2   4   6 1788180   77973                                                     1864243   -0.39   -0.03  1.0000
   2  -4  -5 1216453   74542                                                     1036001   -1.20    0.22  1.0000
  -2   4   5 1112047   52454                                                      937567   -1.20   -0.22  1.0000
  -2   4   4 1325706   58990                                                     1284628   -0.25   -0.05  1.0000
   2  -4  -4 1447633   79367                                                     1405497   -0.25    0.05  1.0000
  -2   4   3 1826514   74570                                                     2044292    1.10   -0.01  1.0000
   2  -4  -3 1610470   81735                                                     1815484    1.10    0.01  1.0000
   2  -4  -2  656406   35491                                                      459030    1.85    0.22  1.0000
  -2   4   2  689854   37742                                                      488472    1.85   -0.22  1.0000
  -2  -4   1 5866771  124090                                                     4620208    3.81    0.00  1.0000
  -2   4   1 6077761  120052                                                     4825957    3.76   -0.16  1.0000
  -2  -4   0 4695567  134955                                                     5025105   -1.04   -0.29  1.0000
  -2  -4  -1   50199   12683                                                       26096   -2.65    1.45  1.0000
  -2  -4  -2 1256737   57156                                                      713328   -3.86   -0.08  1.0000
  -2  -4  -3 5311950  152009                                                     4520419   -2.49   -0.20  1.0000
  -2  -4  -4   10034   11725                                                        8206   -0.14    0.01  1.0000
  -2  -4  -5 1811639  105878                                                     1770564    0.21    0.11  1.0000
  -2  -4  -6 2645519  131542                                                     2462258    0.80    0.13  1.0000
  -2  -4  -7  773449   83674                                                      889155   -0.89    0.11  1.0000
   2  -4   7  710195   35480                                                      817598   -0.86    0.05  1.0000
   2  -4   8  152748   14029                                                       72153   -1.71   -0.13  1.0000
   2  -4   8  145733   12584                                                       67355   -1.71   -0.13  1.0000
  -2  -4  -8  120280   23163                                                       50870   -1.69   -0.14  1.0000
  -2  -4  -9   44964   11393                                                       33998   -0.35   -0.17  1.0000
   2  -4   9   38840   12377                                                       28998   -0.35   -0.12  1.0000
   2  -4   9   29493    9443                                                       21008   -0.35   -0.12  1.0000
  -2  -4 -10 2807620   75753                                                     2960033    0.63   -0.11  1.0000
   2  -4  10 2742286   83751                                                     2895964    0.64   -0.13  1.0000
   2  -4  11  329167   28129                                                      304506   -0.30   -0.11  1.0000
  -2  -4 -11  333276   23766                                                      309299   -0.29   -0.09  1.0000
  -2  -4 -12  182657   17460                                                      200192   -0.28    0.02  1.0000
   2  -4  12  169597   22082                                                      186051   -0.28    0.06  1.0000
  -2  -4 -13  832353   28730                                                      802164    0.23    0.03  1.0000
   2  -4  13  960758   36663                                                      929305    0.23    0.03  1.0000
   2  -4  13  893756   41794                                                      863428    0.23    0.03  1.0000
   2  -4  14  119583   13900                                                      108210    0.24    0.00  1.0000
   2  -4  15   76618    9357                                                       65381   -0.30    0.03  1.0000
   2  -4  15   66116    6939                                                       55708   -0.30    0.03  1.0000
  -2  -5  16    1040    2713                                                        4044    0.44   -0.01  1.0000
  -2  -5  15  200935   12580                                                      200999    0.00   -0.06  1.0000
  -2  -5  14  276886   19519                                                      299511   -0.29   -0.08  1.0000
  -2  -5  13   48982    9551                                                       41073    0.26    0.05  1.0000
   2  -5 -13   44536    7751                                                       36876    0.26    0.04  1.0000
   2  -5 -12   78334   12288                                                       91305    0.30    0.11  1.0000
  -2  -5  12   81176   14133                                                       93713    0.29    0.14  1.0000
   2  -5 -11  690473   33679                                                      711218    0.17   -0.02  1.0000
  -2  -5  11  689226   38114                                                      709919    0.17    0.00  1.0000
   2  -5 -10  114656   13924                                                       95270   -0.42   -0.05  1.0000
   2  -5  -9  158163   18338                                                      179593   -0.36   -0.14  1.0000
   2  -5  -8  500244   30934                                                      550081   -0.48   -0.02  1.0000
  -2   5   8  390757   46906                                                      434682   -0.48    0.02  1.0000
   2  -5  -8  474170   68667                                                      522722   -0.48   -0.02  1.0000
   2  -5  -7 1400366   49611                                                     1467637   -0.40    0.07  1.0000
  -2   5   7 1365133   79974                                                     1432517   -0.40   -0.07  1.0000
   2  -5  -7 1293027  105908                                                     1357698   -0.40    0.07  1.0000
   2  -5  -6  666441   30176                                                      561301    0.94    0.08  1.0000
  -2   5   6  639755   46975                                                      537254    0.94   -0.08  1.0000
   2  -5  -6  643094   63822                                                      539891    0.94    0.08  1.0000
  -2   5   5   64403   19993                                                       95564    0.78   -0.08  1.0000
  -2   5   4 3198767  106964                                                     3219851    0.08    0.01  1.0000
  -2   5   3 2008246   83305                                                     1935673   -0.37    0.25  1.0000
  -2   5   2  580880   52415                                                      731901   -1.31    0.10  1.0000
  -2   5   1 1900202   89988                                                     2063941   -0.82    0.13  1.0000
  -2   5   0 3327436  118099                                                     3355170   -0.11    0.00  1.0000
  -2  -5   0 3041697  115543                                                     3050912   -0.03   -0.16  1.0000
  -2  -5  -1   32879   25075                                                      116735    2.23   -0.23  1.0000
  -2  -5  -2 3696678  155929                                                     4587059    3.07   -0.16  1.0000
  -2  -5  -3 2083001  119494                                                     2392228    1.45    0.01  1.0000
  -2  -5  -4   33209   23268                                                       60241    0.88    0.07  1.0000
   2  -5   5  843060   33957                                                      884283   -0.31    0.08  1.0000
  -2  -5  -5  761087   77897                                                      802832   -0.33    0.07  1.0000
   2  -5   5  852579   36052                                                      894031   -0.31    0.08  1.0000
   2  -5   5  786364   26052                                                      826192   -0.31    0.08  1.0000
  -2  -5  -6  607461   73230                                                      658580   -0.45    0.07  1.0000
   2  -5   6  709322   32694                                                      764563   -0.46    0.08  1.0000
   2  -5   6  624048   23471                                                      675923   -0.46    0.08  1.0000
   2  -5   6  664079   33869                                                      717562   -0.46    0.08  1.0000
  -2  -5  -7  571861   32351                                                      514707    0.54    0.02  1.0000
   2  -5   7  601538   30917                                                      541813    0.55    0.02  1.0000
  -2  -5  -8   29861    8272                                                        8738    1.12    0.12  1.0000
   2  -5   8   25840    7390                                                        6737    1.11    0.13  1.0000
   2  -5   9  777632   40935                                                      789589    0.09    0.09  1.0000
   2  -5   9  776026   38986                                                      787971    0.09    0.09  1.0000
  -2  -5  -9  816184   40793                                                      829160    0.10    0.10  1.0000
  -2  -5 -10  752024   36393                                                      725177   -0.22    0.07  1.0000
   2  -5  10  694665   37403                                                      668646   -0.22    0.04  1.0000
  -2  -5 -11  168307   16904                                                      161828   -0.12    0.11  1.0000
   2  -5  11  167893   18849                                                      161536   -0.11    0.10  1.0000
  -2  -5 -12   54167    9163                                                       54989   -0.03    0.02  1.0000
  -2  -5 -13  591501   22235                                                      592505   -0.01   -0.02  1.0000
   2  -5  13  650131   26920                                                      650888   -0.01   -0.02  1.0000
   2  -5  14   85310   10751                                                      100937   -0.36   -0.05  1.0000
  -2  -6  14  168528   11723                                                      159064    0.16    0.02  1.0000
   2  -6 -13   64212    7850                                                       59090    0.14    0.08  1.0000
  -2  -6  13   63513    9602                                                       58300    0.15    0.07  1.0000
   2  -6 -12     235    4883                                                       -2579   -0.21    0.01  1.0000
   2  -6 -11  383379   22404                                                      359495   -0.28    0.08  1.0000
   2  -6 -10  185976   18015                                                      164656   -0.36    0.02  1.0000
   2  -6 -10  205867   17220                                                      183401   -0.36    0.02  1.0000
   2  -6  -9    3104    7917                                                       -6517    0.78    0.01  1.0000
   2  -6  -9    8931    7078                                                        1520    0.78    0.01  1.0000
   2  -6  -8 1499999   49216                                                     1436157    0.37    0.07  1.0000
   2  -6  -8 1500346   57942                                                     1436497    0.37    0.07  1.0000
   2  -6  -7  699024   40644                                                      678098    0.18   -0.03  1.0000
  -2  -6   7  646904   37228                                                      625985    0.19   -0.06  1.0000
   2  -6  -7  697988   34340                                                      677078    0.18   -0.03  1.0000
   2  -6  -6   13741   10284                                                       29422   -0.76   -0.03  1.0000
  -2  -6   6   14724    9995                                                       30738   -0.76   -0.01  1.0000
   2  -6  -6   21456   10600                                                       40316   -0.76   -0.03  1.0000
  -2  -6   5  184649   16494                                                      124372   -1.07   -0.16  1.0000
   2  -6  -5  196397   18656                                                      133505   -1.08   -0.13  1.0000
   2  -6  -5  202738   15688                                                      138743   -1.08   -0.13  1.0000
   2  -6  -4 1177066   42070                                                     1120620   -0.37    0.00  1.0000
   2  -6  -4 1246384   49755                                                     1188279   -0.37    0.00  1.0000
  -2   6   4 1159964   70779                                                     1103940   -0.37    0.00  1.0000
  -2  -6   4 1106349   43912                                                     1052571   -0.36   -0.05  1.0000
   2  -6  -3  547222   28908                                                      584726    0.35    0.02  1.0000
  -2   6   3  617310   53605                                                      656945    0.35   -0.02  1.0000
   2  -6  -3  558283   34574                                                      596158    0.35    0.02  1.0000
  -2  -6   3  568925   32623                                                      607716    0.35   -0.02  1.0000
  -2  -6   3  593834   28543                                                      633451    0.35   -0.02  1.0000
  -2  -6   3  589189   28648                                                      628653    0.35   -0.02  1.0000
  -2  -6   2  255990   19209                                                      271960    0.22   -0.01  1.0000
   2  -6  -2  312372   25232                                                      330036    0.22   -0.03  1.0000
  -2   6   2  337256   40360                                                      355493    0.22    0.03  1.0000
  -2  -6   2  284224   22258                                                      301038    0.22   -0.01  1.0000
  -2  -6   1 3364969   70889                                                     3241691    0.47    0.03  1.0000
  -2   6   1 3450700  124425                                                     3330300    0.46   -0.03  1.0000
  -2  -6   1 3311161   66598                                                     3188881    0.47    0.03  1.0000
   2  -6  -1 3470011   73975                                                     3348820    0.46    0.03  1.0000
   2  -6  -1 3306619   73624                                                     3188341    0.46    0.03  1.0000
   2  -6   0  156390   17767                                                      187475   -0.52   -0.05  1.0000
  -2  -6   0  143398   16574                                                      173025   -0.52   -0.05  1.0000
   2  -6   0  154078   18304                                                      184943   -0.52   -0.05  1.0000
  -2   6   0  149540   29024                                                      179421   -0.52    0.05  1.0000
   2  -6   1   85555    7053                                                       34496   -1.49    0.08  1.0000
   2  -6   1  100244    9166                                                       44040   -1.49    0.08  1.0000
   2  -6   1   82498    8008                                                       32565   -1.49    0.08  1.0000
  -2  -6  -2 1452135   45952                                                     1147200   -1.88    0.10  1.0000
   2  -6   2 1443657   34995                                                     1139840   -1.88    0.09  1.0000
   2  -6   2 1518307   41910                                                     1206279   -1.88    0.09  1.0000
  -2   6  -2 1464937   78302                                                     1157610   -1.88   -0.09  1.0000
   2  -6   2 1480202   40893                                                     1172339   -1.88    0.09  1.0000
   2  -6   2 1567306   43746                                                     1249999   -1.88    0.09  1.0000
   2  -6   3 1200484   36995                                                      917504   -1.93    0.01  1.0000
   2  -6   3 1167123   36178                                                      888367   -1.93    0.01  1.0000
   2  -6   3 1175825   30651                                                      895962   -1.93    0.01  1.0000
  -2  -6  -3 1196064   42070                                                      912314   -1.94    0.01  1.0000
  -2  -6  -4  446472   29190                                                      413412   -0.35   -0.06  1.0000
   2  -6   4  475153   21052                                                      441364   -0.35   -0.05  1.0000
   2  -6   4  475484   25785                                                      441683   -0.35   -0.05  1.0000
   2  -6   4  489001   26838                                                      454714   -0.35   -0.05  1.0000
  -2  -6  -5     701    7626                                                       -1004    0.24   -0.28  1.0000
   2  -6   5    6068    6407                                                       10353    0.23   -0.24  1.0000
   2  -6   5    5580    5349                                                        9713    0.23   -0.24  1.0000
   2  -6   5     805    6043                                                        2727    0.23   -0.24  1.0000
   2  -6   6 1608699   38038                                                     1609235    0.01   -0.28  1.0000
  -2  -6  -6 1580850   55869                                                     1581666    0.01   -0.22  1.0000
   2  -6   6 1631613   52033                                                     1632155    0.01   -0.28  1.0000
   2  -6   7  408200   28827                                                      459611   -0.55   -0.01  1.0000
  -2  -6  -7  392991   29719                                                      443010   -0.54    0.01  1.0000
  -2  -6  -8   12236    6848                                                        7825   -0.31   -0.08  1.0000
   2  -6   8   16031    8254                                                       10884   -0.31   -0.08  1.0000
  -2  -6  -9  806285   35857                                                      788241   -0.14   -0.08  1.0000
  -2  -6 -10  297570   21464                                                      310066    0.16    0.00  1.0000
  -2  -6 -11   22863    6347                                                       21801   -0.05   -0.02  1.0000
  -2  -6 -12  236470   14025                                                      223629    0.18    0.10  1.0000
   2  -6  12  218861   14965                                                      206975    0.18    0.12  1.0000
  -2  -6 -13   13298    2914                                                       10925    0.17   -0.05  1.0000
   2  -6  13   10079    5048                                                        8045    0.17   -0.08  1.0000
  -2  -7  12   10067    5828                                                       16784    0.41   -0.05  1.0000
   2  -7 -11   75872    8948                                                       79294    0.09   -0.07  1.0000
  -2  -7  11   84145   12060                                                       87428    0.08   -0.06  1.0000
   2  -7 -10  213598   15435                                                      209653   -0.06    0.00  1.0000
  -2  -7  10  218492   19964                                                      214923   -0.05    0.00  1.0000
  -2  -7   9   17282    8840                                                       16897    0.02    0.06  1.0000
   2  -7  -9   41716    8011                                                       41181    0.02    0.08  1.0000
   2  -7  -9   24344    7195                                                       23929    0.02    0.08  1.0000
   2  -7  -8  296414   21514                                                      321237   -0.31   -0.05  1.0000
  -2  -7   8  315510   26922                                                      340650   -0.30   -0.05  1.0000
   2  -7  -8  307388   23293                                                      332658   -0.31   -0.05  1.0000
   2  -7  -7 1098975   40866                                                     1143570   -0.30    0.05  1.0000
   2  -7  -7 1143254   46691                                                     1188729   -0.30    0.05  1.0000
  -2  -7   7 1182207   49422                                                     1226839   -0.29    0.08  1.0000
   2  -7  -6   48412    8862                                                       33436    0.52   -0.03  1.0000
   2  -7  -6   83447   13213                                                       63359    0.52   -0.03  1.0000
  -2  -7   6   84630   13257                                                       64508    0.52   -0.01  1.0000
   2  -7  -5  691938   33977                                                      775492    0.68    0.09  1.0000
   2  -7  -5  811837   42558                                                      902144    0.68    0.09  1.0000
  -2  -7   5  741395   38539                                                      827555    0.68    0.04  1.0000
  -2  -7   4  783391   28150                                                      839313    0.43    0.01  1.0000
   2  -7  -4  791511   34535                                                      849084    0.45   -0.03  1.0000
   2  -7  -4  899821   43212                                                      961141    0.45   -0.03  1.0000
  -2  -7   4  801242   38038                                                      857787    0.43    0.01  1.0000
   2  -7  -4  778873   40339                                                      835992    0.45   -0.03  1.0000
   2  -7  -3  148964   18469                                                      155460    0.11    0.07  1.0000
   2  -7  -3  130679   16048                                                      136766    0.11    0.07  1.0000
  -2  -7   3  132130   15593                                                      137879    0.10    0.11  1.0000
  -2  -7   2  499220   25765                                                      522956   -0.23    0.12  1.0000
  -2  -7   2  478777   28383                                                      502026   -0.23    0.12  1.0000
   2  -7  -2  496396   29492                                                      520567   -0.24    0.15  1.0000
   2  -7  -1  140258   14179                                                      137891   -0.05   -0.09  1.0000
  -2  -7   1  172101   15068                                                      168692   -0.06    0.01  1.0000
   2  -7  -1  158612   16082                                                      156098   -0.05   -0.09  1.0000
   2  -7  -1  135693   12869                                                      133364   -0.05   -0.09  1.0000
   2  -7   0  411102   23970                                                      372389    0.44   -0.05  1.0000
  -2  -7   0  423335   23139                                                      384352    0.43   -0.04  1.0000
   2  -7   0  373864   23441                                                      336989    0.44   -0.05  1.0000
   2  -7   0  415470   21249                                                      376547    0.44   -0.05  1.0000
   2  -7   0  416281   23073                                                      377319    0.44   -0.05  1.0000
   2  -7   1   17598    5499                                                        3643    1.03   -0.03  1.0000
  -2  -7  -1    5234    6524                                                       -4961    1.01   -0.01  1.0000
   2  -7   1   10321    4915                                                         824    1.03   -0.03  1.0000
   2  -7   1    5455    7690                                                       -7943    1.03   -0.03  1.0000
   2  -7   1    5455    5542                                                       -1765    1.03   -0.03  1.0000
  -2  -7  -2  418945   29761                                                      554948    1.37   -0.08  1.0000
   2  -7   2  394259   28147                                                      526091    1.37   -0.11  1.0000
   2  -7   2  419019   24567                                                      554638    1.37   -0.11  1.0000
   2  -7   2  385380   26586                                                      515824    1.37   -0.11  1.0000
   2  -7   3 2012531   46731                                                     2213820    0.96    0.10  1.0000
   2  -7   3 1897177   54941                                                     2092751    0.96    0.10  1.0000
  -2  -7  -3 1857794   59153                                                     2052681    0.97    0.09  1.0000
   2  -7   3 1939653   54471                                                     2137351    0.96    0.10  1.0000
  -2  -7  -3 1843669   60934                                                     2037832    0.97    0.09  1.0000
  -2  -7  -4  582473   34479                                                      626643    0.39    0.15  1.0000
   2  -7   4  618256   25261                                                      662874    0.39    0.07  1.0000
   2  -7   4  581504   30278                                                      624798    0.39    0.07  1.0000
   2  -7   4  589649   30522                                                      633240    0.39    0.07  1.0000
   2  -7   5  449313   27241                                                      452206   -0.01   -0.40  1.0000
  -2  -7  -5  370868   26621                                                      373478    0.00   -0.46  1.0000
   2  -7   5  437215   20122                                                      440057   -0.01   -0.40  1.0000
   2  -7   5  359592   23534                                                      362094   -0.01   -0.40  1.0000
  -2  -7  -6  503591   29347                                                      497127    0.05    0.46  1.0000
   2  -7   6  515478   27485                                                      508314    0.06    0.44  1.0000
  -2  -7  -7  377798   23788                                                      344530    0.38    0.20  1.0000
   2  -7   7  344531   21646                                                      312954    0.38    0.20  1.0000
  -2  -7  -8   72364   12136                                                       90870    0.45    0.07  1.0000
  -2  -7  -9  227535   16411                                                      221515   -0.08   -0.09  1.0000
  -2  -7 -10  141789   11701                                                      134012   -0.14   -0.07  1.0000
  -2  -7 -11     823    2255                                                       -1985    0.40   -0.04  1.0000
  -2  -7 -11     823    3263                                                        -728    0.40   -0.04  1.0000
   2  -8 -10   66912    6739                                                       57706   -0.26    0.02  1.0000
   2  -8  -9      42    4138                                                       -1299    0.09   -0.01  1.0000
  -2  -8   9      41    5311                                                       -4560    0.09    0.00  1.0000
   2  -8  -8  269703   10199                                                      258761    0.15   -0.09  1.0000
   2  -8  -8  264798   18782                                                      253957    0.15   -0.09  1.0000
  -2  -8   8  252633   17953                                                      242129    0.15   -0.08  1.0000
   2  -8  -7  260519   11982                                                      246014    0.20    0.02  1.0000
  -2  -8   7  271898   19457                                                      257526    0.19    0.03  1.0000
   2  -8  -7  252551   19434                                                      238273    0.20    0.02  1.0000
   2  -8  -7  226727   14355                                                      213209    0.20    0.02  1.0000
   2  -8  -6   49146   10209                                                       50626   -0.05    0.02  1.0000
   2  -8  -6   34798    5785                                                       36045   -0.05    0.02  1.0000
   2  -8  -6   32475    7706                                                       33681   -0.05    0.02  1.0000
   2  -8  -5  184860   11815                                                      152773   -0.56    0.12  1.0000
   2  -8  -5  198740   17180                                                      165419   -0.56    0.12  1.0000
   2  -8  -5  146033   13601                                                      117670   -0.56    0.12  1.0000
  -2  -8   4  255860   12799                                                      252202   -0.05    0.05  1.0000
   2  -8  -4  231135   14744                                                      227453   -0.06    0.06  1.0000
   2  -8  -4  238975   19574                                                      235231   -0.06    0.06  1.0000
   2  -8  -4  240658   19432                                                      236901   -0.06    0.06  1.0000
  -2  -8   3  156075   11312                                                      154151   -0.03   -0.06  1.0000
   2  -8  -3  148765   15399                                                      147443   -0.02   -0.05  1.0000
   2  -8  -3  168246   16235                                                      166839   -0.02   -0.05  1.0000
   2  -8  -3  157098   12292                                                      155739   -0.02   -0.05  1.0000
   2  -8  -2    4633    5895                                                        4711    0.00   -0.12  1.0000
   2  -8  -2    7558    4857                                                        7676    0.00   -0.12  1.0000
  -2  -8   2    7759    4184                                                        7882   -0.01   -0.13  1.0000
   2  -8  -2   17736    7267                                                       17953    0.00   -0.12  1.0000
   2  -8  -1  490575   21551                                                      459289    0.32    0.03  1.0000
   2  -8  -1  497547   26045                                                      466036    0.32    0.03  1.0000
   2  -8  -1  537725   25524                                                      504945    0.32    0.03  1.0000
   2  -8   0   73475    9402                                                       80466   -0.19    0.10  1.0000
   2  -8   0   78162   11526                                                       85369   -0.19    0.10  1.0000
  -2  -8   0   86195   10343                                                       93921   -0.19    0.08  1.0000
   2  -8   1   29890    6633                                                       17595   -0.56    0.00  1.0000
   2  -8   1   19480    4769                                                        9867   -0.56    0.00  1.0000
  -2  -8  -1   25257    5085                                                       14132   -0.56    0.00  1.0000
   2  -8   2  224050   12925                                                      192690   -0.48    0.00  1.0000
   2  -8   2  221050   16046                                                      189908   -0.48    0.00  1.0000
  -2  -8  -2  203575   14523                                                      173029   -0.49   -0.02  1.0000
   2  -8   3  574337   20330                                                      518378   -0.54    0.09  1.0000
  -2  -8  -3  538406   24064                                                      484039   -0.54    0.08  1.0000
  -2  -8  -4   83043   10869                                                       74886   -0.20   -0.06  1.0000
   2  -8   4   98136    8903                                                       89600   -0.19   -0.03  1.0000
  -2  -8  -4   87716   10356                                                       79328   -0.20   -0.06  1.0000
  -2  -8  -5   43030    8407                                                       39082    0.13    0.03  1.0000
  -2  -8  -5   39252    7381                                                       35484    0.13    0.03  1.0000
  -2  -8  -6  499313   24382                                                      514489   -0.14   -0.10  1.0000
  -2  -8  -6  431830   21622                                                      445949   -0.14   -0.10  1.0000
  -2  -8  -7  125519   11668                                                      127180   -0.03   -0.05  1.0000
  -2  -8  -7  103634    9604                                                      105142   -0.03   -0.05  1.0000
  -2  -8  -8   10374    3788                                                        5629   -0.38    0.03  1.0000
  -2  -8  -8    7845    2444                                                        3811   -0.38    0.03  1.0000
  -2  -8  -9   26598    4039                                                       22745   -0.17    0.00  1.0000
   2  -9  -6   20674    4766                                                       23296   -0.12   -0.05  1.0000
   2  -9  -5   15273    3226                                                       13646    0.10   -0.31  1.0000
   2  -9  -4  357637   13604                                                      375308    0.20    0.08  1.0000
   2  -9  -4  287023   13501                                                      302872    0.20    0.08  1.0000
   2  -9  -3  133708    9673                                                      154899    0.39    0.07  1.0000
   2  -9  -3  132637   11280                                                      153745    0.39    0.07  1.0000
   2  -9  -2    4835    5599                                                       14490   -0.72    0.04  1.0000
   2  -9  -2     280    3883                                                        4397   -0.72    0.04  1.0000
  -2  -9   2     479    3035                                                        5087   -0.72    0.04  1.0000
   2  -9  -1  394144   15691                                                      391377    0.04   -0.08  1.0000
  -2  -9   1  375924   14854                                                      372431    0.04   -0.09  1.0000
   2  -9   0  146918   10086                                                      151742   -0.08   -0.06  1.0000
  -2  -9   0  124552    9911                                                      128679   -0.08   -0.04  1.0000
  -2  -9  -1      42    5416                                                       -5442    0.09   -0.03  1.0000
   2  -9   1   19387    4907                                                       21056    0.08    0.00  1.0000
  -2  -9  -2  428015   20424                                                      476580    0.50    0.10  1.0000
   2  -9   2  513162   16979                                                      566278    0.50    0.11  1.0000
  -2  -9  -3   25170    5335                                                       24708   -0.03    0.04  1.0000
  -2  -9  -4     541    5163                                                      -10911   -0.32    0.00  1.0000
  -2  -9  -5    9150    3224                                                        5446    0.30    0.05  1.0000
  -3   0  18      40    4269                                                       -3862   -0.09   -0.02  1.0000
  -3   0  17  264172   19181                                                      268091   -0.05   -0.04  1.0000
  -3   0  16  296698   23216                                                      292291    0.06   -0.06  1.0000
  -3   0  16  305997   26952                                                      301522    0.06   -0.06  1.0000
  -3   0  15  549776   40835                                                      629458   -0.73    0.08  1.0000
  -3   0  14   55245   13803                                                       42796   -0.39    0.00  1.0000
  -3   0  13  660422   47638                                                      804128    1.18   -0.02  1.0000
  -3   0  13  596214   39756                                                      733106    1.18   -0.02  1.0000
  -3   0  12  773844   51513                                                      996976    1.66   -0.02  1.0000
  -3   0  12  714370   42966                                                      929309    1.66   -0.02  1.0000
  -3   0  11  153103   37950                                                      232480   -1.27    0.02  1.0000
  -3   0  10  954812   66345                                                      922511    0.23    0.00  1.0000
  -3   0   9 2495957   90654                                                     2047551    2.08   -0.01  1.0000
  -3   0   8  854103   42651                                                      528171   -2.76   -0.02  1.0000
  -3   0   7 1513380   54134                                                     1067530   -2.75   -0.01  1.0000
  -3   0   6 4938119  145485                                                     9644323   12.35   -0.02  1.0000
  -3   0   513512600  157873                                                    14702567    2.21    0.02  1.0000
  -3   0   4 1373850   40331                                                     1227609   -0.90   -0.01  1.0000
  -3   0   3 2991425   52890                                                     2857134    0.55    0.05  1.0000
  -3   0   255893920  271067                                                    99999000  -35.27    0.02  1.0000
  -3   0   1 9356452  163467                                                    35584476   40.62   -0.03  1.0000
  -3   0   017644574  184702                                                    20062018    3.89   -0.02  1.0000
  -3   0   017913972  180789                                                    20349216    3.89   -0.02  1.0000
  -3   0  -1 6140592   48588                                                     1413987  -18.05    0.03  1.0000
  -3   0  -1 6149039   51193                                                     1418047  -18.05    0.03  1.0000
  -3   0  -2 7593351  153856                                                    13101281  -12.07    0.09  1.0000
  -3   0  -2 7618707  159521                                                    13134581  -12.07    0.09  1.0000
  -3   0  -310878294  156208                                                    11069100   -0.40   -0.05  1.0000
  -3   0  -4 5232230  100730                                                     3915175    4.32    0.05  1.0000
  -3   0  -5 8438455  181476                                                    10705203   -5.13    0.03  1.0000
  -3   0  -6    8353   11477                                                        8878    0.04    0.01  1.0000
  -3   0  -7 1256955   95055                                                     2127531    4.72    0.00  1.0000
   3   0   8 5855262   90076                                                     7223585    3.75    0.00  1.0000
  -3   0  -8 5761885  185957                                                     7119876    3.75    0.00  1.0000
   3   0   9 1622632   47371                                                     1748644    0.68    0.02  1.0000
   3   0  10   16113    9424                                                       18266   -3.48    0.02  1.0000
   3   0  10   15885    8966                                                       18570   -3.48    0.02  1.0000
   3   0  10   11936   10212                                                       24975   -3.48    0.02  1.0000
   3   0  10   62145    8859                                                        -175   -3.48    0.02  1.0000
   3   0  11  508984   39952                                                      572761   -0.61    0.00  1.0000
   3   0  11  490257   29077                                                      552884   -0.61    0.00  1.0000
   3   0  11  497569   37555                                                      560647   -0.61    0.00  1.0000
   3   0  11  554721   34059                                                      621218   -0.61    0.00  1.0000
   3   0  12   23285   10907                                                       35565    0.51   -0.01  1.0000
   3   0  12   30530   10550                                                       44406    0.51   -0.01  1.0000
   3   0  12   39219   13927                                                       54774    0.51   -0.01  1.0000
   3   0  12    7403   11302                                                       14887    0.51   -0.01  1.0000
   3   0  13  154119   19845                                                      136792   -0.32   -0.02  1.0000
   3   0  13  171697   18625                                                      153380   -0.32   -0.02  1.0000
   3   0  13  175412   17379                                                      156892   -0.32   -0.02  1.0000
   3   0  13  191005   22806                                                      171656   -0.32   -0.02  1.0000
   3   0  14  752938   40312                                                      706737   -0.38   -0.01  1.0000
   3   0  14  782733   35155                                                      735612   -0.38   -0.01  1.0000
   3   0  15  374308   26227                                                      364703   -0.11   -0.01  1.0000
   3   0  16    3970    5673                                                       -2766    0.88    0.00  1.0000
  -3  -1  18    1586    4373                                                        1038   -0.11   -0.03  1.0000
  -3  -1  17  127238   15439                                                      142527   -0.29   -0.10  1.0000
  -3  -1  16  800273   42268                                                      793727    0.05    0.01  1.0000
  -3   1  16  726377   32097                                                      720827    0.04    0.04  1.0000
  -3  -1  16  783755   38087                                                      777277    0.05    0.01  1.0000
  -3   1  16  779099   39589                                                      773351    0.04    0.04  1.0000
  -3   1  15  159846   18768                                                      123337    0.68    0.01  1.0000
  -3  -1  15  155183   18888                                                      118933    0.69   -0.03  1.0000
  -3   1  14    8363   10268                                                        4755   -0.31   -0.03  1.0000
  -3  -1  14    9046    9757                                                        5437   -0.31    0.02  1.0000
  -3  -1  14   11455   10950                                                        7341   -0.31    0.02  1.0000
  -3  -1  13  535405   35139                                                      420356   -1.16   -0.17  1.0000
  -3  -1  13  448345   28052                                                      343649   -1.16   -0.17  1.0000
  -3   1  13  444511   30871                                                      341986   -1.16    0.18  1.0000
  -3   1  12  372727   30472                                                      338507   -0.40   -0.15  1.0000
  -3   1  12  351724   46926                                                      318503   -0.40   -0.15  1.0000
  -3  -1  12  420439   28037                                                      386814   -0.38    0.16  1.0000
  -3  -1  12  411425   32614                                                      378168   -0.38    0.16  1.0000
  -3   1  11   61625   20105                                                       52010    0.28    0.07  1.0000
  -3   1  10 1836817   93283                                                     1793244    0.23   -0.11  1.0000
  -3   1   9 1215782   70046                                                     1198719    0.12   -0.23  1.0000
  -3   1   8  958660   61139                                                     1105970   -1.01    0.46  1.0000
  -3  -1   8  923831   66148                                                     1072940   -1.03   -0.48  1.0000
  -3  -1   7 2710901   87428                                                     2153261   -2.51    0.05  1.0000
  -3   1   7 2659105   75692                                                     2109361   -2.49    0.05  1.0000
  -3   1   611610587  170726                                                    13054882    2.83    1.15  1.0000
  -3  -1   612213373  199530                                                    13657976    2.82   -1.16  1.0000
  -3  -1   5 6005595   94176                                                     3612117   -7.74    0.89  1.0000
  -3   1   5 5926355   80534                                                     3531958   -7.76   -0.90  1.0000
  -3   1   4 1028035   47611                                                     1492457   -2.76   -1.69  1.0000
  -3  -1   4 1044157   53725                                                     1501996   -2.77    1.66  1.0000
  -3   1   317700448  140662                                                    14613568    5.59   -3.33  1.0000
  -3  -1   317341686  134844                                                    14225971    5.56    3.31  1.0000
  -3  -1   2  171129   13232                                                       75177    6.01   -2.37  1.0000
  -3  -1   2  170099    7098                                                       70112    6.01   -2.37  1.0000
  -3   1   2  151179   10954                                                       66343    5.95    2.31  1.0000
  -3  -1   1 3869995   81841                                                     3330830    1.99    0.15  1.0000
   3  -1   0 4323239   26211                                                     1767514  -10.51    0.43  1.0000
  -3  -1   0 4404352   60869                                                     1814794  -10.54    0.44  1.0000
  -3   1   0 4224183   50539                                                     1696695  -10.51   -0.43  1.0000
   3  -1   1 4796687   51683                                                     6052915    3.79   -0.64  1.0000
  -3  -1  -1 5001449  117298                                                     6273153    3.76   -0.72  1.0000
  -3  -1  -1 4813306  113468                                                     6062165    3.76   -0.72  1.0000
  -3   1  -1 4856704   95028                                                     6133615    3.79    0.64  1.0000
  -3   1  -2  131497   15332                                                      120673    4.79   -3.60  1.0000
  -3   1  -2  130666   12017                                                      117691    4.79   -3.60  1.0000
   3  -1   2  135893    9909                                                      138660    4.79    3.60  1.0000
  -3  -1  -2  134711   19617                                                      136854    4.81    3.62  1.0000
  -3  -1  -2  132106   20054                                                      128280    4.81    3.62  1.0000
  -3  -1  -313763319  159807                                                     9026898    9.87   -0.42  1.0000
  -3   1  -313418638  107132                                                     8734531    9.89    0.38  1.0000
   3  -1   313638775   83481                                                     8917829    9.89   -0.38  1.0000
   3  -1   418604622  127045                                                    16944846    2.76   -0.41  1.0000
  -3  -1  -419053522  240515                                                    17378942    2.75   -0.45  1.0000
  -3   1  -419018080  167197                                                    17329842    2.76    0.41  1.0000
  -3  -1  -5 2118877   95283                                                     2328419   -0.98    0.07  1.0000
   3  -1   5 2270849   53587                                                     2486328   -0.98    0.09  1.0000
  -3   1  -5 2151833   70332                                                     2362929   -0.98   -0.09  1.0000
   3  -1   6   99392   14411                                                      134494   -0.72   -0.09  1.0000
  -3  -1  -6   95034   25170                                                      129475   -0.72   -0.12  1.0000
  -3  -1  -7 2450677   98190                                                     1888063   -2.68   -0.04  1.0000
   3  -1   7 2642123   53088                                                     2055531   -2.68   -0.01  1.0000
  -3  -1  -8 3452066  125624                                                     2720675   -2.92    0.13  1.0000
   3  -1   8 3843221   66832                                                     3069422   -2.92    0.13  1.0000
   3  -1   9 1191734   45120                                                     1265759    0.47   -0.02  1.0000
  -3  -1  -9 1320619   93779                                                     1398977    0.47    0.01  1.0000
   3  -1  10   11806    9580                                                        9731    0.12    0.08  1.0000
   3   1  10   19677    9634                                                       19430    0.12   -0.06  1.0000
   3  -1  10   33575   11734                                                       30012    0.12    0.08  1.0000
   3  -1  10   25077    8549                                                       22011    0.12    0.08  1.0000
   3  -1  11  176596   14854                                                       96226    1.58   -0.10  1.0000
   3   1  11  182991   18220                                                       98948    1.58    0.11  1.0000
   3   1  11  203777   14767                                                      114385    1.58    0.11  1.0000
   3   1  11  204382   17730                                                      114839    1.58    0.11  1.0000
   3  -1  11  209196   19325                                                      120721    1.58   -0.10  1.0000
   3   1  11  210428   17091                                                      119383    1.58    0.11  1.0000
   3  -1  11  212915   20049                                                      123557    1.58   -0.10  1.0000
   3   1  12  195894   22266                                                      168964    0.44    0.08  1.0000
   3   1  12  197310   19984                                                      170279    0.44    0.08  1.0000
   3  -1  12  186131   21387                                                      160373    0.44   -0.10  1.0000
   3   1  12  152191   17291                                                      128571    0.44    0.08  1.0000
   3  -1  12  241279   22527                                                      211831    0.44   -0.10  1.0000
   3   1  12  195177   17082                                                      168298    0.44    0.08  1.0000
   3   1  13  410087   34894                                                      454469    0.47    0.10  1.0000
   3  -1  13  391245   34781                                                      433635    0.46   -0.05  1.0000
   3  -1  13  402951   33586                                                      445955    0.46   -0.05  1.0000
   3  -1  13  459815   30585                                                      505679    0.46   -0.05  1.0000
   3   1  14  672670   39672                                                      736872    0.54   -0.02  1.0000
   3  -1  14  726947   43379                                                      794252    0.54    0.03  1.0000
   3  -1  14  709620   40176                                                      776135    0.54    0.03  1.0000
   3  -1  14  708326   35587                                                      774782    0.54    0.03  1.0000
   3   1  15  225218   19300                                                      207857   -0.26    0.05  1.0000
   3  -1  15  239384   20931                                                      221216   -0.26   -0.07  1.0000
   3  -1  15  216457   17074                                                      199198   -0.26   -0.07  1.0000
   3   1  16   21478    7184                                                       30114   -0.38    0.04  1.0000
   3  -1  16   14995    7457                                                       22415   -0.38   -0.02  1.0000
  -3  -2  18    2373    3880                                                        2393    0.17    0.31  1.0000
  -3  -2  17   80533   12270                                                       83009   -0.06   -0.04  1.0000
  -3  -2  16  289766   24555                                                      291296   -0.02    0.07  1.0000
  -3  -2  16  279970   24658                                                      281473   -0.02    0.07  1.0000
  -3  -2  15  290310   29123                                                      335116   -0.56    0.02  1.0000
  -3  -2  15  258172   24660                                                      300516   -0.56    0.02  1.0000
  -3  -2  14   10884   10397                                                        1816    0.94   -0.31  1.0000
  -3   2  14   13131    8066                                                        5108    0.96    0.28  1.0000
  -3  -2  14    5013   10745                                                       -4336    0.94   -0.31  1.0000
  -3  -2  13  466786   33291                                                      532136    0.64    0.08  1.0000
  -3   2  13  528246   38502                                                      596361    0.64   -0.15  1.0000
  -3  -2  13  533324   41315                                                      603031    0.64    0.08  1.0000
  -3   2  12   87576   17772                                                      111150    0.51    0.16  1.0000
  -3  -2  12   77500   18671                                                       99305    0.53   -0.12  1.0000
  -3  -2  12   64125   14687                                                       84068    0.53   -0.12  1.0000
  -3  -2  11   50427   10641                                                       39500   -0.36   -0.03  1.0000
  -3   2  11   58574   20570                                                       46604   -0.37    0.01  1.0000
  -3  -2  11   57991   11534                                                       46225   -0.36   -0.03  1.0000
  -3   2  10 1883735  100442                                                     1974422   -0.44   -0.37  1.0000
  -3   2   9 5628794  155574                                                     5532590    0.28    0.20  1.0000
  -3   2   8  711421   56369                                                      849599   -1.09    0.04  1.0000
  -3   2   7 3882656  110567                                                     3986234    0.36    0.01  1.0000
  -3   2   610972956  180962                                                    12949283    3.99    0.21  1.0000
  -3   2   5   55514   25748                                                      282965    4.14    0.22  1.0000
  -3  -2   5   46940   25610                                                      261515    4.15   -0.19  1.0000
  -3  -2   4 1689207   62480                                                     1792604   -0.52   -0.70  1.0000
  -3   2   4 1714611   58859                                                     1810404   -0.50    0.58  1.0000
  -3   2   3 4117153  104196                                                     5975726   -5.82    1.14  1.0000
  -3  -2   3 4017843  109897                                                     5868627   -5.80   -1.06  1.0000
  -3  -2   2 1612610   66158                                                     2186940   -2.91   -0.24  1.0000
  -3   2   2 1681959   64592                                                     2258560   -2.89    0.32  1.0000
  -3  -2   1   11802   13488                                                       48232    1.18   -1.05  1.0000
  -3  -2   1   10900   11702                                                       46375    1.18   -1.05  1.0000
  -3  -2   0 1706117   67252                                                     2042101    1.72   -0.07  1.0000
  -3  -2   0 1734625   75192                                                     2073281    1.72   -0.07  1.0000
  -3   2   0 1688923   52428                                                     2021322    1.70    0.16  1.0000
  -3  -2  -1 1258538   57563                                                     1338088    0.50   -0.28  1.0000
  -3  -2  -1 1209751   61780                                                     1287758    0.50   -0.28  1.0000
  -3   2  -1 1258037   40918                                                     1344738    0.51    0.28  1.0000
  -3  -2  -2 2674650   60469                                                     1095840   -8.22   -0.48  1.0000
  -3   2  -2 2602462   35497                                                     1056540   -8.23    0.51  1.0000
  -3  -2  -3 3821717  123440                                                     4142283   -1.11   -0.35  1.0000
  -3  -2  -417891638  291075                                                    20463614   -4.10   -0.14  1.0000
   3  -2   417758570  159953                                                    20316416   -4.10   -0.13  1.0000
  -3  -2  -5 9828223  228673                                                    11204398   -2.97   -0.13  1.0000
   3  -2   5 8742112  126189                                                    10040609   -2.96   -0.09  1.0000
   3  -2   6   78288   10032                                                       26465   -1.67    0.17  1.0000
  -3  -2  -6   76306   16838                                                       25501   -1.68    0.24  1.0000
   3  -2   7 5023815  112175                                                     6055755    3.07    0.10  1.0000
  -3  -2  -7 4778767  186521                                                     5790088    3.08    0.11  1.0000
   3  -2   8 1259709   66268                                                     2001842    4.09   -0.04  1.0000
  -3  -2  -8 1089402  109489                                                     1783994    4.08   -0.03  1.0000
  -3  -2  -9  727667   69425                                                      651263   -0.64   -0.10  1.0000
   3  -2   9  796410   41654                                                      716104   -0.64   -0.10  1.0000
   3  -2   9  842683   42363                                                      760016   -0.64   -0.10  1.0000
   3   2   9  760200   40351                                                      682459   -0.64    0.10  1.0000
   3  -2  10  151201   29174                                                      323268   -2.52    0.01  1.0000
   3   2  10  157160   29444                                                      331170   -2.50   -0.04  1.0000
  -3  -2 -10  189097   55709                                                      376559   -2.50    0.04  1.0000
   3  -2  10  195525   32166                                                      386782   -2.52    0.01  1.0000
   3   2  11  257307   24690                                                      228313    0.41    0.00  1.0000
   3  -2  11  175768   22057                                                      151701    0.42   -0.01  1.0000
   3   2  12    4263    9107                                                        6662   -1.35   -0.12  1.0000
   3  -2  12   10155   12514                                                       30715   -1.34    0.10  1.0000
   3  -2  12    9298   12707                                                       29024   -1.34    0.10  1.0000
   3   2  12    9732    8251                                                       21603   -1.35   -0.12  1.0000
   3   2  13  211265   21407                                                      198961   -0.19    0.00  1.0000
   3  -2  13  239237   24396                                                      225954   -0.19    0.03  1.0000
   3  -2  13  209432   22774                                                      197015   -0.19    0.03  1.0000
   3  -2  13  231718   20360                                                      218648   -0.19    0.03  1.0000
   3  -2  14  314199   26213                                                      306486   -0.10   -0.03  1.0000
   3   2  14  347645   25199                                                      339775   -0.10    0.03  1.0000
   3  -2  14  316483   26007                                                      308742   -0.10   -0.03  1.0000
   3  -2  14  323802   22920                                                      315971   -0.10   -0.03  1.0000
   3   2  15  117118   11794                                                      102801   -0.30    0.02  1.0000
   3  -2  15  110412   12615                                                       96732   -0.30    0.00  1.0000
   3  -2  15   92648   12728                                                       80154   -0.30    0.00  1.0000
   3  -2  16   43893    7604                                                       43004   -0.03   -0.05  1.0000
  -3  -3  17  111209   12447                                                      119279   -0.17    0.00  1.0000
  -3  -3  16   59424   11153                                                       58255    0.04   -0.05  1.0000
  -3  -3  15   82278   14192                                                       76950    0.13    0.06  1.0000
  -3  -3  15   77594   12759                                                       72422    0.13    0.06  1.0000
  -3  -3  14     181    8811                                                       -1390    0.17    0.08  1.0000
  -3  -3  14     181    9391                                                       -2252    0.17    0.08  1.0000
  -3  -3  14     181   11135                                                       -2993    0.17    0.08  1.0000
  -3  -3  13    1591   10210                                                       -1714   -0.54    0.14  1.0000
  -3  -3  13    1591    9744                                                      -11043   -0.54    0.14  1.0000
  -3  -3  12 1809065   64950                                                     1671935   -0.73    0.08  1.0000
  -3  -3  12 1672090   50042                                                     1540356   -0.73    0.08  1.0000
   3  -3 -12 1821631   47838                                                     1686975   -0.71    0.02  1.0000
  -3  -3  11  162169   19494                                                      159738    0.05    0.24  1.0000
  -3   3  11  249046   39918                                                      245409    0.06   -0.24  1.0000
   3  -3 -11  166185   42271                                                      162720    0.06    0.24  1.0000
  -3  -3  11  177677   18007                                                      175145    0.05    0.24  1.0000
   3  -3 -11  179478   16487                                                      175887    0.06    0.24  1.0000
   3  -3 -10 2082159  125508                                                     1903193    0.89   -0.03  1.0000
   3  -3 -10 2030851   50942                                                     1854153    0.89   -0.03  1.0000
  -3   3  10 2182761  103846                                                     1999042    0.89    0.03  1.0000
  -3  -3  10 2131928   66926                                                     1951642    0.88   -0.04  1.0000
  -3   3   9 2799202  108902                                                     2584087    0.92    0.00  1.0000
  -3   3   8   18890   14165                                                       30232   -0.46   -0.27  1.0000
  -3   3   7 2465435   87853                                                     2287249   -0.81   -0.05  1.0000
  -3   3   6 2210506   75296                                                     1931302   -1.35   -0.08  1.0000
  -3  -3   5 4118764   90116                                                     3303610   -2.96   -0.08  1.0000
  -3   3   5 4136066   92521                                                     3323390   -2.95    0.07  1.0000
  -3   3   4  477426   34019                                                      466708    0.11    0.28  1.0000
  -3  -3   4  490945   33644                                                      479882    0.13   -0.31  1.0000
  -3   3   3 1726496   49753                                                     1029971    4.23   -0.48  1.0000
  -3  -3   3 1599188   44919                                                      922206    4.24    0.49  1.0000
  -3  -3   2 1977798   54491                                                     1366008    3.32    0.12  1.0000
  -3  -3   2 2082400   66524                                                     1453167    3.32    0.12  1.0000
  -3   3   2 2099512   60400                                                     1474367    3.29   -0.18  1.0000
  -3  -3   1  670070   37527                                                      419632   -2.39    0.19  1.0000
  -3  -3   1  704833   32537                                                      447240   -2.39    0.19  1.0000
  -3  -3   0 3025726   95159                                                     2584727   -1.85    0.16  1.0000
  -3  -3  -1 7950882  183418                                                     9003348    2.53   -0.03  1.0000
  -3  -3  -2   51634   10337                                                        6242    4.27    0.06  1.0000
  -3  -3  -3  980955   50091                                                      512583    3.86   -0.24  1.0000
  -3  -3  -4 6136866  169421                                                     5581260    1.61   -0.06  1.0000
  -3  -3  -5 5587321  172861                                                     5232733    1.07   -0.10  1.0000
  -3  -3  -6   96730   20228                                                       49432    1.27   -0.33  1.0000
  -3  -3  -7 2170709  122350                                                     2074091   -0.47    0.07  1.0000
   3  -3   8 6444677  117942                                                     5902617   -1.53    0.02  1.0000
  -3  -3  -8 6572485  217162                                                     6024166   -1.53    0.08  1.0000
   3  -3   8 6414979   97099                                                     5874197   -1.53    0.02  1.0000
   3  -3   9  138886   21911                                                      162809   -0.43    0.08  1.0000
  -3  -3  -9  153566   40308                                                      178329   -0.42    0.06  1.0000
   3  -3   9  136212   18491                                                      159913   -0.43    0.08  1.0000
   3  -3  10   58070   10013                                                       22634    1.27    0.08  1.0000
   3   3  10   59624   10436                                                       24060    1.27   -0.04  1.0000
  -3  -3 -11   84108   11211                                                       61882    0.61   -0.13  1.0000
   3  -3  11   89152   14574                                                       66158    0.61   -0.13  1.0000
   3  -3  11   82496   15431                                                       60432    0.61   -0.13  1.0000
   3  -3  12   42578   12430                                                       44497    0.07    0.30  1.0000
   3  -3  12   20438   11765                                                       21629    0.07    0.30  1.0000
   3  -3  13   28987   10792                                                       36110    0.28   -0.01  1.0000
   3  -3  13    8342    9729                                                       12343    0.28   -0.01  1.0000
   3  -3  13   39272   12677                                                       47499    0.28   -0.01  1.0000
   3  -3  14  164960   17712                                                      177594    0.22   -0.03  1.0000
   3  -3  14  176628   16761                                                      189693    0.22   -0.03  1.0000
   3  -3  15  371234   20879                                                      407762    0.41    0.05  1.0000
   3  -3  15  345482   19086                                                      380751    0.41    0.05  1.0000
  -3  -4  17   37835    3990                                                       23446    0.58    0.04  1.0000
  -3  -4  16  287482   19318                                                      326384   -0.49    0.01  1.0000
  -3  -4  15   87054   13441                                                       99592   -0.29    0.01  1.0000
  -3  -4  14   48585   10116                                                       35535   -0.46    0.12  1.0000
   3  -4 -13  762809   32081                                                      780790    0.14    0.04  1.0000
  -3  -4  13  746448   40387                                                      761720    0.12    0.09  1.0000
  -3  -4  12   53972    8949                                                       23169    1.36   -0.99  1.0000
   3  -4 -12   53976    7856                                                       23469    1.19   -0.74  1.0000
  -3  -4  11    6599    8450                                                       11970   -0.40    0.07  1.0000
   3  -4 -11     968    5725                                                        3133   -0.35    0.00  1.0000
   3  -4 -10  503853   31563                                                      616047   -1.05    0.08  1.0000
  -3  -4  10  446641   35986                                                      554019   -1.07    0.10  1.0000
   3  -4  -9 1096014   41649                                                     1097180   -0.01   -0.03  1.0000
   3  -4  -9  859893   88650                                                      860926   -0.01   -0.03  1.0000
  -3  -4   9  954095   45620                                                      954242    0.00   -0.02  1.0000
  -3   4   9  984370   69635                                                      985131   -0.01    0.03  1.0000
   3  -4  -8  288629   21848                                                      305123   -0.21   -0.04  1.0000
   3  -4  -8  254173   47385                                                      269666   -0.21   -0.04  1.0000
  -3   4   8  273308   36478                                                      289209   -0.21    0.04  1.0000
   3  -4  -7  433920   57976                                                      437236    0.03    0.03  1.0000
  -3   4   7  438174   41724                                                      441257    0.03   -0.03  1.0000
   3  -4  -6 5046402  188879                                                     5482231    1.33   -0.07  1.0000
  -3   4   6 5118546  139267                                                     5558600    1.33    0.07  1.0000
   3  -4  -5 1285785   90851                                                     1446817    0.96    0.09  1.0000
  -3   4   5 1211299   66249                                                     1366808    0.96   -0.09  1.0000
   3  -4  -4   75652   21769                                                       76142    0.00    0.53  1.0000
  -3   4   4   93457   18095                                                       96366    0.00   -0.53  1.0000
  -3   4   3 2054428   87081                                                     2436088   -1.78   -0.14  1.0000
  -3   4   2 1720462   79470                                                     1922083   -1.04   -0.06  1.0000
  -3   4   1  173195   22884                                                      142278   -0.58   -0.47  1.0000
  -3  -4   1  211597   27596                                                      175646   -0.61    0.53  1.0000
  -3  -4   0 5745555  158538                                                     5810718    0.19   -0.26  1.0000
  -3  -4  -1 3080858  119612                                                     3026343   -0.23    0.19  1.0000
  -3  -4  -2 1075383   61796                                                      735276   -2.53    0.30  1.0000
  -3  -4  -3 3086157  144671                                                     3715306   -2.39    0.37  1.0000
  -3  -4  -4 4318312  179767                                                     5128204   -2.60   -0.11  1.0000
  -3  -4  -5 1140484   98758                                                     1396917   -1.60    0.18  1.0000
  -3  -4  -6   41710   25537                                                       62886    0.65    0.08  1.0000
   3  -4   7 1044823   53814                                                     1263659    1.42    0.07  1.0000
  -3  -4  -7 1117938  105047                                                     1344308    1.42    0.09  1.0000
   3  -4   7 1042514   45141                                                     1261119    1.42    0.07  1.0000
   3  -4   8  238440   25912                                                      255538    0.24    0.04  1.0000
   3  -4   8  244787   22681                                                      262107    0.24    0.04  1.0000
   3  -4   9 1668615   52896                                                     1497756   -0.95   -0.07  1.0000
   3  -4   9 1717053   61627                                                     1543666   -0.95   -0.07  1.0000
  -3  -4 -10   65779   13487                                                       70026   -0.11   -0.06  1.0000
   3  -4  10   59634   14928                                                       63089   -0.10   -0.01  1.0000
   3  -4  11  429710   31722                                                      410554    0.22   -0.16  1.0000
  -3  -4 -11  462115   27811                                                      442397    0.22   -0.18  1.0000
  -3  -4 -12  118027   14050                                                      130376   -0.24   -0.14  1.0000
   3  -4  12  129003   19109                                                      141979   -0.23   -0.17  1.0000
   3  -4  13  241811   21357                                                      235894   -0.08   -0.10  1.0000
   3  -4  13  297948   20144                                                      291381   -0.08   -0.10  1.0000
   3  -4  14  526386   23747                                                      565376    0.37   -0.02  1.0000
   3  -4  15   52722    6556                                                       34596   -0.62    0.05  1.0000
  -3  -5  16  157850    8483                                                      130075    0.51   -0.03  1.0000
  -3  -5  15   24131    5040                                                       17489    0.33   -0.12  1.0000
  -3  -5  14   25511    7220                                                       22776   -0.12   -0.02  1.0000
   3  -5 -14   20324    5401                                                       17828   -0.13    0.00  1.0000
   3  -5 -13  139124   13099                                                      130482   -0.17    0.06  1.0000
  -3  -5  13  141033   15681                                                      131741   -0.18    0.09  1.0000
  -3  -5  12  108607   15195                                                      100918   -0.18    0.20  1.0000
   3  -5 -12  116793   13444                                                      109681   -0.16    0.18  1.0000
   3  -5 -11  146988   16202                                                      152975   -0.11    0.13  1.0000
  -3  -5  11  141478   18051                                                      147615   -0.11    0.16  1.0000
   3  -5 -10  578637   31065                                                      574860    0.04   -0.01  1.0000
  -3  -5  10  547635   33935                                                      544112    0.03    0.02  1.0000
   3  -5  -9  260928   20139                                                      219331    0.59    0.01  1.0000
   3  -5  -8  125066   13724                                                       97197    0.59   -0.12  1.0000
   3  -5  -7  173781   16956                                                      161040   -0.21   -0.08  1.0000
  -3   5   7  188131   28850                                                      175479   -0.21    0.08  1.0000
   3  -5  -6 1385908   46054                                                     1344158   -0.25    0.03  1.0000
  -3   5   6 1395438   76725                                                     1353098   -0.25   -0.03  1.0000
  -3   5   5 1947682   86390                                                     1822714   -0.64    0.04  1.0000
  -3   5   4   10683    8573                                                        8908    0.11    0.15  1.0000
  -3   5   3 2930168  105254                                                     2775075    0.63    0.39  1.0000
  -3   5   2 1107740   63440                                                      941300    1.15    0.12  1.0000
  -3   5   1  103155   18016                                                       72888    0.72    0.15  1.0000
  -3  -5   0 2477578  112056                                                     2471748   -0.03   -0.01  1.0000
  -3   5   0 2519961  106477                                                     2508637   -0.05    0.01  1.0000
  -3  -5  -1 2836780  126069                                                     2818795   -0.07   -0.15  1.0000
  -3  -5  -2    2810   12130                                                       14465    2.29   -0.13  1.0000
  -3  -5  -3 2036410  107611                                                     1755184    1.43   -0.02  1.0000
   3  -5   4 2838877   46005                                                     2484578    1.52    0.11  1.0000
   3  -5   4 2878268   57505                                                     2521437    1.52    0.11  1.0000
   3  -5   4 2872498   60541                                                     2516037    1.52    0.11  1.0000
   3  -5   5  650092   22077                                                      546905    0.93    0.07  1.0000
   3  -5   5  666155   27134                                                      561646    0.93    0.07  1.0000
  -3  -5  -5  688465   68466                                                      581299    0.94    0.04  1.0000
   3  -5   5  621275   28776                                                      520500    0.93    0.07  1.0000
   3  -5   6  108216   13945                                                      113100   -0.10    0.05  1.0000
   3  -5   6   83037   13506                                                       87321   -0.10    0.05  1.0000
   3  -5   7  238740   19359                                                      156232   -1.32    0.03  1.0000
   3  -5   7  252130   18144                                                      167102   -1.32    0.03  1.0000
  -3  -5  -8  963266   44221                                                      942046   -0.15    0.03  1.0000
   3  -5   8 1001314   42611                                                      979934   -0.15    0.00  1.0000
   3  -5   8  970817   45353                                                      949767   -0.15    0.00  1.0000
  -3  -5  -9  164826   20380                                                      185404    0.35   -0.08  1.0000
   3  -5   9  119945   18393                                                      137729    0.35   -0.08  1.0000
   3  -5   9  152431   19452                                                      172405    0.35   -0.08  1.0000
  -3  -5 -10   25150    7805                                                       20118    0.24    0.00  1.0000
   3  -5  10   15835    8487                                                       11900    0.24    0.01  1.0000
  -3  -5 -11  227310   19596                                                      252791   -0.36   -0.01  1.0000
   3  -5  11  194180   20422                                                      218350   -0.37   -0.03  1.0000
  -3  -5 -12  164678   14023                                                      176462   -0.20    0.07  1.0000
  -3  -5 -13  120811    8741                                                      121896    0.02    0.09  1.0000
   3  -5  13  148827   13222                                                      150108    0.02    0.12  1.0000
   3  -5  14  279347   13445                                                      268488   -0.15    0.01  1.0000
  -3  -6  14    4481    4129                                                        3649   -0.10    0.04  1.0000
  -3  -6  13   47208    9388                                                       56949    0.30    0.04  1.0000
  -3  -6  12  163406   17965                                                      185430    0.37   -0.01  1.0000
   3  -6 -12  142284   14194                                                      162668    0.37   -0.01  1.0000
   3  -6 -12  171063   15034                                                      193347    0.37   -0.01  1.0000
   3  -6 -11   12638    5987                                                        8244    0.30    0.02  1.0000
  -3  -6  11     468    9203                                                       -3454    0.30    0.00  1.0000
   3  -6 -11   19517    7489                                                       13943    0.30    0.02  1.0000
   3  -6 -10  278806   21365                                                      293936   -0.19   -0.07  1.0000
   3  -6 -10  251419   25100                                                      265797   -0.19   -0.07  1.0000
  -3  -6  10  257277   24674                                                      271878   -0.20   -0.05  1.0000
   3  -6  -9  740790   35923                                                      812871   -0.57   -0.04  1.0000
  -3  -6   9  767995   42092                                                      842532   -0.58   -0.05  1.0000
   3  -6  -8   37056    7212                                                       13368   -1.07    0.13  1.0000
   3  -6  -8    5987    9855                                                       -1063   -1.07    0.13  1.0000
  -3  -6   8   30636    8006                                                        9744   -1.07    0.08  1.0000
   3  -6  -7  546477   31645                                                      582290    0.34   -0.09  1.0000
   3  -6  -7  566054   41421                                                      602494    0.34   -0.09  1.0000
  -3  -6   7  507341   33756                                                      542806    0.35   -0.13  1.0000
   3  -6  -6  665384   35057                                                      736013    0.59    0.09  1.0000
  -3  -6   6  681552   39178                                                      755045    0.60    0.05  1.0000
   3  -6  -6  725426   46405                                                      799096    0.59    0.09  1.0000
   3  -6  -5  495366   28704                                                      506385    0.11   -0.01  1.0000
   3  -6  -5  489699   35399                                                      500655    0.11   -0.01  1.0000
  -3  -6   5  509979   32155                                                      521383    0.11   -0.01  1.0000
   3  -6  -4   13165    7469                                                       21178   -0.43    0.01  1.0000
   3  -6  -4   16178   10127                                                       24959   -0.43    0.01  1.0000
  -3  -6   4   19533    9264                                                       29010   -0.43    0.03  1.0000
   3  -6  -3  294998   22363                                                      355850   -0.75    0.02  1.0000
  -3   6   3  340728   44273                                                      406154   -0.75   -0.02  1.0000
   3  -6  -3  343281   29061                                                      408702   -0.75    0.02  1.0000
  -3  -6   3  303808   25500                                                      365996   -0.75    0.02  1.0000
  -3   6   2 3287516  129300                                                     3429079   -0.54   -0.01  1.0000
  -3  -6   2 3143172   73226                                                     3281850   -0.54    0.01  1.0000
   3  -6  -2 3182212   78106                                                     3321420   -0.54    0.01  1.0000
   3  -6  -2 3128461   73528                                                     3266501   -0.54    0.01  1.0000
   3  -6  -1  178513   12991                                                      145366   -0.58   -0.08  1.0000
  -3  -6   1  200898   17121                                                      165212   -0.58   -0.09  1.0000
   3  -6  -1  201278   17875                                                      165978   -0.58   -0.08  1.0000
  -3   6   1  162619   27269                                                      131048   -0.58    0.08  1.0000
   3  -6  -1  178079   15879                                                      144974   -0.58   -0.08  1.0000
  -3   6   0  481850   48065                                                      449327   -0.34    0.11  1.0000
   3  -6   0  476589   27962                                                      443087   -0.34   -0.11  1.0000
   3  -6   0  467752   25921                                                      434568   -0.34   -0.11  1.0000
   3  -6   0  480412   22212                                                      446774   -0.34   -0.11  1.0000
   3  -6   1  638468   25011                                                      583504   -0.49   -0.09  1.0000
  -3   6  -1  620480   55637                                                      567515   -0.49    0.09  1.0000
   3  -6   1  667189   30011                                                      610974   -0.49   -0.09  1.0000
   3  -6   1  649079   30457                                                      593650   -0.49   -0.09  1.0000
   3  -6   2    9541    8010                                                       21928   -0.71    0.00  1.0000
   3  -6   2   10465    6519                                                       23319   -0.71    0.00  1.0000
   3  -6   2    9039    8044                                                       21161   -0.71    0.00  1.0000
   3  -6   2     179    5847                                                        3933   -0.71    0.00  1.0000
   3  -6   3  525782   25822                                                      667084   -1.28   -0.04  1.0000
   3  -6   3  512525   31492                                                      652141   -1.28   -0.04  1.0000
   3  -6   3  529896   32446                                                      671717   -1.28   -0.04  1.0000
   3  -6   4 1561828   41630                                                     1793144   -1.25   -0.01  1.0000
   3  -6   4 1572113   51251                                                     1804164   -1.25   -0.01  1.0000
   3  -6   4 1564478   53603                                                     1795984   -1.25   -0.01  1.0000
  -3  -6  -5 2110185   67965                                                     2233840   -0.59    0.03  1.0000
   3  -6   5 2127393   46476                                                     2249840   -0.58    0.04  1.0000
   3  -6   5 2218358   61870                                                     2343359   -0.58    0.04  1.0000
   3  -6   5 2222464   58044                                                     2347579   -0.58    0.04  1.0000
   3  -6   6    2027    7821                                                       -5900    0.27   -0.57  1.0000
  -3  -6  -6    2769    8545                                                        7794    0.27   -0.57  1.0000
  -3  -6  -7  454441   31609                                                      497046    0.43    0.07  1.0000
   3  -6   7  460442   30176                                                      502906    0.43    0.05  1.0000
  -3  -6  -8  751054   37388                                                      776708    0.20    0.05  1.0000
   3  -6   8  773192   37511                                                      798955    0.20    0.02  1.0000
  -3  -6  -9    4385    6418                                                        3223   -0.18    0.12  1.0000
  -3  -6 -10   61491    9942                                                       52682    0.25    0.07  1.0000
  -3  -6 -11  196081   14881                                                      211323   -0.24    0.02  1.0000
  -3  -6 -12   24548    5036                                                       26312    0.08    0.07  1.0000
   3  -6  12   42310    8238                                                       44504    0.08    0.14  1.0000
  -3  -7  13   40582    4177                                                       28232   -0.47    0.00  1.0000
  -3  -7  12   47285    7366                                                       47084    0.00   -0.08  1.0000
   3  -7 -12   30457    5302                                                       30047   -0.01   -0.07  1.0000
  -3  -7  11   14813    6268                                                       12722   -0.12    0.00  1.0000
   3  -7 -10  147903   12950                                                      148099   -0.01    0.05  1.0000
   3  -7 -10  147720   13232                                                      147915   -0.01    0.05  1.0000
  -3  -7  10  153610   16478                                                      154196   -0.01    0.03  1.0000
   3  -7  -9  113283   11519                                                       90866    0.49    0.01  1.0000
   3  -7  -9  113445   13014                                                       91011    0.49    0.01  1.0000
  -3  -7   9  126961   15009                                                      103033    0.49    0.03  1.0000
   3  -7  -8   67949    9577                                                       49027    0.55    0.07  1.0000
   3  -7  -8   34077    9188                                                       21123    0.55    0.07  1.0000
  -3  -7   8   77524   12320                                                       57732    0.53    0.08  1.0000
   3  -7  -7  550730   28467                                                      560063    0.09   -0.02  1.0000
   3  -7  -7  569285   21990                                                      578774    0.09   -0.02  1.0000
   3  -7  -7  601309   36992                                                      611059    0.09   -0.02  1.0000
  -3  -7   7  637331   34505                                                      646691    0.08    0.01  1.0000
   3  -7  -6 1395752   44028                                                     1352268   -0.26   -0.05  1.0000
   3  -7  -6 1309863   34713                                                     1267749   -0.26   -0.05  1.0000
  -3  -7   6 1432503   49488                                                     1387977   -0.26   -0.04  1.0000
   3  -7  -6 1448380   56077                                                     1404077   -0.26   -0.05  1.0000
   3  -7  -5  202976   17103                                                      183788   -0.30   -0.07  1.0000
   3  -7  -5  241649   23392                                                      220671   -0.30   -0.07  1.0000
   3  -7  -5  187798   13659                                                      169359   -0.30   -0.07  1.0000
  -3  -7   5  212818   18975                                                      193661   -0.29   -0.08  1.0000
   3  -7  -5  209635   19644                                                      190127   -0.30   -0.07  1.0000
   3  -7  -4   85090   11224                                                       79293    0.14    0.05  1.0000
   3  -7  -4   95920   10651                                                       89760    0.14    0.05  1.0000
  -3  -7   4  119390   14896                                                      112867    0.13    0.11  1.0000
   3  -7  -4  100023   14012                                                       93730    0.14    0.05  1.0000
   3  -7  -4  128239   17595                                                      121101    0.14    0.05  1.0000
   3  -7  -3  706024   26951                                                      631375    0.64    0.07  1.0000
  -3  -7   3  699963   32213                                                      626753    0.63    0.09  1.0000
   3  -7  -3  726696   32896                                                      650932    0.64    0.07  1.0000
   3  -7  -3  808631   37710                                                      728596    0.64    0.07  1.0000
   3  -7  -2   80466   11489                                                      104250    0.56    0.29  1.0000
   3  -7  -2   71443   12781                                                       93913    0.56    0.29  1.0000
   3  -7  -1  342860   18773                                                      304595    0.47   -0.04  1.0000
   3  -7  -1  354235   22091                                                      315322    0.47   -0.04  1.0000
   3  -7  -1  348997   21657                                                      310381    0.47   -0.04  1.0000
  -3  -7   1  353539   18992                                                      315603    0.46    0.04  1.0000
   3  -7   0   53168   10479                                                       64335    0.33   -0.02  1.0000
   3  -7   0   67070   10070                                                       79549    0.33   -0.02  1.0000
   3  -7   0   59135   10957                                                       70884    0.33   -0.02  1.0000
   3  -7   0   64266   11803                                                       76492    0.33   -0.02  1.0000
  -3  -7   0   64049    9808                                                       75782    0.31   -0.01  1.0000
   3  -7   1  353540   20443                                                      388161    0.40   -0.03  1.0000
  -3  -7  -1  331333   21691                                                      365006    0.40    0.03  1.0000
   3  -7   1  330988   23208                                                      364513    0.40   -0.03  1.0000
   3  -7   1  323106   23496                                                      356238    0.40   -0.03  1.0000
  -3  -7  -2  238228   22650                                                      261480    0.32    0.04  1.0000
   3  -7   2  264473   17568                                                      289047    0.33   -0.01  1.0000
  -3  -7  -2  228731   18645                                                      251526    0.32    0.04  1.0000
   3  -7   2  260092   20590                                                      284466    0.33   -0.01  1.0000
   3  -7   2  243906   19907                                                      267527    0.33   -0.01  1.0000
  -3  -7  -3  350319   25033                                                      290805    0.74   -0.03  1.0000
   3  -7   3  398523   18511                                                      334246    0.74    0.04  1.0000
  -3  -7  -3  330320   20218                                                      272610    0.74   -0.03  1.0000
   3  -7   3  356365   21363                                                      295736    0.74    0.04  1.0000
   3  -7   3  372798   21405                                                      310723    0.74    0.04  1.0000
  -3  -7  -4 1902373   58446                                                     1748414    0.80    0.02  1.0000
   3  -7   4 1985797   41493                                                     1827614    0.80    0.00  1.0000
   3  -7   4 2085625   51484                                                     1923433    0.80    0.00  1.0000
   3  -7   4 1947857   51112                                                     1791224    0.80    0.00  1.0000
  -3  -7  -5  416405   27093                                                      378978    0.41    0.15  1.0000
   3  -7   5  386120   23295                                                      350281    0.41    0.17  1.0000
  -3  -7  -6      54    6622                                                       -2491   -0.08   -0.06  1.0000
   3  -7   6    5512    6541                                                        6455   -0.08   -0.09  1.0000
  -3  -7  -7  560659   28629                                                      544715   -0.15    0.03  1.0000
   3  -7   7  549271   27362                                                      533048   -0.16    0.02  1.0000
  -3  -7  -8  266794   19143                                                      277299    0.14    0.03  1.0000
  -3  -7  -9   36868    6927                                                       31809   -0.19   -0.04  1.0000
  -3  -7  -9    6631    3203                                                        4590   -0.19   -0.04  1.0000
  -3  -7 -10   47149    6755                                                       46574    0.03   -0.08  1.0000
  -3  -7 -11    6959    2055                                                        1851    0.65   -0.02  1.0000
   3  -8 -10   40080    4629                                                       33204    0.26   -0.03  1.0000
   3  -8  -9  129467   11395                                                      152217   -0.42    0.01  1.0000
   3  -8  -8    1257    4953                                                       -6773   -0.50   -0.02  1.0000
   3  -8  -8    1257    4448                                                       -4081   -0.50   -0.02  1.0000
   3  -8  -7  158949    8823                                                      166641    0.13    0.06  1.0000
   3  -8  -7  159741   14608                                                      167452    0.13    0.06  1.0000
   3  -8  -6  461941   17241                                                      495331    0.34    0.00  1.0000
   3  -8  -6  477223   25793                                                      511151    0.34    0.00  1.0000
   3  -8  -5  107346    9117                                                      104953   -0.05    0.03  1.0000
   3  -8  -5  120977   13048                                                      118436   -0.05    0.03  1.0000
   3  -8  -5   74622   11950                                                       72628   -0.05    0.03  1.0000
   3  -8  -5  103503   11758                                                      101153   -0.05    0.03  1.0000
   3  -8  -4      40    5536                                                       -3565    0.09    0.03  1.0000
   3  -8  -4    1122    4606                                                         737    0.09    0.03  1.0000
   3  -8  -4      40    4292                                                       -1990    0.09    0.03  1.0000
   3  -8  -4      40    8024                                                       -4889    0.09    0.03  1.0000
   3  -8  -3  147319   12369                                                      166953   -0.35   -0.02  1.0000
  -3  -8   3  117314   10004                                                      135036   -0.35    0.00  1.0000
   3  -8  -3  129238   15853                                                      147667   -0.35   -0.02  1.0000
   3  -8  -3  136253   14234                                                      155159   -0.35   -0.02  1.0000
   3  -8  -3  138613   14065                                                      157677   -0.35   -0.02  1.0000
   3  -8  -2  489301   21272                                                      517778   -0.28   -0.01  1.0000
   3  -8  -2  458378   27102                                                      485954   -0.28   -0.01  1.0000
   3  -8  -2  476023   24660                                                      504117   -0.28   -0.01  1.0000
   3  -8  -2  485463   24928                                                      513830   -0.28   -0.01  1.0000
   3  -8  -1   11129    5090                                                        5680   -0.42    0.01  1.0000
   3  -8  -1    8995    5536                                                        4188   -0.42    0.01  1.0000
   3  -8  -1    2810    5321                                                         523   -0.42    0.01  1.0000
   3  -8   0  143802   11453                                                      139343   -0.09    0.07  1.0000
   3  -8   0  124246   13035                                                      120101   -0.09    0.07  1.0000
   3  -8   0  126230   12350                                                      122052   -0.09    0.07  1.0000
   3  -8   1  127920   11072                                                      123219   -0.10    0.06  1.0000
   3  -8   1  109180   12113                                                      104838   -0.10    0.06  1.0000
   3  -8   1  121494   12205                                                      116913   -0.10    0.06  1.0000
   3  -8   2   42917    7027                                                       32640   -0.37   -0.10  1.0000
   3  -8   2   42860    8080                                                       32590   -0.37   -0.10  1.0000
   3  -8   2   34097    6865                                                       25010   -0.37   -0.10  1.0000
   3  -8   3  177305   13365                                                      204272   -0.43    0.07  1.0000
   3  -8   3  165744   15062                                                      191847   -0.43    0.07  1.0000
  -3  -8  -4  376388   22938                                                      394835   -0.21    0.05  1.0000
   3  -8   4  397350   21605                                                      416595   -0.21    0.05  1.0000
  -3  -8  -5  323945   20954                                                      349146   -0.30    0.02  1.0000
   3  -8   5  305241   18406                                                      329466   -0.30    0.05  1.0000
  -3  -8  -6   15759    5539                                                       15042   -0.04   -0.05  1.0000
  -3  -8  -7  212460   14267                                                      235996    0.35    0.02  1.0000
  -3  -8  -8  105499    7835                                                       97551   -0.18    0.05  1.0000
   3  -9  -5  297055    9351                                                      286204   -0.14   -0.14  1.0000
   3  -9  -4    3393    3030                                                        5855   -0.25   -0.08  1.0000
   3  -9  -4     361    3082                                                       -1597   -0.25   -0.08  1.0000
   3  -9  -3  135024    8040                                                      123539    0.22   -0.01  1.0000
   3  -9  -3  132659   10499                                                      121277    0.22   -0.01  1.0000
   3  -9  -2  309817   12514                                                      295194    0.18    0.04  1.0000
   3  -9  -2  325815   16835                                                      310815    0.18    0.04  1.0000
   3  -9  -1    1481    3889                                                        4721    0.42   -0.09  1.0000
  -3  -9   1      53    2757                                                        1353    0.41   -0.08  1.0000
   3  -9   0  155821    9457                                                      147916   -0.14   -0.04  1.0000
  -3  -9   0  134291    9308                                                      127488   -0.13   -0.02  1.0000
  -3  -9  -1  249372   13548                                                      244033   -0.08    0.02  1.0000
  -3  -9  -2   41927    6153                                                       35597    0.23    0.05  1.0000
  -3  -9  -3   39612    5899                                                       29934    0.37   -0.03  1.0000
  -3  -9  -4   48318    5529                                                       31387    0.60   -0.02  1.0000
  -4   0  18  130842    9690                                                      126522    0.08    0.05  1.0000
  -4   0  17    9139    5579                                                       10487   -0.10    0.02  1.0000
  -4   0  16     667    7052                                                        1249   -0.16   -0.20  1.0000
  -4   0  15  452406   35854                                                      482050    0.30    0.03  1.0000
  -4   0  15  424336   30729                                                      453061    0.30    0.03  1.0000
  -4   0  14  193999   22753                                                      176225   -0.29    0.00  1.0000
  -4   0  14  214113   21733                                                      195419   -0.29    0.00  1.0000
  -4   0  13     628   10988                                                        9732   -1.04    0.02  1.0000
  -4   0  12  726097   43874                                                      705874    0.17    0.00  1.0000
  -4   0  12  624140   61515                                                      605401    0.17    0.00  1.0000
  -4   0  11  236215   29669                                                      145343    1.47    0.01  1.0000
  -4   0  10   25568    9452                                                        3184    1.45    0.00  1.0000
  -4   0   9 1643758   87417                                                     1838264    1.03   -0.01  1.0000
  -4   0   8  186577   23342                                                      140441   -0.81    0.00  1.0000
  -4   0   7   53374    9567                                                        9722   -2.30    0.03  1.0000
  -4   0   6  120382   19615                                                      141322   -0.41    0.09  1.0000
  -4   0   5 9828111  150378                                                    12678685   -5.95    0.02  1.0000
  -4   0   420805456  149819                                                    16385452    7.18   -0.01  1.0000
  -4   0   325830412  150218                                                    20774312    7.33    0.05  1.0000
  -4   0   219415288  115230                                                    14135472   -9.04    0.00  1.0000
  -4   0   220164120  184240                                                    14775466   -9.04    0.00  1.0000
  -4   0   1 6442228  118051                                                     6237014   -0.57    0.01  1.0000
  -4   0   1 6279997   77870                                                     6077405   -0.57    0.01  1.0000
  -4   0   0   84958   35996                                                      562670   -6.42    0.00  1.0000
  -4   0  -114962872  160717                                                    10904601    7.91   -0.02  1.0000
  -4   0  -115160607  154697                                                    11073500    7.91   -0.02  1.0000
  -4   0  -2 7624929  170028                                                    12533586  -10.89    0.01  1.0000
  -4   0  -2 7400749  177178                                                    12245689  -10.89    0.01  1.0000
  -4   0  -3  852034   57078                                                     1234709   -2.63    0.01  1.0000
  -4   0  -4  270410   22002                                                      145071    1.95    0.03  1.0000
  -4   0  -5 4700531  144209                                                     5922297    3.71   -0.01  1.0000
  -4   0  -6 2671141  101136                                                     2493978   -0.77   -0.02  1.0000
   4   0   7 1430289   33426                                                      942828   -3.14    0.01  1.0000
   4   0   8  477937   25120                                                      447179    0.32    0.02  1.0000
   4   0   9 1206355   43490                                                      723943    3.47    0.00  1.0000
   4   0   9 1173782   39851                                                      698756    3.47    0.00  1.0000
   4   0  10  358763   27730                                                      299117    0.73    0.00  1.0000
   4   0  10  342187   28811                                                      283998    0.73    0.00  1.0000
   4   0  10  364453   23106                                                      304314    0.73    0.00  1.0000
   4   0  11  689883   39464                                                      561909   -1.13    0.00  1.0000
   4   0  11  697953   30970                                                      569194   -1.13    0.00  1.0000
   4   0  11  662919   36167                                                      537600   -1.13    0.00  1.0000
   4   0  11  752883   33282                                                      618900   -1.13    0.00  1.0000
   4   0  12  708749   40459                                                      623235   -0.73    0.00  1.0000
   4   0  12  658443   36826                                                      576119   -0.73    0.00  1.0000
   4   0  12  695591   32694                                                      610900   -0.73    0.00  1.0000
   4   0  12  717416   33034                                                      631364   -0.73    0.00  1.0000
   4   0  13  426477   33300                                                      461386    0.37    0.00  1.0000
   4   0  13  485106   33055                                                      522292    0.37    0.00  1.0000
   4   0  13  427183   27386                                                      462121    0.37    0.00  1.0000
   4   0  14    5535    7909                                                        5582    0.00   -0.02  1.0000
   4   0  15  342638   23607                                                      388098   -0.53    0.00  1.0000
   4   0  16  294764   14885                                                      267051    0.37    0.00  1.0000
  -4  -1  18  121798   10546                                                      106166    0.33   -0.02  1.0000
  -4  -1  17  101644   12458                                                       89186    0.28   -0.03  1.0000
  -4  -1  16  105453   14548                                                       92355   -0.30    0.11  1.0000
  -4  -1  15  274755   25192                                                      274713    0.00   -0.07  1.0000
  -4   1  15  247866   20790                                                      248845    0.00    0.14  1.0000
  -4  -1  15  276820   27401                                                      276778    0.00   -0.07  1.0000
  -4  -1  14  263654   28118                                                      269776    0.08   -0.02  1.0000
  -4   1  14  251876   26533                                                      257163    0.07    0.08  1.0000
  -4   1  14  278548   23641                                                      284107    0.07    0.08  1.0000
  -4  -1  14  287207   27070                                                      293594    0.08   -0.02  1.0000
  -4   1  13   14150    9323                                                       21457    0.37    0.19  1.0000
  -4   1  13     873    9128                                                        -312    0.37    0.19  1.0000
  -4  -1  13     942    9401                                                       -2771    0.38   -0.20  1.0000
  -4   1  12  259022   29158                                                      304220   -0.60    0.11  1.0000
  -4  -1  12  283334   30559                                                      329995   -0.58   -0.12  1.0000
  -4  -1  12  223805   24012                                                      265470   -0.58   -0.12  1.0000
  -4   1  12  285176   46632                                                      332517   -0.60    0.11  1.0000
  -4   1  11  366547   33809                                                      445253   -0.86   -0.06  1.0000
  -4   1  11  333961   50301                                                      409261   -0.86   -0.06  1.0000
  -4  -1  11  366603   33611                                                      444739   -0.86    0.05  1.0000
  -4   1  10   36868   16629                                                       44688    0.25    0.44  1.0000
  -4   1   9  204678   25359                                                      136240   -1.16   -0.62  1.0000
  -4  -1   9  252081   30975                                                      182579   -1.16    0.66  1.0000
  -4  -1   8 2915449  110243                                                     2900324   -0.07    0.19  1.0000
  -4   1   8 2899765   98612                                                     2886274   -0.05   -0.17  1.0000
  -4   1   7 1362909   63951                                                     1434827    0.43   -0.08  1.0000
  -4  -1   7 1422739   74207                                                     1498566    0.44    0.01  1.0000
  -4  -1   6 1320403   57634                                                     1066060    1.63    0.29  1.0000
  -4   1   6 1303497   50307                                                     1056800    1.61   -0.45  1.0000
  -4  -1   512703768  165109                                                    10737503    4.07   -1.33  1.0000
  -4   1   512316618  143227                                                    10351806    4.08    1.37  1.0000
  -4   1   413838663  153811                                                    13892474   -0.07    2.47  1.0000
  -4  -1   413637333  161906                                                    13746075   -0.08   -2.54  1.0000
  -4   1   3    7085   38842                                                      973809  -12.21   -8.48  1.0000
  -4  -1   3    5313   50514                                                      993998  -12.23    8.47  1.0000
  -4  -1   2   63265    3779                                                       12840    5.05   -0.15  1.0000
  -4  -1   2   38094   10950                                                       29907    5.05   -0.15  1.0000
  -4   1   2   59008    8097                                                       15513    5.05    0.20  1.0000
  -4  -1   1 8140072  160157                                                     9817171    3.93   -0.84  1.0000
  -4  -1   1 8309335  156647                                                    10003009    3.93   -0.84  1.0000
  -4   1   1 7819762  141460                                                     9473504    3.91    0.84  1.0000
  -4  -1   0 1177364   67044                                                     1669745    2.89    0.27  1.0000
  -4  -1   0 1212949   66899                                                     1712075    2.89    0.27  1.0000
   4  -1   0 1061737   27768                                                     1529996    2.88    0.33  1.0000
  -4   1   0 1083121   56777                                                     1552976    2.88   -0.33  1.0000
   4  -1   1 4473489   42726                                                     3347710    4.07   -1.47  1.0000
  -4  -1  -1 4564104   97366                                                     3431899    4.05   -1.43  1.0000
  -4   1  -1 4517779   83837                                                     3368870    4.07    1.47  1.0000
  -4  -1  -1 4512566   98409                                                     3387149    4.05   -1.43  1.0000
  -4  -1  -214887189  211368                                                    14623768    0.47    0.75  1.0000
   4  -1   214937046   99161                                                    14668267    0.48    0.73  1.0000
  -4   1  -215094711  179762                                                    14841366    0.48   -0.73  1.0000
   4  -1   3 5545829   65063                                                     5042735    1.53    1.39  1.0000
  -4   1  -3 5439569   93517                                                     4963835    1.53   -1.39  1.0000
   4  -1   4  980302   27931                                                      733974   -1.87    0.36  1.0000
  -4  -1  -4  980425   53653                                                      734217   -1.87    0.32  1.0000
  -4  -1  -5 2301442  102717                                                     2385249    0.39   -0.17  1.0000
   4  -1   5 2352945   53735                                                     2440178    0.40   -0.18  1.0000
  -4  -1  -6 3761719  139329                                                     3863845    0.37    0.00  1.0000
   4  -1   6 3845046   72289                                                     3949625    0.37   -0.04  1.0000
  -4  -1  -7  585467   60451                                                      627348    0.38   -0.29  1.0000
   4  -1   7  619929   32109                                                      663994    0.39   -0.30  1.0000
   4  -1   8  220315   20108                                                      218566    0.03   -0.04  1.0000
  -4  -1  -8  205463   36962                                                      204133    0.02   -0.02  1.0000
   4  -1   9  855142   49468                                                      917352   -0.46   -0.01  1.0000
   4   1   9  828707   48166                                                      889865   -0.46    0.02  1.0000
   4  -1   9  823650   46192                                                      884723   -0.46   -0.01  1.0000
   4  -1  10   13933   12701                                                       38540   -1.11    0.07  1.0000
   4   1  10   18768   12930                                                       46829   -1.11   -0.09  1.0000
   4  -1  10   41387   15985                                                       79483   -1.11    0.07  1.0000
   4  -1  11  222868   27096                                                      255011    0.46    0.04  1.0000
   4   1  11  196523   25807                                                      226892    0.46   -0.02  1.0000
   4   1  11  240258   21404                                                      273723    0.46   -0.02  1.0000
   4  -1  11  171257   20388                                                      199566    0.46    0.04  1.0000
   4  -1  11  196584   24462                                                      226838    0.46    0.04  1.0000
   4   1  12 1503286   61870                                                     1545176    0.24   -0.01  1.0000
   4  -1  12 1441668   58437                                                     1483967    0.24    0.03  1.0000
   4   1  12 1502220   48002                                                     1544096    0.24   -0.01  1.0000
   4  -1  12 1526283   51288                                                     1569796    0.24    0.03  1.0000
   4  -1  12 1481620   62016                                                     1524496    0.24    0.03  1.0000
   4   1  13  281093   26088                                                      285616    0.06    0.07  1.0000
   4  -1  13  346480   29336                                                      351274    0.06   -0.08  1.0000
   4  -1  13  286660   25824                                                      291019    0.06   -0.08  1.0000
   4  -1  13  303718   22809                                                      308205    0.06   -0.08  1.0000
   4   1  14   27207    9559                                                       26498    0.03    0.04  1.0000
   4  -1  14   38329   10915                                                       37552    0.03   -0.02  1.0000
   4  -1  14   29493    8987                                                       28812    0.03   -0.02  1.0000
   4  -1  14   26250    9087                                                       25608    0.03   -0.02  1.0000
   4   1  15  357197   20512                                                      324282    0.40   -0.03  1.0000
   4  -1  15  344654   21079                                                      311797    0.40    0.04  1.0000
   4  -1  16  153195   10930                                                      141859    0.21   -0.06  1.0000
  -4  -2  18   39420    5463                                                       42386   -0.11    0.11  1.0000
  -4  -2  18   62945    8282                                                       66697   -0.11    0.11  1.0000
  -4  -2  17   28237    8254                                                       22249    0.26    0.01  1.0000
  -4  -2  16    8678    8030                                                       11454    0.20   -0.10  1.0000
  -4  -2  15  231647   23344                                                      232794    0.01    0.12  1.0000
  -4  -2  14  401375   34047                                                      417256    0.17    0.02  1.0000
  -4  -2  14  382475   31968                                                      397981    0.17    0.02  1.0000
  -4  -2  13    4134    9427                                                        4862    0.07   -0.08  1.0000
  -4  -2  13      57    9712                                                       -3655    0.07   -0.08  1.0000
  -4  -2  13    2274    9253                                                        2813    0.07   -0.08  1.0000
  -4  -2  12   11850    8899                                                        7074   -0.48   -0.03  1.0000
  -4   2  12   16826    8922                                                        9705   -0.48    0.08  1.0000
  -4  -2  12    1192    8491                                                       -1328   -0.48   -0.03  1.0000
  -4   2  11  460050   30581                                                      388524    0.79   -0.29  1.0000
  -4  -2  11  469958   32351                                                      395669    0.78    0.28  1.0000
  -4   2  11  509913   51889                                                      434485    0.79   -0.29  1.0000
  -4   2  10   49015   16560                                                       26027    0.84    0.13  1.0000
  -4   2   9 2330169  100716                                                     2322169   -0.04    0.03  1.0000
  -4   2   8 5960900  151292                                                     6068035    0.31   -0.02  1.0000
  -4   2   7 1837093   68860                                                     1486717   -1.90   -0.09  1.0000
  -4   2   6 3460844  108949                                                     4314501   -3.03   -0.18  1.0000
  -4  -2   6 3105521  113124                                                     3921535   -3.05    0.29  1.0000
  -4   2   5 5063757   99976                                                     4220172    2.74    0.11  1.0000
  -4  -2   5 4930984  111672                                                     4099243    2.74   -0.13  1.0000
  -4   2   4 3385974   77581                                                     2777515    2.42    1.28  1.0000
  -4  -2   4 3344044   88827                                                     2762715    2.40   -1.15  1.0000
  -4   2   3  342368   27697                                                      350747    0.19    1.97  1.0000
  -4  -2   3  316302   30810                                                      328156    0.23   -2.18  1.0000
  -4  -2   2  573891   44998                                                      727536    1.35   -0.68  1.0000
  -4   2   2  643815   41934                                                      814141    1.33    0.73  1.0000
  -4  -2   1 1330801   48588                                                      698742   -4.42   -0.44  1.0000
  -4  -2   1 1340901   45634                                                      706067   -4.42   -0.44  1.0000
  -4   2   1 1337100   39144                                                      715112   -4.39    0.44  1.0000
  -4  -2   0  152457   20905                                                      120266   -0.61    0.01  1.0000
  -4   2   0  141099   15195                                                      110183   -0.61   -0.03  1.0000
  -4  -2   0  139298   21104                                                      108611   -0.61    0.01  1.0000
  -4  -2  -1  142535   35739                                                      330366   -2.76    0.04  1.0000
  -4  -2  -1  141979   33682                                                      329520   -2.76    0.04  1.0000
  -4   2  -1  157787   26460                                                      352744   -2.75   -0.07  1.0000
  -4  -2  -210738733  214346                                                    12090690   -2.79   -0.47  1.0000
  -4   2  -211019954  150715                                                    12380288   -2.79    0.46  1.0000
  -4  -2  -3 8157605  186334                                                     8206536   -0.12   -0.05  1.0000
  -4  -2  -4   18047   16151                                                       42059    0.99   -0.11  1.0000
  -4  -2  -5 7567435  218815                                                     8960299    3.39    0.01  1.0000
   4  -2   5 7804762  126520                                                     9213187    3.38   -0.02  1.0000
   4  -2   6 6200707  106546                                                     5695239   -1.45    0.07  1.0000
  -4  -2  -6 6034213  182173                                                     5534120   -1.45    0.03  1.0000
  -4  -2  -7   16950   15323                                                       13362   -3.43   -0.04  1.0000
   4  -2   8   66626   13940                                                       51795    0.42    0.05  1.0000
   4   2   8   28517   10112                                                       19479    0.42   -0.03  1.0000
  -4  -2  -8   52075   18850                                                       39247    0.42    0.03  1.0000
   4  -2   8   68642   11740                                                       53574    0.42    0.05  1.0000
   4  -2   8   39797   12932                                                       28546    0.42    0.05  1.0000
   4  -2   9  785393   36978                                                      532638    2.19    0.00  1.0000
   4   2   9  722636   35773                                                      481645    2.19   -0.04  1.0000
  -4  -2  -9  653672   57737                                                      425130    2.19    0.04  1.0000
   4  -2   9  759378   36330                                                      511251    2.19    0.00  1.0000
   4  -2  10   14488    8889                                                       15515   -1.10   -0.08  1.0000
   4   2  10    7545    8854                                                        6451   -1.09    0.06  1.0000
   4  -2  10    5854    9879                                                        2637   -1.10   -0.08  1.0000
   4  -2  11  458750   33742                                                      442246   -0.17   -0.10  1.0000
   4   2  11  534342   36853                                                      517449   -0.17    0.12  1.0000
   4  -2  11  511192   35967                                                      493765   -0.17   -0.10  1.0000
   4   2  12  628862   37449                                                      584352   -0.40    0.03  1.0000
   4   2  12  679929   37979                                                      633614   -0.40    0.03  1.0000
   4  -2  12  648676   38092                                                      602484   -0.41   -0.04  1.0000
   4  -2  12  704102   33117                                                      655940   -0.41   -0.04  1.0000
   4   2  13  198133   19979                                                      192078   -0.10    0.00  1.0000
   4  -2  13  222845   22621                                                      216500   -0.10    0.00  1.0000
   4  -2  13  219055   19274                                                      212765   -0.10    0.00  1.0000
   4  -2  13  197568   20930                                                      191596   -0.10    0.00  1.0000
   4   2  14     252    6264                                                       -1080    0.22   -0.05  1.0000
   4  -2  14     254    7109                                                       -1499    0.22    0.05  1.0000
   4  -2  14     254    8821                                                      -12695    0.22    0.05  1.0000
   4  -2  15   62427   10501                                                       72091   -0.27    0.07  1.0000
   4  -2  15   15377    6211                                                       20329   -0.27    0.07  1.0000
  -4  -3  17     703    4934                                                        1522   -0.19    0.05  1.0000
  -4  -3  16    4993    6692                                                        4444   -0.05   -0.02  1.0000
  -4  -3  15   87957   14212                                                       69801   -0.48    0.18  1.0000
  -4  -3  14   81050   15153                                                       78905   -0.06    0.12  1.0000
  -4  -3  13  609113   40271                                                      653039    0.39    0.10  1.0000
   4  -3 -12  572337   27746                                                      539800    0.31   -0.13  1.0000
  -4  -3  12  610496   38087                                                      578953    0.29   -0.11  1.0000
  -4  -3  12  600185   38109                                                      568912    0.29   -0.11  1.0000
   4  -3 -11  327779   24007                                                      387939   -0.70    0.00  1.0000
  -4  -3  11  310546   30531                                                      369131   -0.70    0.00  1.0000
  -4  -3  10   75320   13975                                                       53644   -0.60    0.02  1.0000
   4  -3 -10   51177    8076                                                       33738   -0.59    0.01  1.0000
  -4   3  10   30111   13039                                                       17182   -0.59   -0.01  1.0000
  -4  -3  10   40046    9321                                                       24737   -0.60    0.02  1.0000
  -4   3   9 2353755  108281                                                     2481778    0.57    0.11  1.0000
  -4   3   8 2977212  115519                                                     3188891    0.85   -0.12  1.0000
  -4   3   7  229305   32816                                                      278428    0.68    0.09  1.0000
  -4   3   6   40854   13415                                                       35965    0.17    0.09  1.0000
  -4  -3   6   22169   10755                                                       18263    0.21   -0.16  1.0000
  -4   3   5 5887639  128279                                                     5765968    0.35   -0.07  1.0000
  -4  -3   5 6150345  139873                                                     6022276    0.36    0.12  1.0000
  -4   3   4 3814952  108162                                                     4317241   -1.73   -0.31  1.0000
  -4  -3   4 3851974  116407                                                     4348591   -1.72    0.15  1.0000
  -4   3   3 1371425   73189                                                     1916833   -2.96   -0.72  1.0000
  -4  -3   3 1148725   71491                                                     1652825   -2.97    0.78  1.0000
  -4   3   2  814949   58748                                                     1189019    2.63   -0.09  1.0000
  -4  -3   2  722136   57146                                                     1072890    2.59    0.25  1.0000
  -4  -3   1  764500   61438                                                      934106    1.29    0.06  1.0000
  -4  -3   1  721500   53022                                                      886509    1.29    0.06  1.0000
  -4   3   1  795652   45889                                                      964384    1.26   -0.07  1.0000
  -4  -3   0  168834   34374                                                      265610    1.47   -0.30  1.0000
  -4  -3   0  181888   31851                                                      281943    1.47   -0.30  1.0000
  -4  -3  -1 5823334  159580                                                     5653329    0.50   -0.23  1.0000
  -4  -3  -2 4278065  135013                                                     3793336    1.68    0.16  1.0000
  -4  -3  -3 4083077  145100                                                     4035853    0.17   -0.19  1.0000
  -4  -3  -4  163716   35069                                                      200890   -0.61   -0.10  1.0000
  -4  -3  -5 2695325  125003                                                     2423068   -1.19   -0.02  1.0000
  -4  -3  -6 4352409  172931                                                     4248222   -0.34   -0.28  1.0000
  -4  -3  -7 1486315  111629                                                     1614345    0.72    0.04  1.0000
   4  -3   7 1702084   53154                                                     1837433    0.71    0.00  1.0000
   4   3   8 2206448   68535                                                     2024212    0.88   -0.04  1.0000
   4  -3   8 2300690   59753                                                     2114931    0.87    0.08  1.0000
   4  -3   8 2416326   75658                                                     2225860    0.87    0.08  1.0000
  -4  -3  -8 2293775  131367                                                     2107501    0.88    0.04  1.0000
   4  -3   9   52084   10975                                                       52789   -0.03    0.06  1.0000
   4   3   9  107655   17812                                                      109437   -0.03   -0.07  1.0000
   4  -3   9   70106   13368                                                       70927   -0.03    0.06  1.0000
   4  -3   9  102111   18922                                                      103107   -0.03    0.06  1.0000
   4   3  10   24184   10774                                                       14863   -0.55   -0.34  1.0000
   4  -3  10   37161   12587                                                       23445   -0.55    0.33  1.0000
  -4  -3 -11  459047   28188                                                      505525    0.47   -0.11  1.0000
   4   3  11  500196   35313                                                      549191    0.47    0.11  1.0000
   4  -3  11  491598   36968                                                      539998    0.47   -0.11  1.0000
   4  -3  12  201649   22840                                                      237762    0.53    0.07  1.0000
   4  -3  12  193717   23947                                                      229142    0.53    0.07  1.0000
   4  -3  13  216097   19435                                                      201626   -0.23    0.14  1.0000
   4  -3  13  190582   19647                                                      177000   -0.23    0.14  1.0000
   4  -3  13  199408   16460                                                      185512   -0.23    0.14  1.0000
   4  -3  14   37011    7454                                                       28689   -0.32   -0.01  1.0000
   4  -3  14   60288    8945                                                       49521   -0.32   -0.01  1.0000
   4  -3  15  180635   10474                                                      163365    0.29   -0.04  1.0000
  -4  -4  16   17532    6358                                                       15500   -0.11   -0.05  1.0000
  -4  -4  15  183735   18680                                                      214899    0.49   -0.15  1.0000
  -4  -4  14  223463   21056                                                      214169   -0.14   -0.08  1.0000
  -4  -4  13  219428   24876                                                      274318   -0.77    0.21  1.0000
  -4  -4  12     461    8192                                                       -5780    0.19   -0.23  1.0000
   4  -4 -12     239    5575                                                       -3951    0.15   -0.16  1.0000
  -4  -4  11   31368    8953                                                       18819    0.59   -0.13  1.0000
   4  -4 -11   33480    7798                                                       20942    0.56   -0.09  1.0000
  -4  -4  10   12768    8946                                                       12727   -0.03   -0.19  1.0000
   4  -4 -10   16433    7794                                                       15996   -0.04   -0.15  1.0000
   4  -4  -9  584000   30410                                                      562379   -0.21    0.18  1.0000
   4  -4  -9  558353   71724                                                      537212   -0.21    0.18  1.0000
  -4   4   9  548788   54026                                                      526443   -0.21   -0.18  1.0000
  -4  -4   9  577652   35631                                                      554857   -0.22    0.19  1.0000
   4  -4  -8 1771353   50850                                                     1717415   -0.28   -0.07  1.0000
   4  -4  -8 1650559  116690                                                     1598506   -0.28   -0.07  1.0000
  -4   4   8 1709940   87664                                                     1657855   -0.28    0.07  1.0000
  -4  -4   8 1685018   57708                                                     1625965   -0.32    0.03  1.0000
   4  -4  -7 1487006  103971                                                     1293468   -1.15    0.06  1.0000
  -4   4   7 1654344   77328                                                     1449267   -1.15   -0.06  1.0000
   4  -4  -6  565237   70798                                                      700543   -1.19    0.28  1.0000
  -4   4   6  512307   50523                                                      642813   -1.19   -0.28  1.0000
   4  -4  -5 2157684  114750                                                     2060701    0.47    0.03  1.0000
  -4   4   5 2353465   89487                                                     2252560    0.47   -0.03  1.0000
  -4   4   4 4475072  119161                                                     4075503    1.35    0.01  1.0000
  -4   4   3  657521   47663                                                      626103    0.28   -0.34  1.0000
  -4   4   2  626341   51851                                                      716128    0.77    0.00  1.0000
  -4   4   1 1861617   78236                                                     1566786   -1.58   -0.01  1.0000
  -4  -4   1 1791019   85542                                                     1502926   -1.57    0.03  1.0000
  -4  -4   0   65661   27028                                                      131019   -1.33    0.86  1.0000
  -4  -4  -1 1493475   98680                                                     1789604   -1.62    0.12  1.0000
  -4  -4  -2 7260214  210721                                                     7565952   -0.79    0.03  1.0000
  -4  -4  -3 1618605   94530                                                     1411697    1.17    0.17  1.0000
  -4  -4  -4  196309   45367                                                      271658    1.09    0.08  1.0000
  -4  -4  -5 1768482  118064                                                     1874613    0.55    0.06  1.0000
   4  -4   5 1764263   51066                                                     1875513    0.57    0.07  1.0000
  -4  -4  -6 1555814  104967                                                     1373138   -1.06    0.04  1.0000
   4  -4   6 1479820   44718                                                     1303938   -1.04    0.01  1.0000
   4  -4   7   79407   15897                                                       76394   -0.07   -0.11  1.0000
   4  -4   7   75067   13384                                                       72136   -0.07   -0.11  1.0000
   4  -4   8  374741   34198                                                      446590    0.79    0.13  1.0000
   4  -4   8  355943   28000                                                      426044    0.79    0.13  1.0000
   4  -4   9  546905   37343                                                      525751    0.20   -0.04  1.0000
   4  -4   9  547818   30954                                                      526647    0.20   -0.04  1.0000
  -4  -4 -10   76883   14647                                                       94029   -0.41   -0.06  1.0000
   4  -4  10   87096   17493                                                      105137   -0.40   -0.08  1.0000
  -4  -4 -11  170909   17305                                                      178067    0.12   -0.08  1.0000
   4  -4  11  182050   21596                                                      189569    0.12   -0.09  1.0000
  -4  -4 -12  818511   29815                                                      879422    0.46   -0.07  1.0000
   4  -4  12  876880   41666                                                      939104    0.46   -0.07  1.0000
   4  -4  13  218739   19230                                                      230361    0.17   -0.03  1.0000
   4  -4  13  233103   16794                                                      245096    0.17   -0.03  1.0000
   4  -4  14   49328    7814                                                       54173   -0.15   -0.08  1.0000
  -4  -5  15   87907    8942                                                       84743   -0.07   -0.01  1.0000
   4  -5 -15   63521    6710                                                       60857   -0.07   -0.03  1.0000
  -4  -5  15   94398    9163                                                       91120   -0.07   -0.01  1.0000
  -4  -5  14   59862   10293                                                       62593    0.08   -0.03  1.0000
  -4  -5  14   48687    9042                                                       51152    0.08   -0.03  1.0000
  -4  -5  13     131    6610                                                       -5329   -0.16    0.03  1.0000
   4  -5 -12  180114   16452                                                      172525    0.12    0.16  1.0000
  -4  -5  12  182632   19021                                                      175854    0.11    0.18  1.0000
   4  -5 -11   43226    9629                                                       38022    0.18    0.01  1.0000
  -4  -5  11   38068    9908                                                       33021    0.19    0.00  1.0000
  -4  -5  10  119803   15429                                                      100170   -0.42   -0.05  1.0000
   4  -5 -10  118051   14257                                                       98608   -0.41   -0.07  1.0000
   4  -5  -9  289165   22296                                                      278239   -0.14    0.00  1.0000
  -4  -5   9  289273   24326                                                      277237   -0.16    0.01  1.0000
   4  -5  -8  884361   40710                                                      982623    0.71   -0.01  1.0000
   4  -5  -7  630791   35735                                                      774363    1.20    0.02  1.0000
  -4   5   7  638347   62641                                                      782553    1.20   -0.02  1.0000
  -4   5   6    6468   12642                                                       21744    0.94    0.04  1.0000
   4  -5  -6    5085    7268                                                       19240    0.94   -0.04  1.0000
  -4  -5   6     887    7044                                                        9877    0.96   -0.17  1.0000
   4  -5  -5 1740040   50790                                                     1732514    0.04    0.00  1.0000
  -4  -5   5 1891204   57694                                                     1880393    0.05    0.05  1.0000
  -4   5   5 1963492   93232                                                     1955442    0.04    0.00  1.0000
  -4   5   4 2879956  114314                                                     2969453   -0.37    0.14  1.0000
   4  -5  -4 2917111   76331                                                     3009143   -0.37   -0.14  1.0000
  -4  -5   4 2926836   71352                                                     3014503   -0.35   -0.20  1.0000
  -4   5   3   29852   17637                                                       57993   -0.95    0.19  1.0000
  -4   5   2  324817   39092                                                      323920   -0.02    0.09  1.0000
  -4   5   1 2135723  106648                                                     2348089    0.99    0.08  1.0000
  -4   5   0  102696   30566                                                      180301    1.45    0.08  1.0000
  -4  -5   0   89155   33932                                                      162235    1.46   -0.11  1.0000
   4  -5   1 1886823   39328                                                     1748824    0.72   -0.07  1.0000
  -4  -5  -1 1777933  102855                                                     1639975    0.74   -0.13  1.0000
   4  -5   2 2545455   46236                                                     2375819    0.76   -0.02  1.0000
  -4  -5  -2 2426482  124466                                                     2262540    0.75   -0.03  1.0000
   4  -5   2 2524721   59468                                                     2355789    0.76   -0.02  1.0000
  -4  -5  -3  436552   59334                                                      479945   -0.45    0.00  1.0000
   4  -5   3  461852   21613                                                      505035   -0.43   -0.02  1.0000
   4  -5   3  500166   27735                                                      545065   -0.43   -0.02  1.0000
   4  -5   3  466090   28156                                                      509466   -0.43   -0.02  1.0000
   4  -5   4  306120   15639                                                      242752   -0.85   -0.01  1.0000
   4  -5   4  297210   18194                                                      234825   -0.85   -0.01  1.0000
   4  -5   4  294524   19654                                                      232438   -0.85   -0.01  1.0000
  -4  -5  -4  343495   49432                                                      275559   -0.85    0.01  1.0000
   4  -5   5  730151   30070                                                      696330   -0.28    0.04  1.0000
   4  -5   5  756909   34409                                                      722466   -0.28    0.04  1.0000
   4  -5   6 1336578   44311                                                     1432177    0.56    0.26  1.0000
   4  -5   6 1211477   46792                                                     1302558    0.56    0.26  1.0000
   4  -5   7  642105   37947                                                      639612   -0.02   -0.09  1.0000
   4  -5   7  697835   35226                                                      695238   -0.02   -0.09  1.0000
   4  -5   8    4004    9471                                                       10649   -0.57    0.01  1.0000
   4  -5   8   18577   10889                                                       31110   -0.57    0.01  1.0000
  -4  -5  -9  110855   17163                                                      125039   -0.28   -0.05  1.0000
   4  -5   9  108332   16918                                                      122846   -0.29   -0.06  1.0000
   4  -5   9  116966   16999                                                      132030   -0.29   -0.06  1.0000
  -4  -5 -10   23715    8613                                                       22375    0.06    0.04  1.0000
   4  -5  10   47251   11166                                                       44922    0.07    0.03  1.0000
  -4  -5 -11   49377    8545                                                       42854   -0.21   -0.01  1.0000
   4  -5  11   39552    9065                                                       33831   -0.21    0.00  1.0000
  -4  -5 -12  581088   20016                                                      520631   -0.57   -0.03  1.0000
   4  -5  13  161253   11393                                                      152894   -0.15   -0.02  1.0000
  -4  -6  14   33673    5833                                                       36992    0.13   -0.04  1.0000
  -4  -6  13    3333    4839                                                        2963   -0.05   -0.01  1.0000
   4  -6 -13   16976    5086                                                       16144   -0.05    0.00  1.0000
  -4  -6  12  105986   13888                                                      116800   -0.23    0.03  1.0000
   4  -6 -12   97687   13004                                                      108010   -0.23    0.02  1.0000
  -4  -6  11  126738   15499                                                      127214   -0.01    0.06  1.0000
   4  -6 -11  118644   16414                                                      118716    0.00    0.04  1.0000
   4  -6 -10   10632    5948                                                        5566    0.40    0.02  1.0000
  -4  -6  10   14440    8045                                                        8362    0.40    0.01  1.0000
   4  -6 -10   16565   10240                                                       10039    0.40    0.02  1.0000
   4  -6  -9  684495   33242                                                      705717    0.18    0.00  1.0000
  -4  -6   9  654502   36398                                                      674741    0.17    0.01  1.0000
   4  -6  -8  535100   27448                                                      451558   -0.83   -0.02  1.0000
   4  -6  -8  470315   35143                                                      392214   -0.83   -0.02  1.0000
  -4  -6   8  566428   31493                                                      480486   -0.83   -0.03  1.0000
   4  -6  -7   95813   10949                                                       48304   -1.26   -0.05  1.0000
  -4  -6   7   97705   12127                                                       49755   -1.25   -0.04  1.0000
   4  -6  -7   41038   11116                                                       12722   -1.26   -0.05  1.0000
   4  -6  -6   44197   11544                                                       70292   -0.76   -0.13  1.0000
   4  -6  -6   50557    9160                                                       78259   -0.76   -0.13  1.0000
  -4  -6   6   42035   13913                                                       67800   -0.77   -0.09  1.0000
   4  -6  -6   48144   16178                                                       75249   -0.76   -0.13  1.0000
   4  -6  -5  730172   33730                                                      714008    0.14   -0.06  1.0000
   4  -6  -5  733555   27350                                                      717354    0.14   -0.06  1.0000
  -4  -6   5  736109   37105                                                      719528    0.14   -0.08  1.0000
   4  -6  -5  756518   42927                                                      740063    0.14   -0.06  1.0000
   4  -6  -4  630432   30149                                                      585720    0.40    0.01  1.0000
   4  -6  -4  663309   25611                                                      617424    0.40    0.01  1.0000
   4  -6  -4  733562   39195                                                      685266    0.40    0.01  1.0000
  -4  -6   4  707606   34705                                                      660721    0.40   -0.01  1.0000
   4  -6  -4  637885   31898                                                      592905    0.40    0.01  1.0000
   4  -6  -3  796727   36311                                                      801658   -0.04   -0.06  1.0000
   4  -6  -3  789900   29464                                                      794810   -0.04   -0.06  1.0000
  -4  -6   3  857638   38784                                                      863490   -0.04   -0.06  1.0000
   4  -6  -3  843746   41585                                                      848821   -0.04   -0.06  1.0000
   4  -6  -2 1509763   40286                                                     1520116    0.06   -0.07  1.0000
  -4  -6   2 1597889   51902                                                     1610765    0.07   -0.06  1.0000
   4  -6  -2 1571274   49735                                                     1581836    0.06   -0.07  1.0000
   4  -6  -2 1482836   52786                                                     1493097    0.06   -0.07  1.0000
   4  -6  -1  412840   19763                                                      354067   -0.66   -0.16  1.0000
   4  -6  -1  401368   22951                                                      343448   -0.66   -0.16  1.0000
   4  -6  -1  439983   26352                                                      379238   -0.66   -0.16  1.0000
   4  -6   0   32005    7353                                                       11820   -0.99    0.00  1.0000
   4  -6   0   30095    5500                                                       10668   -0.99    0.00  1.0000
   4  -6   0   28070    6048                                                        9473   -0.99    0.00  1.0000
   4  -6   1  489603   24919                                                      615002   -1.17   -0.18  1.0000
   4  -6   1  513399   30474                                                      641640   -1.17   -0.18  1.0000
   4  -6   1  454202   30674                                                      575243   -1.17   -0.18  1.0000
   4  -6   2  700900   28119                                                      775105   -0.60   -0.09  1.0000
   4  -6   2  670109   33779                                                      742706   -0.60   -0.09  1.0000
   4  -6   2  663023   34525                                                      735245   -0.60   -0.09  1.0000
   4  -6   3  403018   19309                                                      361237    0.48   -0.13  1.0000
   4  -6   3  418320   23815                                                      375734    0.48   -0.13  1.0000
   4  -6   3  414004   24883                                                      371644    0.48   -0.13  1.0000
   4  -6   4   20895    6635                                                       13568    0.39   -0.07  1.0000
   4  -6   4   22012    7041                                                       14471    0.39   -0.07  1.0000
   4  -6   4   25882    8996                                                       17640    0.39   -0.07  1.0000
   4  -6   5 1449171   45377                                                     1456817    0.04    0.14  1.0000
   4  -6   5 1394549   48278                                                     1402047    0.04    0.14  1.0000
   4  -6   6 1113312   42086                                                     1036791   -0.51   -0.20  1.0000
  -4  -6  -6 1017884   43976                                                      944454   -0.51   -0.22  1.0000
  -4  -6  -7  233858   21762                                                      228855   -0.07    0.01  1.0000
   4  -6   7  233723   21003                                                      228630   -0.07   -0.02  1.0000
  -4  -6  -8  155283   17257                                                      142819    0.23   -0.09  1.0000
   4  -6   8  170744   18160                                                      157995    0.23   -0.07  1.0000
  -4  -6  -9  139778   15429                                                      142433   -0.06    0.11  1.0000
  -4  -6 -10   24538    6702                                                       20913    0.16    0.05  1.0000
  -4  -6 -11  188972   12389                                                      192884    0.06    0.02  1.0000
   4  -6  12   27180    5570                                                       32804    0.22    0.08  1.0000
  -4  -7  12   31173    5709                                                       27860    0.14   -0.06  1.0000
   4  -7 -12   12974    3011                                                       10839    0.14   -0.05  1.0000
  -4  -7  11  153944   12925                                                      149034    0.09   -0.01  1.0000
   4  -7 -11  110821    9583                                                      106701    0.09   -0.03  1.0000
   4  -7 -11  133058   10832                                                      128541    0.09   -0.03  1.0000
  -4  -7  10    5060    5872                                                        4867    0.03   -0.04  1.0000
   4  -7 -10    4130    5850                                                        3932    0.02   -0.01  1.0000
   4  -7 -10      77    4188                                                          52    0.02   -0.01  1.0000
   4  -7  -9   23959    9500                                                       26739    0.12    0.03  1.0000
  -4  -7   9   36488    9880                                                       39977    0.12    0.03  1.0000
   4  -7  -9   15600    6376                                                       17858    0.12    0.03  1.0000
  -4  -7   8  576283   31941                                                      636802    0.54    0.03  1.0000
   4  -7  -8  478238   27971                                                      534357    0.55    0.00  1.0000
   4  -7  -7  124495   20557                                                      154191    0.56    0.00  1.0000
   4  -7  -7  118435   10316                                                      147438    0.56    0.00  1.0000
  -4  -7   7  145404   18155                                                      176950    0.55    0.02  1.0000
   4  -7  -7  132875   16472                                                      163502    0.56    0.00  1.0000
   4  -7  -6  330481   15876                                                      301538    0.36    0.13  1.0000
  -4  -7   6  336858   22930                                                      307521    0.36    0.10  1.0000
   4  -7  -6  305417   21240                                                      277616    0.36    0.13  1.0000
   4  -7  -6  353619   27997                                                      323660    0.36    0.13  1.0000
   4  -7  -5  881040   28012                                                      852892    0.21    0.02  1.0000
  -4  -7   5  866019   36890                                                      839277    0.20    0.01  1.0000
   4  -7  -5  833143   35350                                                      805778    0.21    0.02  1.0000
   4  -7  -4  440906   21207                                                      446663   -0.06    0.04  1.0000
  -4  -7   4  478586   28325                                                      485119   -0.07    0.06  1.0000
   4  -7  -4  431841   25818                                                      437539   -0.06    0.04  1.0000
   4  -7  -4  496317   32865                                                      502424   -0.06    0.04  1.0000
   4  -7  -3  168278   13426                                                      169450    0.02    0.05  1.0000
   4  -7  -3  160739   15645                                                      161885    0.02    0.05  1.0000
   4  -7  -3  176678   19198                                                      177879    0.02    0.05  1.0000
   4  -7  -2   71384    9475                                                       73860   -0.03    0.29  1.0000
   4  -7  -2   79810   11219                                                       82452   -0.03    0.29  1.0000
   4  -7  -2   92114   14394                                                       94982   -0.03    0.29  1.0000
   4  -7  -1  269573   17822                                                      311120    0.54    0.02  1.0000
   4  -7  -1  250756   21014                                                      290880    0.54    0.02  1.0000
   4  -7  -1  273796   20782                                                      315656    0.54    0.02  1.0000
   4  -7   0  111018   14749                                                      139325    0.56    0.09  1.0000
   4  -7   0  129129   16097                                                      159533    0.56    0.09  1.0000
   4  -7   1    9277    7943                                                       -7523    1.35   -0.01  1.0000
   4  -7   1   19074    6865                                                        2415    1.35   -0.01  1.0000
  -4  -7  -2  868211   42194                                                      820691    0.37   -0.16  1.0000
   4  -7   2  910610   34328                                                      856096    0.40    0.04  1.0000
   4  -7   2  907139   35206                                                      852730    0.40    0.04  1.0000
  -4  -7  -3  632347   38565                                                      677730   -0.40    0.18  1.0000
   4  -7   3  703123   27481                                                      755765   -0.43   -0.05  1.0000
   4  -7   3  678055   30907                                                      729766   -0.43   -0.05  1.0000
   4  -7   3  653549   31910                                                      704335   -0.43   -0.05  1.0000
  -4  -7  -4   99682   15778                                                       93439   -0.14   -0.08  1.0000
   4  -7   4  117262   13282                                                      110711   -0.14   -0.04  1.0000
   4  -7   4   87867   12359                                                       82208   -0.14   -0.04  1.0000
  -4  -7  -5  422777   27834                                                      419854   -0.04    0.08  1.0000
   4  -7   5  419407   25062                                                      418165   -0.02    0.15  1.0000
  -4  -7  -6  575795   31396                                                      609797    0.31    0.03  1.0000
   4  -7   6  623771   29987                                                      659789    0.31    0.02  1.0000
  -4  -7  -7    2065    6089                                                        5223    0.37    0.03  1.0000
   4  -7   7   11426    7686                                                       17888    0.38    0.00  1.0000
  -4  -7  -8   89146   10166                                                       80570    0.22   -0.14  1.0000
  -4  -7  -9  147191   11665                                                      157070   -0.18    0.01  1.0000
  -4  -7 -10    4341    2886                                                        5493   -0.13    0.01  1.0000
   4  -8  -9   79245    6004                                                       58776   -0.55    0.00  1.0000
   4  -8  -9   59740    5416                                                       42168   -0.55    0.00  1.0000
   4  -8  -8   91368    8767                                                       87268   -0.09   -0.03  1.0000
   4  -8  -8  122376    9558                                                      117624   -0.09   -0.03  1.0000
   4  -8  -7   48757    6583                                                       38950   -0.33    0.07  1.0000
   4  -8  -7   29586    6552                                                       22058   -0.33    0.07  1.0000
   4  -8  -6   94511    7364                                                      103784   -0.21    0.04  1.0000
   4  -8  -6   84257   10017                                                       93024   -0.21    0.04  1.0000
   4  -8  -5  201585   17139                                                      209746   -0.13    0.01  1.0000
   4  -8  -5  224587   11987                                                      233197   -0.13    0.01  1.0000
   4  -8  -5  230841   15681                                                      239569   -0.13    0.01  1.0000
   4  -8  -5  184282   18332                                                      192089   -0.13    0.01  1.0000
   4  -8  -4  250564   13074                                                      245623    0.07   -0.04  1.0000
   4  -8  -4  240092   15827                                                      235256    0.07   -0.04  1.0000
   4  -8  -4  214372   18376                                                      209803    0.07   -0.04  1.0000
   4  -8  -4  223728   17530                                                      219060    0.07   -0.04  1.0000
   4  -8  -3   79689   11223                                                       89562   -0.23   -0.17  1.0000
   4  -8  -3   79957    8858                                                       89846   -0.23   -0.17  1.0000
   4  -8  -3   93221   10827                                                      103886   -0.23   -0.17  1.0000
   4  -8  -3   75274   12140                                                       84874   -0.23   -0.17  1.0000
   4  -8  -2  240289   14166                                                      245131    0.07   -0.01  1.0000
   4  -8  -2  219580   18312                                                      224209    0.07   -0.01  1.0000
   4  -8  -2  217171   16660                                                      221775    0.07   -0.01  1.0000
   4  -8  -1  143125   10422                                                      116702   -0.53    0.11  1.0000
   4  -8  -1  144665   13188                                                      118093   -0.53    0.11  1.0000
   4  -8  -1  145779   12646                                                      119101   -0.53    0.11  1.0000
   4  -8   0   19215    5059                                                        9919   -0.57    0.01  1.0000
   4  -8   0    1646    6173                                                       -5055   -0.57    0.01  1.0000
   4  -8   0    1646    5695                                                       -1583   -0.57    0.01  1.0000
   4  -8   1   39864    7865                                                       49188   -0.32    0.14  1.0000
   4  -8   1   38716    8604                                                       47909   -0.32    0.14  1.0000
   4  -8   1   35935    8432                                                       44806   -0.32    0.14  1.0000
   4  -8   2  327787   17156                                                      358355   -0.36   -0.03  1.0000
   4  -8   2  328193   19560                                                      358779   -0.36   -0.03  1.0000
   4  -8   2  311873   19562                                                      341706   -0.36   -0.03  1.0000
   4  -8   3  148608   13957                                                      168289   -0.35    0.03  1.0000
   4  -8   3   94341   11888                                                      110144   -0.35    0.03  1.0000
  -4  -8  -4     794    4446                                                        1562    0.16    0.02  1.0000
   4  -8   4     130    5103                                                       -1917    0.16    0.02  1.0000
  -4  -8  -5  263198   17148                                                      269272    0.08   -0.03  1.0000
   4  -8   5  300787   16570                                                      307565    0.09   -0.04  1.0000
  -4  -8  -6  193358   12302                                                      177762   -0.26    0.03  1.0000
  -4  -8  -7    2671    2914                                                        2088   -0.09    0.03  1.0000
   4  -9  -4  150185    9233                                                      117440    0.63    0.02  1.0000
   4  -9  -3   35180    6881                                                       49441   -0.49    0.03  1.0000
   4  -9  -2  163879   11741                                                      168321    0.08    0.00  1.0000
   4  -9  -1  184443   13227                                                      212947    0.45   -0.09  1.0000
  -4  -9  -1  223778    9955                                                      194928    0.44   -0.01  1.0000
  -4  -9  -2   47929    4787                                                       34678    0.46   -0.01  1.0000
  -5   0  17   44521    8064                                                       40671   -0.14    0.07  1.0000
  -5   0  16  193898   16510                                                      166151   -0.46   -0.06  1.0000
  -5   0  15    6927    8427                                                       17227   -0.67    0.00  1.0000
  -5   0  14  188415   19423                                                      152772    0.61   -0.04  1.0000
  -5   0  13  226671   20612                                                      169507    0.90    0.01  1.0000
  -5   0  12  312840   24595                                                      205946   -1.47    0.01  1.0000
  -5   0  12  247185   32032                                                      153405   -1.47    0.01  1.0000
  -5   0  12  312137   21799                                                      205376   -1.47    0.01  1.0000
  -5   0  11 1333761   54871                                                     1168999   -1.03   -0.02  1.0000
  -5   0  11 1160623   74332                                                     1007291   -1.03   -0.02  1.0000
  -5   0  11 1195007   47394                                                     1039341   -1.03   -0.02  1.0000
  -5   0  10 2526644  117837                                                     2864114    1.44    0.01  1.0000
  -5   0   9   64278   25750                                                      124525    1.39    0.02  1.0000
  -5   0   8    1471   16916                                                       64040   -3.03    0.07  1.0000
  -5   0   7  270790   19596                                                      103699    2.80    0.01  1.0000
  -5   0   6 2332344   69656                                                     2015752    1.50    0.05  1.0000
  -5   0   5  696172   45127                                                     1042251   -2.61   -0.05  1.0000
  -5   0   4  170949   16032                                                      144390   -0.47   -0.01  1.0000
  -5   0   326983396  166906                                                    22241298   -6.69    0.06  1.0000
  -5   0   327536804  268431                                                    22743994   -6.69    0.06  1.0000
  -5   0   2   71649   26003                                                      596614    7.06    0.03  1.0000
  -5   0   2   83940   45352                                                      631197    7.06    0.03  1.0000
  -5   0   1 4241804   61892                                                     3121352    4.09   -0.02  1.0000
  -5   0   1 4223441   95942                                                     3105602    4.09   -0.02  1.0000
   5   0   0 8957474   64378                                                    10060909   -2.50    0.00  1.0000
  -5   0   0 9030683  174032                                                    10138408   -2.50    0.00  1.0000
   5   0   1 1003995   24733                                                     1127580   -0.84   -0.01  1.0000
  -5   0  -1  892590   56675                                                     1009181   -0.84    0.01  1.0000
  -5   0  -2  111003   17351                                                       88267   -0.50   -0.02  1.0000
  -5   0  -2  106928   19018                                                       84637   -0.50   -0.02  1.0000
  -5   0  -3   36722   21423                                                      127388    2.33    0.01  1.0000
  -5   0  -4 2410799   86342                                                     2081971   -1.53   -0.02  1.0000
   5   0   5   12755   10879                                                       70352    2.13    0.01  1.0000
  -5   0  -5    4083   13686                                                       46630    2.13   -0.01  1.0000
   5   0   6  376390   12828                                                       98302    4.20    0.01  1.0000
   5   0   7 2493458   54597                                                     2256600    1.08   -0.01  1.0000
   5   0   8  501514   44262                                                      758530   -2.28   -0.02  1.0000
   5   0   8  492162   41268                                                      747018   -2.28   -0.02  1.0000
   5   0   8  489093   33398                                                      743236   -2.28   -0.02  1.0000
   5   0   9  267983   21578                                                      150361   -1.82    0.00  1.0000
   5   0   9  241823   19016                                                      130933   -1.82    0.00  1.0000
   5   0  10 2635512   86977                                                     2808345    0.73    0.01  1.0000
   5   0  10 2410564   64854                                                     2575977    0.73    0.01  1.0000
   5   0  10 2673296   81014                                                     2847344    0.73    0.01  1.0000
   5   0  11  837849   49652                                                      949737    0.83    0.00  1.0000
   5   0  11  745158   43687                                                      850875    0.83    0.00  1.0000
   5   0  11  782472   39644                                                      890717    0.83    0.00  1.0000
   5   0  12   58137   13452                                                       53040   -0.15    0.00  1.0000
   5   0  12   65490   13233                                                       60073   -0.15    0.00  1.0000
   5   0  13  314292   24199                                                      267007    0.61    0.01  1.0000
   5   0  13  316056   21269                                                      268633    0.61    0.01  1.0000
   5   0  14  383739   23870                                                      369442    0.16   -0.01  1.0000
   5   0  15   23552    6503                                                       26012   -0.11   -0.01  1.0000
  -5  -1  18   10658    4357                                                        6772   -0.29   -0.01  1.0000
  -5  -1  17  204040   17301                                                      222054    0.28   -0.11  1.0000
  -5  -1  16   48192   12383                                                       66210    0.52    0.10  1.0000
  -5  -1  15    5387    8230                                                        3263    0.23    0.05  1.0000
  -5  -1  14  222938   24377                                                      249294   -0.35   -0.29  1.0000
  -5  -1  13  153270   19335                                                      141038    0.22    0.10  1.0000
  -5  -1  12   42954   11134                                                       34322   -0.32   -0.18  1.0000
  -5  -1  12   82192   15997                                                       70147   -0.32   -0.18  1.0000
  -5   1  11 1229558   81172                                                     1137590   -0.59   -0.10  1.0000
  -5  -1  11 1355406   52995                                                     1262639   -0.57    0.13  1.0000
  -5  -1  11 1422201   58112                                                     1327138   -0.57    0.13  1.0000
  -5   1  10 1158083   80965                                                     1319038    1.01    0.13  1.0000
  -5   1   9 1210473   76968                                                     1380278    1.04    0.01  1.0000
  -5  -1   9 1156176   79600                                                     1320988    1.04   -0.04  1.0000
  -5   1   8   78276   25009                                                      155304   -1.60   -0.06  1.0000
  -5  -1   8   50692   25218                                                      115373   -1.60    0.00  1.0000
  -5   1   7 2812043   92144                                                     2783875    0.11    0.24  1.0000
  -5  -1   7 2786985   99815                                                     2764925    0.11   -0.31  1.0000
  -5  -1   6 3218265  113206                                                     4174482   -3.47    1.47  1.0000
  -5   1   6 3019558   99874                                                     3970704   -3.49   -1.36  1.0000
  -5  -1   5   28818   11610                                                       20985    1.67    1.70  1.0000
  -5   1   5   28460    9008                                                       20971    1.65   -1.67  1.0000
  -5  -1   5   29087   10112                                                       21525    1.67    1.70  1.0000
  -5   1   4 4520306  109370                                                     6179644    4.73    3.66  1.0000
  -5  -1   4 4861004  149072                                                     6513531    4.70   -3.65  1.0000
  -5   1   3  702914   40769                                                      913405    1.64   -1.40  1.0000
  -5  -1   3  722184   56813                                                      956112    1.63    1.35  1.0000
  -5   1   2 2956066   59706                                                     1942172   -4.67   -2.29  1.0000
  -5  -1   2 3012980   81209                                                     2008982   -4.67    2.25  1.0000
  -5   1   2 2924494   75036                                                     1916423   -4.67   -2.29  1.0000
  -5   1   1  557543   58874                                                     1230419   -4.95   -1.53  1.0000
  -5  -1   1  625504   65595                                                     1316188   -4.94    1.57  1.0000
  -5   1   1  518698   47690                                                     1172159   -4.95   -1.53  1.0000
  -5  -1   0 6068805  128691                                                     5000475    3.20   -0.49  1.0000
  -5  -1   0 6230687  131130                                                     5147544    3.20   -0.49  1.0000
  -5   1   0 6005761  115638                                                     4932376    3.20    0.49  1.0000
  -5  -1  -1 4236397  123605                                                     4378351   -0.48    0.52  1.0000
   5  -1   1 4027916   52971                                                     4168273   -0.49    0.51  1.0000
  -5   1  -1 4143640  109157                                                     4292661   -0.49   -0.51  1.0000
  -5  -1  -1 4200660  122478                                                     4342011   -0.48    0.52  1.0000
  -5   1  -2    2484   10696                                                       18182    0.95    1.18  1.0000
   5  -1   2    2727    5956                                                       21421    0.95   -1.18  1.0000
  -5  -1  -2    2180   11446                                                       19592    0.94   -1.21  1.0000
  -5  -1  -2    5254   14128                                                       29078    0.94   -1.21  1.0000
   5  -1   3 3520328   60591                                                     3776496    0.94    0.07  1.0000
  -5  -1  -3 3642433  126213                                                     3906004    0.95    0.10  1.0000
  -5  -1  -4  855281   50347                                                      549936   -2.59    0.30  1.0000
   5  -1   4  802797   24601                                                      507331   -2.60    0.26  1.0000
  -5  -1  -5  112667   15598                                                       29112   -2.36    0.16  1.0000
   5  -1   5   67256    7903                                                        8580   -2.36    0.12  1.0000
   5  -1   6 1067955   45198                                                     1347238   -1.79    0.31  1.0000
  -5  -1  -6 1096272   87528                                                     1378068   -1.78    0.31  1.0000
  -5  -1  -7 2096036  116223                                                     2251110   -0.73   -0.04  1.0000
   5  -1   7 2094449   60587                                                     2247960   -0.73    0.00  1.0000
   5  -1   8  496929   34174                                                      429929    0.69   -0.07  1.0000
   5   1   8  515444   34110                                                      446789    0.69    0.07  1.0000
   5  -1   8  474673   27579                                                      409244    0.69   -0.07  1.0000
   5  -1   8  520997   33597                                                      452337    0.69   -0.07  1.0000
   5  -1   9  351419   34477                                                      423461    0.81   -0.12  1.0000
   5   1   9  354893   34394                                                      427126    0.80    0.14  1.0000
   5   1   9  346586   25426                                                      418007    0.80    0.14  1.0000
   5  -1   9  330438   28030                                                      400395    0.81   -0.12  1.0000
   5  -1   9  326850   32000                                                      396444    0.81   -0.12  1.0000
   5  -1  10 1291269   61695                                                     1388637    0.59   -0.03  1.0000
   5   1  10 1245154   60153                                                     1340118    0.58    0.02  1.0000
   5   1  10 1414129   48629                                                     1515216    0.58    0.02  1.0000
   5  -1  10 1291520   51599                                                     1388897    0.59   -0.03  1.0000
   5  -1  10 1250193   56959                                                     1346028    0.59   -0.03  1.0000
   5  -1  11 1516665   62231                                                     1532766    0.09   -0.14  1.0000
   5   1  11 1441538   60518                                                     1457507    0.09    0.10  1.0000
   5  -1  11 1428314   57200                                                     1443937    0.09   -0.14  1.0000
   5   1  11 1507467   48230                                                     1523796    0.09    0.10  1.0000
   5  -1  11 1508339   48804                                                     1524396    0.09   -0.14  1.0000
   5  -1  12    1758   11419                                                      -11798   -0.59    0.00  1.0000
   5   1  12    1732   10050                                                       -4945   -0.58    0.02  1.0000
   5  -1  12       2    9163                                                        1728   -0.59    0.00  1.0000
   5  -1  12    1758    8380                                                       -9559   -0.59    0.00  1.0000
   5   1  13  291508   24164                                                      289691    0.03   -0.09  1.0000
   5  -1  13  282492   24696                                                      280072    0.03    0.10  1.0000
   5  -1  13  260677   18003                                                      258351    0.03    0.10  1.0000
   5  -1  13  292257   22942                                                      289796    0.03    0.10  1.0000
   5   1  14  255168   20893                                                      303809   -0.65    0.01  1.0000
   5  -1  14  244290   21325                                                      292219   -0.65   -0.02  1.0000
   5   1  15     249    3995                                                       -2126    0.22   -0.01  1.0000
   5  -1  15     250    4929                                                       -4204    0.22    0.02  1.0000
  -5  -2  18    2038    3529                                                        1944   -0.02    0.06  1.0000
  -5  -2  17   48453    8824                                                       43079   -0.18    0.00  1.0000
  -5  -2  16   69183   11577                                                       54271   -0.42   -0.05  1.0000
  -5  -2  15      38    9232                                                       -1273    0.08    0.04  1.0000
  -5  -2  14  304920   26242                                                      276235    0.37    0.09  1.0000
  -5  -2  13   54426   10460                                                       20581    1.26    0.06  1.0000
  -5  -2  12   46131   15055                                                       75187   -0.83    0.03  1.0000
  -5   2  11  440927   46414                                                      360344   -0.89   -0.05  1.0000
  -5  -2  11  434283   29649                                                      354094   -0.89    0.00  1.0000
  -5   2  10 2177291  108875                                                     2208150    0.15   -0.04  1.0000
  -5  -2  10 2229563   70784                                                     2258380    0.14   -0.08  1.0000
  -5   2   9  647519   54626                                                      634309   -0.11   -0.09  1.0000
  -5  -2   9  642114   57515                                                      629871   -0.11    0.13  1.0000
  -5   2   8  883599   55813                                                      748872    1.05   -0.08  1.0000
  -5  -2   8  824687   57647                                                      698417    1.01   -0.06  1.0000
  -5   2   7 6041150  140598                                                     5811488    0.66   -0.04  1.0000
  -5  -2   7 5917274  156266                                                     5690859    0.66    0.06  1.0000
  -5   2   6 1285744   64382                                                     1365898   -0.49    0.08  1.0000
  -5  -2   6 1280034   74009                                                     1355308   -0.46    0.02  1.0000
  -5  -2   5     277   10666                                                       11386    1.27   -0.51  1.0000
  -5   2   5     784    9135                                                       14386    1.28    0.20  1.0000
  -5   2   4  859879   38194                                                      537787   -2.77    0.63  1.0000
  -5  -2   4  902345   46423                                                      573422   -2.68   -0.72  1.0000
  -5   2   3 1405104   62669                                                     1551536    0.77    0.96  1.0000
  -5  -2   3 1468196   74472                                                     1587656    0.69   -0.92  1.0000
  -5  -2   2  220799   34949                                                      319817    1.34   -0.56  1.0000
  -5   2   2  227190   28615                                                      329586    1.33    0.52  1.0000
  -5   2   2  207831   30548                                                      306137    1.33    0.52  1.0000
  -5   2   1  179466   20139                                                      127143    0.93    0.21  1.0000
  -5  -2   1  198013   25368                                                      142547    0.96   -0.17  1.0000
  -5  -2   1  209158   25350                                                      152035    0.96   -0.17  1.0000
  -5  -2   0 1341300   59173                                                      906110    2.90   -0.22  1.0000
  -5  -2   0 1274610   59605                                                      851426    2.90   -0.22  1.0000
  -5   2   0 1277147   48072                                                      850587    2.90    0.19  1.0000
  -5  -2  -1 5650983  167052                                                     6581141   -2.63   -0.22  1.0000
  -5   2  -1 5811641  132453                                                     6750439   -2.62    0.17  1.0000
  -5  -2  -1 5799833  163958                                                     6741699   -2.63   -0.22  1.0000
  -5  -2  -2  319552   32161                                                      212161    1.46   -0.18  1.0000
  -5   2  -2  391718   27361                                                      272477    1.46    0.16  1.0000
  -5  -2  -3 2412910  106697                                                     2236690   -0.81    0.14  1.0000
  -5  -2  -4 3923321  144793                                                     3900645   -0.08    0.03  1.0000
  -5  -2  -5    2556   21117                                                       46040    2.30    0.08  1.0000
  -5  -2  -6 3198237  121131                                                     2274880    3.92    0.02  1.0000
   5  -2   7 1264617   50978                                                     1103150    1.04   -0.02  1.0000
   5   2   7 1325514   53257                                                     1160810    1.03    0.02  1.0000
  -5  -2  -7 1298794   89070                                                     1136150    1.03   -0.02  1.0000
   5  -2   7 1317448   52695                                                     1152530    1.04   -0.02  1.0000
   5  -2   7 1396484   44189                                                     1226529    1.04   -0.02  1.0000
   5  -2   8  600905   46285                                                      844510   -2.01   -0.13  1.0000
   5   2   8  606518   47131                                                      849533   -2.00    0.15  1.0000
   5  -2   8  608373   47271                                                      853359   -2.01   -0.13  1.0000
  -5  -2  -8  509332   74984                                                      734872   -2.00   -0.15  1.0000
   5  -2   9  503065   34669                                                      450809   -0.53   -0.01  1.0000
   5   2   9  486960   34704                                                      435935   -0.52   -0.02  1.0000
   5  -2   9  485183   34356                                                      433890   -0.53   -0.01  1.0000
   5  -2  10 1267986   57617                                                     1328228    0.37    0.08  1.0000
   5   2  10 1233581   57619                                                     1292888    0.37   -0.08  1.0000
   5  -2  10 1156731   55167                                                     1214299    0.37    0.08  1.0000
   5  -2  11  445782   30762                                                      401119   -0.48    0.03  1.0000
   5   2  11  445215   31142                                                      400076   -0.49   -0.01  1.0000
   5  -2  11  432733   30868                                                      388746   -0.48    0.03  1.0000
   5   2  12     594   10379                                                      -10789   -0.34   -0.01  1.0000
   5   2  12     594    9535                                                       -1733   -0.34   -0.01  1.0000
   5  -2  12     116    8221                                                        1203   -0.33    0.01  1.0000
   5  -2  12     572    8432                                                       -6513   -0.33    0.01  1.0000
   5   2  13  156598   16661                                                      161766   -0.09    0.04  1.0000
   5  -2  13  158279   18062                                                      164175   -0.10   -0.02  1.0000
   5  -2  13  168916   18254                                                      175005   -0.10   -0.02  1.0000
   5  -2  13  140483   14051                                                      146041   -0.10   -0.02  1.0000
   5   2  14  103744    9288                                                       79355    0.56    0.06  1.0000
   5  -2  14  114547   11829                                                       89180    0.56   -0.05  1.0000
   5  -2  14   89316    8358                                                       67095    0.56   -0.05  1.0000
  -5  -3  17   14995    5752                                                       12611   -0.14   -0.02  1.0000
  -5  -3  16   18846    8516                                                       26515    0.36   -0.01  1.0000
  -5  -3  16    5178    5218                                                        9503    0.36   -0.01  1.0000
  -5  -3  15    9167    8550                                                        9977   -0.05    0.12  1.0000
  -5  -3  14     975    8806                                                        5107   -0.69   -0.01  1.0000
  -5  -3  13 1009195   50741                                                     1088490   -0.54    0.13  1.0000
  -5  -3  12    1679    9290                                                       -4537    0.57    0.07  1.0000
  -5  -3  11  525275   38755                                                      602931    0.73   -0.15  1.0000
   5  -3 -10 1116854   40370                                                     1090790   -0.17   -0.09  1.0000
  -5   3  10 1307457   83647                                                     1280408   -0.17    0.09  1.0000
  -5  -3  10 1261694   54042                                                     1233459   -0.17   -0.08  1.0000
  -5  -3   9   39529   12081                                                       43831    0.16   -0.14  1.0000
   5  -3  -9   45911   10107                                                       50210    0.15   -0.18  1.0000
  -5   3   9   45708   18352                                                       51139    0.15    0.18  1.0000
  -5   3   8 1146389   70709                                                     1110430    0.23    0.22  1.0000
  -5   3   7 1632402   80769                                                     1689245   -0.31    0.16  1.0000
  -5   3   6 3414788  115826                                                     3838005   -1.55   -0.24  1.0000
  -5  -3   6 3557936  132260                                                     4001524   -1.60    0.38  1.0000
  -5   3   5   27900    8485                                                       10990    0.87    0.04  1.0000
  -5  -3   5   66878   14611                                                       39424    0.84    0.11  1.0000
  -5   3   4  561141   46647                                                      673585    1.00   -0.04  1.0000
  -5  -3   4  663893   56560                                                      785238    0.99    0.13  1.0000
  -5   3   3 2552023   92307                                                     2613546    0.28   -0.44  1.0000
  -5  -3   3 2545360  101501                                                     2618606    0.30    0.34  1.0000
  -5   3   2  285991   22892                                                      158061   -1.94    0.24  1.0000
  -5   3   2  202315   19078                                                       97583   -1.94    0.24  1.0000
  -5  -3   2  252730   24612                                                      131676   -1.95   -0.24  1.0000
  -5  -3   1  147825   30970                                                      215556   -1.10   -0.21  1.0000
  -5  -3   1  167304   34924                                                      238958   -1.10   -0.21  1.0000
  -5   3   1  167074   28421                                                      235827   -1.08    0.25  1.0000
  -5  -3   0 4008981  141057                                                     3977724    0.11    0.01  1.0000
  -5  -3   0 3928847  128265                                                     3897905    0.11    0.01  1.0000
  -5  -3  -1  392063   49595                                                      446777   -0.59    0.02  1.0000
  -5  -3  -2   56967   14794                                                       36658    0.67    0.18  1.0000
  -5  -3  -3  994679   76337                                                      934008   -0.43   -0.15  1.0000
  -5  -3  -4 2348248  117492                                                     2132651   -1.00   -0.19  1.0000
  -5  -3  -5  224047   30980                                                      128457   -1.61    0.00  1.0000
   5  -3   6  862514   50165                                                     1119600   -1.81   -0.07  1.0000
   5  -3   6  884596   41240                                                     1144740   -1.81   -0.07  1.0000
  -5  -3  -6  917376   94228                                                     1182299   -1.81   -0.07  1.0000
   5   3   7 5377247  117082                                                     5822967   -1.31   -0.13  1.0000
  -5  -3  -7 5485280  215681                                                     5933136   -1.31    0.13  1.0000
   5  -3   7 5353509   96186                                                     5794828   -1.31    0.05  1.0000
   5   3   8    2932    8451                                                        4140   -0.56   -0.05  1.0000
   5  -3   8    1997    9465                                                        2521   -0.56    0.04  1.0000
   5  -3   8   20978    9918                                                       26193   -0.56    0.04  1.0000
   5  -3   9  211741   25384                                                      286436    1.05   -0.13  1.0000
   5   3   9  249855   29003                                                      331382    1.05    0.16  1.0000
   5  -3   9  248906   29948                                                      329427    1.05   -0.13  1.0000
   5   3  10  593782   37680                                                      607659    0.13   -0.07  1.0000
   5  -3  10  539450   37783                                                      553447    0.13    0.11  1.0000
   5   3  11   48808   11513                                                       48336    0.00   -0.16  1.0000
   5  -3  11   89877   16176                                                       90350   -0.01    0.15  1.0000
   5  -3  12   15206    8172                                                       15635    0.02   -0.05  1.0000
   5  -3  12    8900    9706                                                        9226    0.02   -0.05  1.0000
   5  -3  12   14509    7881                                                       14928    0.02   -0.05  1.0000
   5  -3  13   35683    8156                                                       35800    0.00   -0.02  1.0000
   5  -3  13   32853    9681                                                       32965    0.00   -0.02  1.0000
   5  -3  13   39164    8676                                                       39287    0.00   -0.02  1.0000
   5  -3  14  280674   12852                                                      266454    0.19    0.04  1.0000
  -5  -4  16   83395    9125                                                       68913   -0.36   -0.08  1.0000
  -5  -4  16   59176    6032                                                       47083   -0.36   -0.08  1.0000
  -5  -4  15     755    7549                                                       -3450    0.38   -0.04  1.0000
  -5  -4  14  423043   28082                                                      417050    0.07   -0.03  1.0000
  -5  -4  13     711    7174                                                       -1661    0.36   -0.10  1.0000
  -5  -4  12    6177    7860                                                       12512   -0.47    0.12  1.0000
  -5  -4  12    2940    8825                                                        7628   -0.47    0.12  1.0000
  -5  -4  11  103536   16291                                                       94124   -0.22    0.11  1.0000
  -5  -4  11  101244   14436                                                       91938   -0.22    0.11  1.0000
   5  -4 -10  322556   22333                                                      278287   -0.58    0.13  1.0000
  -5  -4  10  293236   23116                                                      251889   -0.56    0.07  1.0000
  -5  -4  10  368279   27802                                                      321759   -0.56    0.07  1.0000
  -5  -4   9  134518   18154                                                      124110   -0.20   -0.02  1.0000
   5  -4  -9  147913   16078                                                      137165   -0.20   -0.06  1.0000
  -5  -4   8  120281   16866                                                      112523    0.16   -0.06  1.0000
   5  -4  -8   99880   13344                                                       94122    0.13   -0.07  1.0000
  -5   4   8  147282   28636                                                      139980    0.13    0.07  1.0000
   5  -4  -8   90290   29761                                                       84819    0.13   -0.07  1.0000
   5  -4  -7 2773812   63654                                                     2696266    0.33    0.06  1.0000
  -5  -4   7 2723983   73358                                                     2657546    0.28    0.09  1.0000
  -5   4   6 1508680   80468                                                     1552566   -0.25   -0.06  1.0000
  -5   4   5  370291   40410                                                      405327   -0.38   -0.33  1.0000
  -5   4   4  743352   49050                                                      588405   -1.32   -0.14  1.0000
  -5   4   3 1955289   89597                                                     1982632    0.14   -0.26  1.0000
  -5  -4   3 1854785   91548                                                     1887693    0.15    0.31  1.0000
  -5   4   2  391137   42065                                                      419464    0.31   -0.35  1.0000
  -5   4   1 1079588   63880                                                      924435    1.09   -0.02  1.0000
  -5  -4   0 1641812   93336                                                     1451857    1.06    0.14  1.0000
  -5  -4  -1 2132597  117593                                                     2176890   -0.21    0.01  1.0000
  -5  -4  -2  144930   25492                                                       94532   -1.03    0.16  1.0000
  -5  -4  -3 1341116   96316                                                     1306588   -0.21   -0.06  1.0000
  -5  -4  -4  643836   74711                                                      732377    0.74    0.10  1.0000
   5  -4   4  614872   31809                                                      699617    0.73    0.09  1.0000
   5  -4   5   15761    6381                                                        6680    2.88    0.03  1.0000
  -5  -4  -5    7370   15268                                                       14579    2.87   -0.03  1.0000
   5  -4   5   12997    9221                                                        8759    2.88    0.03  1.0000
   5  -4   6 1000202   36481                                                      817406    1.34    0.02  1.0000
   5  -4   6  914488   41710                                                      740103    1.34    0.02  1.0000
   5  -4   7  260513   21185                                                      237801    0.32    0.01  1.0000
   5  -4   7  270823   26596                                                      247656    0.32    0.01  1.0000
   5  -4   8 1253744   56685                                                     1268759   -0.09   -0.05  1.0000
   5  -4   8 1158793   45034                                                     1173229   -0.09   -0.05  1.0000
   5  -4   9    5630    9535                                                       11300    0.44    0.03  1.0000
  -5  -4 -10  524999   30308                                                      537580    0.12   -0.09  1.0000
   5  -4  10  525693   34710                                                      538634    0.12    0.04  1.0000
  -5  -4 -11  404305   22059                                                      393120   -0.12    0.02  1.0000
   5  -4  11  464825   29461                                                      451618   -0.14    0.02  1.0000
   5  -4  12   10938    7715                                                        9901    0.07   -0.09  1.0000
   5  -4  12    5220    6883                                                        4497    0.07   -0.09  1.0000
   5  -4  13  302292   13985                                                      253296    0.65    0.05  1.0000
  -5  -5  15    6287    3940                                                        4521    0.17   -0.01  1.0000
  -5  -5  15    2225    3365                                                        1233    0.17   -0.01  1.0000
   5  -5 -15     114    3415                                                       -2808    0.15    0.01  1.0000
  -5  -5  14   46138    8214                                                       48727   -0.08   -0.09  1.0000
  -5  -5  14   57965    9396                                                       60868   -0.08   -0.09  1.0000
  -5  -5  13  127313   14050                                                      138930   -0.22   -0.06  1.0000
  -5  -5  13  122493   15170                                                      133893   -0.22   -0.06  1.0000
  -5  -5  12   14783    7589                                                       12163   -0.16    0.06  1.0000
  -5  -5  12    6146    6416                                                        4497   -0.16    0.06  1.0000
  -5  -5  11  226342   22159                                                      261266    0.50   -0.05  1.0000
  -5  -5  11  235743   23152                                                      271360    0.50   -0.05  1.0000
  -5  -5  10  150187   19730                                                      178090    0.48    0.08  1.0000
  -5  -5  10  141780   19061                                                      168924    0.48    0.08  1.0000
  -5  -5   9  112790   16576                                                      123918    0.22    0.04  1.0000
   5  -5  -9   92371   14906                                                      102657    0.23    0.05  1.0000
  -5  -5   9  104296   16704                                                      115007    0.22    0.04  1.0000
  -5  -5   8   43221   10281                                                       44364   -0.04   -0.04  1.0000
   5  -5  -8   45138   10900                                                       46675   -0.05    0.02  1.0000
  -5  -5   8   34697   10090                                                       35721   -0.04   -0.04  1.0000
   5  -5  -7  653225   33446                                                      651757    0.01    0.06  1.0000
  -5  -5   7  628758   35390                                                      626898    0.02    0.01  1.0000
   5  -5  -6 1462567   47596                                                     1400197    0.37   -0.02  1.0000
  -5  -5   6 1523086   52447                                                     1462847    0.34    0.02  1.0000
   5  -5  -5  217968   19408                                                      146630    1.17   -0.06  1.0000
  -5  -5   5  194737   16039                                                      128063    1.17   -0.07  1.0000
  -5   5   5  157516   24218                                                       97844    1.17    0.06  1.0000
  -5   5   4  992961   73196                                                     1100220    0.73    0.10  1.0000
   5  -5  -4  974933   31164                                                     1080260    0.73   -0.10  1.0000
   5  -5  -4 1002301   46798                                                     1109060    0.73   -0.10  1.0000
  -5  -5   4 1024237   43891                                                     1132510    0.73   -0.07  1.0000
  -5   5   3  899831   66848                                                      929272    0.20    0.22  1.0000
   5  -5  -3  915952   28993                                                      942720    0.20   -0.22  1.0000
   5  -5  -3  956913   42945                                                      984276    0.20   -0.22  1.0000
  -5  -5   3  981837   40911                                                     1016221    0.25   -0.33  1.0000
  -5   5   2  535484   51026                                                      515172   -0.20    0.13  1.0000
   5  -5  -2  587361   22731                                                      565294   -0.20   -0.13  1.0000
  -5  -5   2  619010   30806                                                      596241   -0.20   -0.14  1.0000
   5  -5  -2  585679   31817                                                      563644   -0.20   -0.13  1.0000
  -5   5   1  644056   58072                                                      653655   -0.08   -0.04  1.0000
   5  -5  -1  578814   31646                                                      587596   -0.08    0.04  1.0000
   5  -5  -1  600335   23313                                                      609279   -0.08    0.04  1.0000
   5  -5   0 2330664   47787                                                     2519227   -0.85    0.06  1.0000
   5  -5   0 2327778   54409                                                     2516227   -0.85    0.06  1.0000
   5  -5   0 2411734   64377                                                     2603487   -0.85    0.06  1.0000
  -5   5   0 2359908  115647                                                     2550467   -0.85   -0.06  1.0000
   5  -5   1  510103   21297                                                      484193    0.25    0.06  1.0000
  -5  -5  -1  532876   61072                                                      507739    0.24    0.07  1.0000
   5  -5   1  553614   29160                                                      526607    0.25    0.06  1.0000
  -5   5  -1  507791   51544                                                      482505    0.25   -0.06  1.0000
   5  -5   2  145801   14049                                                      192740    0.80    0.08  1.0000
   5  -5   2  125780   16409                                                      169609    0.80    0.08  1.0000
   5  -5   2  125675   17278                                                      169487    0.80    0.08  1.0000
  -5  -5  -2  137552   41203                                                      181654    0.77    0.03  1.0000
   5  -5   3  840276   30211                                                      892088    0.38    0.16  1.0000
   5  -5   3  800942   37108                                                      851542    0.38    0.16  1.0000
   5  -5   3  855410   35007                                                      907681    0.38    0.16  1.0000
   5  -5   4  182351   13473                                                      131156   -0.93    0.11  1.0000
   5  -5   4  193900   16571                                                      140986   -0.93    0.11  1.0000
   5  -5   5   17520    5985                                                        8386   -0.97   -0.27  1.0000
   5  -5   5   12475    7150                                                        4428   -0.97   -0.27  1.0000
   5  -5   6  187991   24797                                                      257614   -1.04    0.10  1.0000
   5  -5   6  177730   21311                                                      245574   -1.04    0.10  1.0000
   5  -5   7  829757   43334                                                      870955   -0.31   -0.02  1.0000
   5  -5   7  855498   39586                                                      897323   -0.31   -0.02  1.0000
   5  -5   8  211863   21097                                                      206032    0.10   -0.12  1.0000
   5  -5   8  234586   21229                                                      228453    0.10   -0.12  1.0000
  -5  -5  -9     380    6768                                                       -1266   -0.27   -0.04  1.0000
   5  -5   9    9691    8381                                                        6389   -0.26   -0.01  1.0000
  -5  -5 -10  248775   18279                                                      235796   -0.18    0.00  1.0000
   5  -5  10  233216   18802                                                      220078   -0.19    0.02  1.0000
  -5  -5 -11  328931   18000                                                      350043    0.25   -0.02  1.0000
   5  -5  11  339103   20927                                                      360279    0.25   -0.04  1.0000
   5  -5  12    4537    6072                                                       15380   -0.79    0.01  1.0000
  -5  -6  14   16739    3266                                                       11625    0.30   -0.01  1.0000
  -5  -6  13   90856    8729                                                       76614    0.34    0.02  1.0000
   5  -6 -13   94314    8997                                                       79454    0.35    0.01  1.0000
  -5  -6  12    1136    5231                                                        1940   -0.15    0.01  1.0000
   5  -6 -12    3081    5874                                                        4358   -0.15    0.01  1.0000
  -5  -6  11  112731   13107                                                       98386   -0.31   -0.03  1.0000
   5  -6 -11  113366   14916                                                       98905   -0.31   -0.04  1.0000
   5  -6 -10  619123   36541                                                      552798   -0.60   -0.06  1.0000
  -5  -6  10  679576   30831                                                      609454   -0.61   -0.08  1.0000
  -5  -6   9   52081   10732                                                       43559   -0.27    0.01  1.0000
   5  -6  -9   33907   12727                                                       27059   -0.28    0.00  1.0000
  -5  -6   8   78440   12012                                                       64384    0.37   -0.04  1.0000
   5  -6  -8   57932   13809                                                       45541    0.39   -0.07  1.0000
   5  -6  -7  245585   28684                                                      273500   -0.38   -0.07  1.0000
  -5  -6   7  221632   21793                                                      247400   -0.37   -0.08  1.0000
  -5  -6   6  285469   24900                                                      334584   -0.62   -0.03  1.0000
   5  -6  -6  272912   22895                                                      320964   -0.61   -0.08  1.0000
   5  -6  -6  310310   30518                                                      361420   -0.61   -0.08  1.0000
   5  -6  -5      41    8454                                                         818   -0.48   -0.06  1.0000
   5  -6  -5    4445    5035                                                       10306   -0.48   -0.06  1.0000
  -5  -6   5    7539    7825                                                       14822   -0.49   -0.03  1.0000
   5  -6  -5    2716    5803                                                        7563   -0.48   -0.06  1.0000
  -5  -6   4   69630   10702                                                       42529   -0.81   -0.02  1.0000
   5  -6  -4   65113    7183                                                       39340   -0.80   -0.01  1.0000
   5  -6  -4   63595    8735                                                       38162   -0.80   -0.01  1.0000
   5  -6  -4   70375   13080                                                       43454   -0.80   -0.01  1.0000
   5  -6  -3 2283331   46008                                                     2192470   -0.42   -0.07  1.0000
   5  -6  -3 2252162   64641                                                     2161931   -0.42   -0.07  1.0000
  -5  -6   3 2334448   61864                                                     2241160   -0.43   -0.06  1.0000
   5  -6  -3 2220980   54779                                                     2131381   -0.42   -0.07  1.0000
   5  -6  -2    6232    4836                                                        4937   -0.11   -0.05  1.0000
   5  -6  -2    5538    4836                                                        4322   -0.11   -0.05  1.0000
   5  -6  -2   13921    8519                                                       11950   -0.11   -0.05  1.0000
   5  -6  -1  224976   15240                                                      219547    0.09   -0.13  1.0000
   5  -6  -1  211496   17034                                                      206230    0.09   -0.13  1.0000
   5  -6  -1  209613   19771                                                      204371    0.09   -0.13  1.0000
   5  -6   0  762831   26828                                                      712269    0.42   -0.07  1.0000
   5  -6   0  750225   34294                                                      700089    0.42   -0.07  1.0000
   5  -6   1  199200   15238                                                      221318   -0.32   -0.18  1.0000
   5  -6   1  178504   18042                                                      199466   -0.32   -0.18  1.0000
   5  -6   1  180086   18845                                                      201139   -0.32   -0.18  1.0000
   5  -6   2      35    4737                                                        3324   -0.69   -0.23  1.0000
   5  -6   2    2691    7035                                                       -7036   -0.69   -0.23  1.0000
   5  -6   2    2691    8556                                                       -8458   -0.69   -0.23  1.0000
   5  -6   3  243583   15908                                                      216328   -0.39   -0.19  1.0000
   5  -6   3  218234   16918                                                      192471   -0.39   -0.19  1.0000
   5  -6   3  201850   18038                                                      177098   -0.39   -0.19  1.0000
   5  -6   4 1046151   36853                                                     1053941    0.06   -0.06  1.0000
   5  -6   4  998561   40939                                                     1006171    0.06   -0.06  1.0000
   5  -6   5   17754    9299                                                       39718    0.92    0.02  1.0000
   5  -6   5    6565    9537                                                       21629    0.92    0.02  1.0000
   5  -6   6  240417   20332                                                      223327    0.24    0.08  1.0000
  -5  -6  -7  590354   33387                                                      603805   -0.13    0.12  1.0000
   5  -6   7  648521   32664                                                      662675   -0.13    0.12  1.0000
  -5  -6  -8   33196    8693                                                       31347    0.07    0.06  1.0000
   5  -6   8   34646    9674                                                       32972    0.06    0.09  1.0000
  -5  -6  -9   64005    9874                                                       61859   -0.06    0.00  1.0000
  -5  -6 -10  315712   16139                                                      303839   -0.15    0.00  1.0000
   5  -6  11   16779    5158                                                       16948    0.01   -0.01  1.0000
  -5  -7  12    5007    3234                                                        4453    0.06   -0.01  1.0000
  -5  -7  11  102050   10109                                                      106900    0.10    0.06  1.0000
   5  -7 -11   99802    9894                                                      104519    0.10    0.09  1.0000
  -5  -7  10  164848   14769                                                      200563    0.59    0.00  1.0000
   5  -7 -10  154798   15857                                                      188839    0.58    0.00  1.0000
  -5  -7   9  310809   20381                                                      331374    0.25    0.00  1.0000
   5  -7  -9  277821   22460                                                      297300    0.25   -0.01  1.0000
  -5  -7   8   27702    7796                                                       17622    0.47    0.03  1.0000
   5  -7  -8    5364    8263                                                        1539    0.48   -0.02  1.0000
   5  -7  -8    1194    4242                                                       -2731    0.48   -0.02  1.0000
  -5  -7   7  401243   24239                                                      402470   -0.01    0.00  1.0000
   5  -7  -7  372410   21031                                                      373340   -0.01    0.02  1.0000
   5  -7  -7  415515   29663                                                      416496   -0.01    0.02  1.0000
   5  -7  -6  110568    9234                                                      112285   -0.04    0.02  1.0000
  -5  -7   6  116503   14274                                                      117621   -0.02    0.01  1.0000
   5  -7  -6  104644   12199                                                      106314   -0.04    0.02  1.0000
   5  -7  -6  138534   19010                                                      140455   -0.04    0.02  1.0000
   5  -7  -5   58927    8772                                                       81945    0.61    0.09  1.0000
   5  -7  -5   63748   15877                                                       87615    0.61    0.09  1.0000
   5  -7  -5   44401    9767                                                       64627    0.61    0.09  1.0000
   5  -7  -4  735174   25748                                                      771428    0.29    0.09  1.0000
   5  -7  -4  690396   29590                                                      725541    0.29    0.09  1.0000
   5  -7  -4  788485   39552                                                      826016    0.29    0.09  1.0000
   5  -7  -3    1952    4708                                                        4257    0.66   -0.02  1.0000
   5  -7  -3    1403    4145                                                        2935    0.66   -0.02  1.0000
   5  -7  -3    5863    8758                                                       10902    0.66   -0.02  1.0000
   5  -7  -2  259520   16370                                                      280868    0.28    0.09  1.0000
   5  -7  -2  236127   17594                                                      256508    0.28    0.09  1.0000
   5  -7  -2  230293   19868                                                      250426    0.28    0.09  1.0000
   5  -7  -1   16552    5502                                                       11718    0.28    0.05  1.0000
   5  -7  -1     416    6978                                                       -1532    0.28    0.05  1.0000
   5  -7  -1     416    7934                                                       -5335    0.28    0.05  1.0000
   5  -7   0  279219   17820                                                      314432   -0.45    0.00  1.0000
   5  -7   0  232976   19534                                                      265232   -0.45    0.00  1.0000
   5  -7   0  258905   20851                                                      292851   -0.45    0.00  1.0000
   5  -7   1  535869   26540                                                      527250    0.08    0.05  1.0000
   5  -7   1  540070   27737                                                      531417    0.08    0.05  1.0000
  -5  -7  -2    3629    7879                                                          37    0.80   -0.29  1.0000
   5  -7   2    4796    5643                                                        -879    0.90    0.35  1.0000
   5  -7   2    6952    7572                                                        8526    0.90    0.35  1.0000
  -5  -7  -3  594372   36474                                                      626417    0.29    0.04  1.0000
   5  -7   3  678411   28719                                                      710067    0.27   -0.06  1.0000
   5  -7   3  602839   29671                                                      632698    0.27   -0.06  1.0000
  -5  -7  -4  264873   23289                                                      263902   -0.02    0.10  1.0000
   5  -7   4  322592   19974                                                      319818   -0.03    0.00  1.0000
   5  -7   4  249279   18982                                                      246842   -0.03    0.00  1.0000
  -5  -7  -5   31907    9617                                                       27665   -0.17   -0.04  1.0000
   5  -7   5   18851    7315                                                       15572   -0.17   -0.06  1.0000
  -5  -7  -6  225222   18771                                                      247805   -0.32   -0.05  1.0000
   5  -7   6  203832   17393                                                      225818   -0.33   -0.06  1.0000
  -5  -7  -7  173510   14428                                                      173970   -0.01    0.00  1.0000
  -5  -7  -8   19282    4766                                                       10004    0.55   -0.03  1.0000
  -5  -7  -9   76563    6773                                                       75911   -0.02   -0.01  1.0000
   5  -8  -9   44380    4087                                                       23651   -0.80    0.02  1.0000
   5  -8  -8    1254    2192                                                        1067    0.03    0.05  1.0000
   5  -8  -8      18    3867                                                        -549    0.03    0.05  1.0000
   5  -8  -8    3034    3844                                                        2746    0.03    0.05  1.0000
   5  -8  -7   90742    7711                                                       99867   -0.21    0.02  1.0000
   5  -8  -7   92694   10851                                                      101914   -0.21    0.02  1.0000
   5  -8  -6   34419    3958                                                       36433   -0.08    0.04  1.0000
   5  -8  -6   43457    5974                                                       45718   -0.08    0.04  1.0000
   5  -8  -6   22853    7054                                                       24498   -0.08    0.04  1.0000
   5  -8  -6   30006    7668                                                       31888   -0.08    0.04  1.0000
   5  -8  -5    4768    3135                                                        4069   -0.08   -0.04  1.0000
   5  -8  -5      37    7708                                                      -11190   -0.08   -0.04  1.0000
   5  -8  -5      37    6070                                                       -3567   -0.08   -0.04  1.0000
   5  -8  -4   94228    7118                                                       72189   -0.54    0.03  1.0000
   5  -8  -4   76726   10132                                                       56979   -0.54    0.03  1.0000
   5  -8  -4   73564    9342                                                       54258   -0.54    0.03  1.0000
   5  -8  -3  419820   16194                                                      393075   -0.29   -0.06  1.0000
   5  -8  -3  405035   22115                                                      378773   -0.29   -0.06  1.0000
   5  -8  -3  398169   20832                                                      372135   -0.29   -0.06  1.0000
   5  -8  -2   26819    5550                                                       21216   -0.26    0.00  1.0000
   5  -8  -2   16075    6117                                                       11810   -0.26    0.00  1.0000
   5  -8  -2    8342    5948                                                        5359   -0.26    0.00  1.0000
   5  -8  -1   68667    8638                                                       79031   -0.27    0.12  1.0000
   5  -8  -1   61275    9771                                                       71081   -0.27    0.12  1.0000
   5  -8  -1   61384    9830                                                       71198   -0.27    0.12  1.0000
   5  -8   0  126469   12069                                                      136942   -0.20    0.02  1.0000
   5  -8   0  130858   12934                                                      141507   -0.20    0.02  1.0000
   5  -8   1  159541   12706                                                      163478   -0.07   -0.01  1.0000
   5  -8   1  160221   13487                                                      164167   -0.07   -0.01  1.0000
   5  -8   2    3979    4812                                                        4505    0.06   -0.07  1.0000
   5  -8   2    6031    5406                                                        6681    0.06   -0.07  1.0000
   5  -8   3  119465   10709                                                      102704   -0.36    0.06  1.0000
  -5  -8  -4  189755   12047                                                      169875   -0.33    0.05  1.0000
   5  -8   4  268633   14643                                                      244409   -0.34    0.04  1.0000
  -5  -8  -5    4609    3547                                                        6113    0.15   -0.07  1.0000
   5  -9  -3  228284   11339                                                      230163    0.03    0.02  1.0000
   5  -9  -2   24522    5215                                                       34670    0.42   -0.03  1.0000
  -6   0  17      21    4497                                                         170   -0.12   -0.01  1.0000
  -6   0  16  179088   15556                                                      164935    0.24    0.00  1.0000
  -6   0  15  140489   17167                                                      153288   -0.23    0.02  1.0000
  -6   0  14     131    8511                                                        6627   -0.99    0.00  1.0000
  -6   0  13  797358   43992                                                      866501    0.53    0.02  1.0000
  -6   0  12 1149713   53001                                                     1261619    0.71   -0.01  1.0000
  -6   0  11  681929   39220                                                      683850    0.02   -0.04  1.0000
  -6   0  10  251803   39314                                                      312564   -0.80    0.04  1.0000
  -6   0   9  430458   35855                                                      285115    1.71   -0.01  1.0000
  -6   0   8  606047   46842                                                      598236    0.07   -0.02  1.0000
  -6   0   7  565502   48669                                                      740118   -1.51    0.10  1.0000
  -6   0   6   65091    9296                                                       17541   -1.73   -0.01  1.0000
  -6   0   5  722520   58504                                                     1594516    5.78   -0.05  1.0000
  -6   0   5  733530   84908                                                     1610855    5.78   -0.05  1.0000
  -6   0   4 2910255   80828                                                     3764306    3.27   -0.05  1.0000
  -6   0   4 2913113  126270                                                     3767556    3.27   -0.05  1.0000
  -6   0   3 9972386  220652                                                    12212989   -4.71   -0.03  1.0000
  -6   0   2 8662103  188713                                                     9255666   -1.39   -0.01  1.0000
  -6   0   1 1709701   84913                                                     1906363   -1.02    0.00  1.0000
  -6   0   0 1223777   87934                                                     2016632    4.39    0.03  1.0000
   6   0   1 1718148   31241                                                     1509436   -1.15    0.02  1.0000
  -6   0  -1 1690137   75549                                                     1482787   -1.15   -0.02  1.0000
   6   0   2   60828    8880                                                       81578    0.55   -0.02  1.0000
  -6   0  -2   52390   19146                                                       71941    0.55    0.02  1.0000
   6   0   3  125847   16798                                                      291370    2.59   -0.01  1.0000
  -6   0  -3  118038   33737                                                      279459    2.59    0.01  1.0000
   6   0   4 1501098   32142                                                      969365    3.36    0.02  1.0000
  -6   0  -4 1502829   64021                                                      971033    3.36   -0.02  1.0000
   6   0   5 1503547   44411                                                     1633375   -0.72   -0.01  1.0000
   6   0   6 1217493   55526                                                     1269599   -0.33   -0.02  1.0000
   6   0   6 1208925   41341                                                     1260849   -0.33   -0.02  1.0000
   6   0   7   40728   18808                                                      115278    1.93    0.00  1.0000
   6   0   7   49552   15252                                                      129833    1.93    0.00  1.0000
   6   0   8  967130   55289                                                     1142470    1.19    0.00  1.0000
   6   0   8  886682   40524                                                     1054881    1.19    0.00  1.0000
   6   0   8 1034412   53209                                                     1215499    1.19    0.00  1.0000
   6   0   9 1241090   53526                                                     1060540   -1.18    0.01  1.0000
   6   0   9 1237693   41907                                                     1057400   -1.18    0.01  1.0000
   6   0   9 1320607   51185                                                     1134140   -1.18    0.01  1.0000
   6   0  10    5500    9574                                                        -408   -1.04    0.00  1.0000
   6   0  10      34   10469                                                        6398   -1.04    0.00  1.0000
   6   0  10    5500   10331                                                       -6461   -1.04    0.00  1.0000
   6   0  11  182037   22747                                                      195264   -0.21   -0.01  1.0000
   6   0  11  197872   20945                                                      211652   -0.21   -0.01  1.0000
   6   0  12  701933   37264                                                      707204   -0.04    0.00  1.0000
   6   0  12  649982   31816                                                      655054   -0.04    0.00  1.0000
   6   0  13  189440   16576                                                      164594    0.41    0.00  1.0000
   6   0  14    5239    5007                                                        5726    0.05    0.00  1.0000
  -6  -1  18   20850    4771                                                       15725   -0.27    0.00  1.0000
  -6  -1  17   33036    7995                                                       36714   -0.14    0.00  1.0000
  -6  -1  16  126828   14862                                                      132726   -0.11   -0.04  1.0000
  -6  -1  15  139046   17190                                                      126703    0.23    0.12  1.0000
  -6  -1  14    2420    8039                                                        6935    0.39   -0.31  1.0000
  -6  -1  13  501871   35315                                                      517028    0.15    0.05  1.0000
  -6  -1  12 1290888   54314                                                     1261969   -0.18   -0.02  1.0000
  -6   1  11  303251   40848                                                      284098   -0.25    0.03  1.0000
  -6  -1  11  364693   28966                                                      342770   -0.26   -0.05  1.0000
  -6  -1  10    2515    9432                                                       16392   -2.48    0.16  1.0000
  -6   1  10   31784   10445                                                       -3234   -2.49   -0.12  1.0000
  -6   1   9 1038358   61636                                                      840351    1.44   -0.23  1.0000
  -6   1   8 1524020   68662                                                     1244529    1.66    0.34  1.0000
  -6  -1   7   76536   26058                                                      118256   -0.94   -0.03  1.0000
  -6   1   7   57236   18775                                                       95421   -0.97    0.03  1.0000
  -6   1   6 1022078   48248                                                      824605   -1.44    0.08  1.0000
  -6  -1   6 1019400   63518                                                      821110   -1.45    0.12  1.0000
  -6   1   5 1786061   64444                                                     1695825   -0.47   -0.28  1.0000
  -6  -1   5 1729060   86792                                                     1644755   -0.48    0.43  1.0000
  -6   1   4  902018   64233                                                     1884213   -5.84   -1.64  1.0000
  -6  -1   4  969291   92370                                                     1991062   -5.85    1.65  1.0000
  -6   1   4  803000   85102                                                     1739264   -5.84   -1.64  1.0000
  -6   1   3  944540   24528                                                      284020    6.18    0.97  1.0000
  -6  -1   3  979363   38212                                                      317820    6.13   -0.86  1.0000
  -6   1   3  961799   35026                                                      293591    6.18    0.97  1.0000
  -6   1   2 6225057  114559                                                     6007526    0.61    0.71  1.0000
  -6  -1   2 6348408  158021                                                     6143565    0.60   -0.65  1.0000
  -6   1   2 6230125  150292                                                     6012506    0.61    0.71  1.0000
  -6   1   1 3718573  100059                                                     4366651   -2.23   -0.73  1.0000
  -6   1   1 3595805  122654                                                     4233492   -2.23   -0.73  1.0000
  -6  -1   1 3789971  136114                                                     4429180   -2.21    0.74  1.0000
  -6  -1   0    7218   11059                                                        7558   -0.03   -0.14  1.0000
  -6   1   0      85   10559                                                       -7359   -0.04    0.12  1.0000
  -6   1  -1 1990213   86002                                                     2019072    0.15   -0.86  1.0000
   6  -1   1 1701696   38340                                                     1740524    0.15    0.86  1.0000
  -6  -1  -1 1878385   90744                                                     1920813    0.16    0.84  1.0000
  -6  -1  -1 1998496   94517                                                     2042362    0.16    0.84  1.0000
   6  -1   2 1741245   36271                                                     1409057   -1.85   -0.11  1.0000
  -6  -1  -2 1806944   82141                                                     1468257   -1.85   -0.10  1.0000
  -6   1  -2 1713402   72876                                                     1385768   -1.85    0.11  1.0000
  -6  -1  -2 1693122   79249                                                     1365838   -1.85   -0.10  1.0000
   6  -1   3  229144   22030                                                      415269   -2.32   -0.11  1.0000
  -6  -1  -3  257801   47499                                                      453163   -2.31   -0.16  1.0000
   6  -1   4  871301   34666                                                      916977   -0.33   -0.18  1.0000
  -6  -1  -4  893206   70930                                                      939815   -0.33   -0.21  1.0000
   6  -1   5 1759420   54437                                                     2015242   -1.29   -0.29  1.0000
  -6  -1  -5 1871576  111477                                                     2133701   -1.28   -0.29  1.0000
   6  -1   6  568982   40975                                                      665159   -0.86    0.15  1.0000
   6   1   6  500996   38356                                                      592955   -0.86   -0.15  1.0000
   6  -1   6  521887   32291                                                      614150   -0.86    0.15  1.0000
  -6  -1  -6  567141   64224                                                      663612   -0.86    0.15  1.0000
   6  -1   6  565117   40505                                                      660979   -0.86    0.15  1.0000
   6  -1   7   95292   15862                                                       68207   -0.66   -0.01  1.0000
   6   1   7   85411   14597                                                       60263   -0.66    0.01  1.0000
   6   1   7  121044   12821                                                       90692   -0.66    0.01  1.0000
   6  -1   7   67904   12208                                                       45391   -0.66   -0.01  1.0000
   6  -1   8 1059783   51669                                                      997676   -0.43    0.09  1.0000
   6   1   8  958296   48688                                                      898791   -0.43   -0.06  1.0000
   6   1   8 1045055   37941                                                      982873   -0.43   -0.06  1.0000
   6  -1   8 1009408   42574                                                      948815   -0.43    0.09  1.0000
   6  -1   8  981240   47356                                                      921512   -0.43    0.09  1.0000
   6  -1   9  732232   45060                                                      749394    0.14    0.09  1.0000
   6   1   9  698405   43444                                                      714134    0.13   -0.11  1.0000
   6   1   9  708866   33245                                                      724711    0.13   -0.11  1.0000
   6  -1   9  699435   37302                                                      716210    0.14    0.09  1.0000
   6  -1   9  641166   40320                                                      657230    0.14    0.09  1.0000
   6  -1  10  120422   20972                                                      155377    0.66   -0.02  1.0000
   6   1  10   90528   19544                                                      121121    0.66    0.01  1.0000
   6   1  10  102591   15629                                                      135015    0.66    0.01  1.0000
   6  -1  10   89124   17437                                                      119505    0.66   -0.02  1.0000
   6  -1  11  544204   33435                                                      488309    0.54   -0.01  1.0000
   6   1  11  520384   32822                                                      465809    0.54    0.03  1.0000
   6  -1  11  487239   29889                                                      434431    0.54   -0.01  1.0000
   6   1  12  560707   33677                                                      608231   -0.44    0.12  1.0000
   6  -1  12  521352   30449                                                      567660   -0.43   -0.12  1.0000
   6   1  13   94977   11809                                                       79933    0.35    0.03  1.0000
   6  -1  13   98035   12716                                                       82627    0.36   -0.04  1.0000
   6  -1  13   91504   11274                                                       76640    0.36   -0.04  1.0000
   6   1  14   20853    4857                                                       13870   -0.37   -0.02  1.0000
   6  -1  14   32994    6109                                                       24099   -0.37    0.02  1.0000
  -6  -2  17    6938    4840                                                        2095    0.54   -0.04  1.0000
  -6  -2  17    1505    4931                                                       -5126    0.54   -0.04  1.0000
  -6  -2  16   81132   12275                                                       71605    0.24    0.06  1.0000
  -6  -2  15  185245   20979                                                      210543   -0.40    0.16  1.0000
  -6  -2  14   38442   10348                                                       21123   -0.71    0.07  1.0000
  -6  -2  13  187124   24110                                                      225840    0.60   -0.07  1.0000
  -6  -2  12 1221062   58108                                                     1372138    0.92    0.14  1.0000
  -6  -2  11 1257527   56563                                                     1325268    0.42   -0.01  1.0000
  -6  -2  10    4226    8294                                                        5113   -0.71   -0.09  1.0000
  -6   2  10    2728    7879                                                       -3041   -0.72    0.10  1.0000
  -6   2   9 1093293   72390                                                     1086930    0.04    0.15  1.0000
  -6  -2   9 1165865   82661                                                     1156740    0.06    0.01  1.0000
  -6  -2   9 1120073   49791                                                     1111130    0.06    0.01  1.0000
  -6   2   8 1226403   69421                                                     1103410    0.80   -0.06  1.0000
  -6  -2   8 1162174   75898                                                     1049261    0.76   -0.26  1.0000
  -6   2   7  352718   34334                                                      294010   -0.73   -0.32  1.0000
  -6  -2   7  345294   39314                                                      284056   -0.76   -0.10  1.0000
  -6   2   6 1178093   68337                                                     1369968    1.18   -1.04  1.0000
  -6  -2   6 1154483   81056                                                     1344148    1.18    0.18  1.0000
  -6   2   5  585393   49359                                                      770211    1.56    0.26  1.0000
  -6  -2   5  583313   60392                                                      766066    1.52    0.57  1.0000
  -6   2   4   24017   10226                                                       28211    0.26    1.12  1.0000
  -6  -2   4   43141   18933                                                       49428    0.51   -1.53  1.0000
  -6   2   3 1886934   67756                                                     1639155    1.30    0.25  1.0000
  -6  -2   3 1892510   86376                                                     1656595    1.27   -0.58  1.0000
  -6   2   3 1996466   83197                                                     1741354    1.30    0.25  1.0000
  -6   2   2 2847739   99215                                                     3372340   -2.08    0.05  1.0000
  -6  -2   2 2822027  122686                                                     3350230   -2.10   -0.02  1.0000
  -6   2   2 3046496  116285                                                     3588338   -2.08    0.05  1.0000
  -6  -2   1 1680558   85463                                                     1587296    0.50    0.35  1.0000
  -6   2   1 1849473   80008                                                     1756984    0.50   -0.33  1.0000
  -6   2   1 1716713   70810                                                     1627625    0.50   -0.33  1.0000
  -6  -2   0  967189   66890                                                      923284    0.32    0.39  1.0000
  -6  -2   0  961676   67328                                                      917896    0.32    0.39  1.0000
  -6   2   0 1054366   59783                                                     1006291    0.34   -0.45  1.0000
  -6   2  -1  892484   54044                                                      842072   -0.39    0.14  1.0000
  -6  -2  -1  823115   64728                                                      773656   -0.38   -0.09  1.0000
  -6  -2  -1  876557   65535                                                      825494   -0.38   -0.09  1.0000
  -6  -2  -2 1914893  112126                                                     2313129    1.92   -0.11  1.0000
  -6  -2  -3   66588   30265                                                      137527    1.58   -0.10  1.0000
  -6  -2  -4 2252295  106501                                                     1829314    2.07    0.04  1.0000
   6   2   5 3152888   89442                                                     3445349   -1.13   -0.02  1.0000
  -6  -2  -5 3069034  149468                                                     3357370   -1.13    0.02  1.0000
   6  -2   5 3113544   85541                                                     3402899   -1.12   -0.01  1.0000
   6  -2   6   88201   16212                                                       80019    0.20    0.00  1.0000
   6   2   6   58533   14007                                                       51869    0.20   -0.01  1.0000
   6  -2   6   71316   11610                                                       63978    0.20    0.00  1.0000
   6  -2   6   79579   16326                                                       71817    0.20    0.00  1.0000
  -6  -2  -6   34051   16749                                                       28954    0.20    0.01  1.0000
   6  -2   7   62374   21177                                                      158385    2.07    0.09  1.0000
   6   2   7   77883   23616                                                      181966    2.07   -0.05  1.0000
   6  -2   7   90929   19670                                                      202296    2.07    0.09  1.0000
   6  -2   8 1470692   65186                                                     1685305    1.19    0.11  1.0000
   6   2   8 1514528   66938                                                     1731514    1.20   -0.12  1.0000
   6  -2   8 1454283   64462                                                     1667735    1.19    0.11  1.0000
   6  -2   9  601189   35295                                                      497954   -0.97   -0.09  1.0000
   6   2   9  681277   38848                                                      571991   -0.97    0.11  1.0000
   6   2   9  694386   29238                                                      584009   -0.97    0.11  1.0000
   6  -2   9  635022   36257                                                      528787   -0.97   -0.09  1.0000
   6  -2  10       9   11022                                                      -14314   -0.04   -0.02  1.0000
   6   2  10      10   11079                                                       -6004   -0.04   -0.01  1.0000
   6  -2  10   16705   11630                                                       16063   -0.04   -0.02  1.0000
   6   2  11  166352   19125                                                      156508    0.17    0.02  1.0000
   6  -2  11  193489   16658                                                      183538    0.16   -0.01  1.0000
   6  -2  11  182110   19545                                                      172459    0.16   -0.01  1.0000
   6   2  12  204710   18183                                                      204946    0.00    0.01  1.0000
   6  -2  12  252818   21987                                                      252916    0.00    0.01  1.0000
   6  -2  12  231750   20102                                                      231843    0.00    0.01  1.0000
   6  -2  12  207582   14970                                                      207670    0.00    0.01  1.0000
   6   2  13   31610    7711                                                       42123   -0.38   -0.06  1.0000
   6  -2  13   38814    9415                                                       50035   -0.38    0.06  1.0000
   6  -2  13   38962    9233                                                       50204   -0.38    0.06  1.0000
  -6  -3  17    5134    5211                                                       11788   -0.51   -0.10  1.0000
  -6  -3  16   23973    8207                                                       30006   -0.24   -0.15  1.0000
  -6  -3  16   26151    6665                                                       32440   -0.24   -0.15  1.0000
  -6  -3  15    9785    7443                                                        7961    0.26   -0.21  1.0000
  -6  -3  15     579    5882                                                       -4038    0.26   -0.21  1.0000
  -6  -3  14  124364   17182                                                      115253    0.19    0.22  1.0000
  -6  -3  14  119456   14809                                                      110525    0.19    0.22  1.0000
  -6  -3  13  663352   38022                                                      619534   -0.38   -0.02  1.0000
  -6  -3  12 1325270   55571                                                     1293108   -0.19   -0.14  1.0000
  -6  -3  11  966675   49837                                                     1002691    0.25    0.00  1.0000
  -6  -3  10     929    9838                                                         242   -0.47   -0.01  1.0000
  -6   3   9  249343   37441                                                      246511    0.04    0.01  1.0000
  -6  -3   9  266062   25952                                                      263269    0.04    0.02  1.0000
  -6  -3   8    1476    6990                                                       -5897    0.53   -0.05  1.0000
  -6   3   8    1717    9412                                                        -802    0.57    0.08  1.0000
  -6  -3   8   28733    9586                                                       18634    0.53   -0.05  1.0000
  -6   3   7    4648   13381                                                       15130    0.38    0.94  1.0000
  -6  -3   7   24223   17607                                                       39107    0.46   -0.49  1.0000
  -6   3   6 1933747   84233                                                     1826224   -0.59    0.72  1.0000
  -6  -3   6 1922071   96944                                                     1780624   -0.72   -0.11  1.0000
  -6   3   5 1344348   64774                                                     1128810   -1.35   -0.70  1.0000
  -6  -3   5 1406032   78556                                                     1195539   -1.34    0.69  1.0000
  -6   3   4  231550   24031                                                      155491   -1.21   -0.20  1.0000
  -6  -3   4  235566   29096                                                      157682   -1.26    0.25  1.0000
  -6   3   3 1286761   60800                                                     1035721    1.63   -0.02  1.0000
  -6  -3   3 1232002   69613                                                      997091    1.55    0.14  1.0000
  -6   3   3 1296178   66522                                                     1044171    1.63   -0.02  1.0000
  -6   3   2 2206831   93067                                                     2275710   -0.32    0.02  1.0000
  -6  -3   2 2228141  105747                                                     2298849   -0.33    0.06  1.0000
  -6  -3   1 2272200  105587                                                     2236230    0.19   -0.55  1.0000
  -6   3   1 2312207   93502                                                     2271360    0.18    0.55  1.0000
  -6  -3   0  134287   26372                                                      122072   -0.24   -0.27  1.0000
  -6  -3   0  136604   29263                                                      124285   -0.24   -0.27  1.0000
  -6  -3  -1  270784   40757                                                      249998   -0.28   -0.12  1.0000
  -6  -3  -2  880483   70364                                                      756627   -0.96    0.07  1.0000
  -6  -3  -3  181069   32138                                                      129271   -0.92    0.03  1.0000
  -6  -3  -4  528485   68514                                                      647245   -1.08    0.00  1.0000
   6  -3   4  541588   37759                                                      661579   -1.09    0.09  1.0000
   6  -3   4  513694   29377                                                      630708   -1.09    0.09  1.0000
   6   3   5 1552472   63923                                                     1688565   -0.75   -0.03  1.0000
  -6  -3  -5 1560169  114550                                                     1696125   -0.75    0.03  1.0000
   6  -3   5 1572796   49288                                                     1708475   -0.74    0.09  1.0000
   6  -3   5 1459763   61047                                                     1590576   -0.74    0.09  1.0000
   6   3   6  959594   51049                                                     1029221   -0.49    0.01  1.0000
   6  -3   6  908190   49093                                                      975741   -0.49   -0.03  1.0000
   6  -3   6  925907   39731                                                      994102   -0.49   -0.03  1.0000
   6   3   7 1893141   66723                                                     1808404   -0.43   -0.04  1.0000
   6  -3   7 1700114   51688                                                     1619665   -0.44   -0.02  1.0000
   6   3   8 1169680   50641                                                     1024751   -0.97   -0.06  1.0000
   6  -3   8 1140367   50813                                                      998024   -0.96    0.00  1.0000
   6  -3   9  489238   29079                                                      431219   -0.60    0.03  1.0000
   6   3   9  568102   34361                                                      504738   -0.60   -0.04  1.0000
   6  -3   9  626161   37488                                                      560286   -0.60    0.03  1.0000
   6   3  10    6796    7535                                                        5738   -0.11    0.09  1.0000
   6  -3  10      89   10434                                                       -4675   -0.11   -0.07  1.0000
   6  -3  11   15946    7616                                                       10262    0.36    0.00  1.0000
   6  -3  11    9090    8360                                                        4941    0.36    0.00  1.0000
   6  -3  12   93106   12114                                                       99469   -0.15    0.06  1.0000
   6  -3  12  116974   14685                                                      124096   -0.15    0.06  1.0000
   6  -3  12  116618   11411                                                      123729   -0.15    0.06  1.0000
   6  -3  13  142969   13018                                                      148038   -0.09   -0.03  1.0000
  -6  -4  16   86874    9658                                                       85005    0.04    0.02  1.0000
  -6  -4  15  102426    8325                                                       86379    0.37   -0.03  1.0000
  -6  -4  15  161874   14434                                                      141529    0.37   -0.03  1.0000
  -6  -4  14  110955   10227                                                       87990   -0.51    0.01  1.0000
  -6  -4  14  122845   11672                                                       98611   -0.51    0.01  1.0000
  -6  -4  13  116130   13070                                                      113664   -0.05    0.04  1.0000
  -6  -4  13  128622   14943                                                      126026   -0.05    0.04  1.0000
  -6  -4  13  163597   18909                                                      160669   -0.05    0.04  1.0000
  -6  -4  12  499827   27481                                                      495802   -0.04    0.04  1.0000
  -6  -4  12  506742   30204                                                      502688   -0.04    0.04  1.0000
  -6  -4  12  579876   35541                                                      575541   -0.04    0.04  1.0000
  -6  -4  11  545438   30640                                                      569477    0.22    0.03  1.0000
  -6  -4  11  496334   32632                                                      519277    0.22    0.03  1.0000
  -6  -4  11  563349   36928                                                      587776    0.22    0.03  1.0000
  -6  -4  10  141979   18337                                                      125641   -0.33    0.37  1.0000
  -6  -4  10  129462   15129                                                      113849   -0.33    0.37  1.0000
  -6  -4  10  117455   15136                                                      102572   -0.33    0.37  1.0000
  -6  -4   9   41002   12378                                                       47793   -0.24    0.11  1.0000
  -6  -4   9   31144   10679                                                       37084   -0.24    0.11  1.0000
  -6  -4   9   32752   10303                                                       38838   -0.24    0.11  1.0000
  -6  -4   8  282281   24872                                                      327951   -0.57   -0.13  1.0000
  -6  -4   8  306444   29414                                                      353959   -0.57   -0.13  1.0000
  -6  -4   8  265790   25341                                                      310155   -0.57   -0.13  1.0000
  -6   4   7  193136   28595                                                      163690   -0.49   -0.23  1.0000
  -6  -4   7  201226   18689                                                      174044   -0.44    0.10  1.0000
  -6  -4   7  163152   17437                                                      138770   -0.44    0.10  1.0000
  -6  -4   7  213913   21138                                                      185859   -0.44    0.10  1.0000
  -6   4   6  834140   64164                                                      879718    0.35   -0.14  1.0000
  -6  -4   6  797592   38713                                                      862888    0.51   -0.37  1.0000
  -6  -4   6  744748   39805                                                      807863    0.51   -0.37  1.0000
  -6  -4   6  750916   42101                                                      814290    0.51   -0.37  1.0000
  -6   4   5 1624556   87579                                                     1736094    0.60    0.02  1.0000
  -6  -4   5 1730098   52850                                                     1818464    0.46    0.20  1.0000
  -6  -4   5 1547726   58121                                                     1631355    0.46    0.20  1.0000
  -6   4   4  223903   29883                                                      199885   -0.36   -0.04  1.0000
  -6   4   3  576914   48974                                                      518256    0.57   -0.22  1.0000
  -6  -4   3  597058   53738                                                      527358    0.65    0.07  1.0000
  -6   4   2 2481762  112660                                                     2807165   -1.39   -0.14  1.0000
  -6   4   1  693630   59472                                                      745331   -0.42   -0.17  1.0000
  -6   4   0   21108   12620                                                       20883    0.01   -0.03  1.0000
   6  -4   1 1610064   41565                                                     1815453    1.10    0.02  1.0000
  -6  -4  -1 1491963  109811                                                     1687685    1.09   -0.04  1.0000
   6  -4   1 1485600   57314                                                     1683135    1.10    0.02  1.0000
  -6  -4  -2  860546   85560                                                      978757    0.86    0.02  1.0000
   6  -4   2  858412   37809                                                      976466    0.86    0.04  1.0000
   6  -4   2  794740   43253                                                      908475    0.86    0.04  1.0000
   6  -4   3     337    5613                                                        3046    0.95    0.02  1.0000
   6  -4   3     251    7525                                                        5387    0.95    0.02  1.0000
  -6  -4  -3    1343   13775                                                        9719    0.94    0.04  1.0000
   6  -4   4  457937   32395                                                      457379    0.00    0.08  1.0000
   6  -4   4  450284   26116                                                      449730    0.00    0.08  1.0000
   6  -4   5  451576   32810                                                      420362    0.33   -0.03  1.0000
   6  -4   5  523678   27938                                                      490023    0.33   -0.03  1.0000
   6  -4   6   12423   10348                                                       29861    0.83   -0.21  1.0000
   6  -4   6   11449   11061                                                       28339    0.83   -0.21  1.0000
   6  -4   7    2010   10929                                                        7274    1.18    0.24  1.0000
   6  -4   7    2076    8413                                                        7747    1.18    0.24  1.0000
   6  -4   8 1121049   51711                                                     1129280    0.06   -0.04  1.0000
   6  -4   8 1040441   40938                                                     1048371    0.06   -0.04  1.0000
   6  -4   9  939587   44652                                                      941161    0.01    0.00  1.0000
  -6  -4 -10   95807   13604                                                      121859    0.55   -0.09  1.0000
   6  -4  10  120927   18105                                                      150558    0.56   -0.12  1.0000
  -6  -4 -11  147935   10832                                                      136841    0.20    0.05  1.0000
   6  -4  11  180531   16709                                                      168062    0.21    0.05  1.0000
   6  -4  12  250341   17267                                                      266476   -0.22    0.05  1.0000
   6  -4  12  198322   12334                                                      212708   -0.22    0.05  1.0000
   6  -5 -15   30652    4734                                                       23674    0.29    0.03  1.0000
  -6  -5  14    7217    3647                                                        6204    0.09   -0.04  1.0000
   6  -5 -14      44    4614                                                       -1320    0.09   -0.02  1.0000
  -6  -5  14    1522    4756                                                        1071    0.09   -0.04  1.0000
  -6  -5  13  155963   13444                                                      166917    0.19   -0.04  1.0000
  -6  -5  13  161577   15796                                                      172723    0.19   -0.04  1.0000
  -6  -5  12  276544   20052                                                      296076    0.26   -0.13  1.0000
  -6  -5  12  275225   22201                                                      294711    0.26   -0.13  1.0000
  -6  -5  11   86093   12567                                                       82507   -0.08   -0.11  1.0000
  -6  -5  11   76771   12908                                                       73384   -0.08   -0.11  1.0000
  -6  -5  10   23688    7857                                                       20222   -0.17   -0.10  1.0000
  -6  -5  10   35684    8928                                                       31414   -0.17   -0.10  1.0000
  -6  -5   9   55581   10082                                                       38802    0.54    0.08  1.0000
  -6  -5   9   43536    8931                                                       28858    0.54    0.08  1.0000
  -6  -5   8  122515   14392                                                       90820    0.68    0.09  1.0000
  -6  -5   8   97330   13060                                                       69336    0.68    0.09  1.0000
  -6  -5   7    6783    7238                                                        3231    0.36    0.02  1.0000
  -6  -5   7   26490    9591                                                       18837    0.36    0.02  1.0000
  -6  -5   6  426379   27150                                                      406078   -0.23    0.17  1.0000
   6  -5  -6  369898   29025                                                      354056   -0.19    0.07  1.0000
  -6  -5   5 1110874   43816                                                     1119210    0.06   -0.05  1.0000
   6  -5  -5 1052008   47013                                                     1064130    0.08   -0.07  1.0000
   6  -5  -4   14181    5304                                                       18691    0.25   -0.02  1.0000
  -6  -5   4    6676    7378                                                        9925    0.26   -0.03  1.0000
   6  -5  -3  277697   14958                                                      247680    0.41   -0.09  1.0000
  -6  -5   3  260629   20306                                                      232080    0.41   -0.06  1.0000
   6  -5  -3  251689   21537                                                      223150    0.41   -0.09  1.0000
   6  -5  -2 2194527   44030                                                     2155631    0.18    0.09  1.0000
   6  -5  -2 2103954   60550                                                     2065871    0.18    0.09  1.0000
   6  -5  -1 1204847   31157                                                     1047931    1.03    0.07  1.0000
   6  -5  -1 1188588   42230                                                     1032771    1.03    0.07  1.0000
   6  -5  -1 1120832   43880                                                      969679    1.03    0.07  1.0000
   6  -5   0   63634    9164                                                       68425    0.13    0.03  1.0000
   6  -5   0   54592   11212                                                       59035    0.13    0.03  1.0000
   6  -5   0   39679   10774                                                       43479    0.13    0.03  1.0000
   6  -5   1  662197   24950                                                      604921   -0.51    0.09  1.0000
   6  -5   1  685168   32426                                                      626885   -0.51    0.09  1.0000
   6  -5   1  673909   35304                                                      616117   -0.51    0.09  1.0000
   6  -5   2  373517   20409                                                      293830   -0.97   -0.03  1.0000
   6  -5   2  355175   21846                                                      277588   -0.97   -0.03  1.0000
   6  -5   3   29477    7925                                                       40692   -0.42   -0.08  1.0000
   6  -5   3   29009   10042                                                       40141   -0.42   -0.08  1.0000
   6  -5   4  136279   17358                                                      163836   -0.51    0.13  1.0000
   6  -5   5  279895   22777                                                      289899   -0.13    0.02  1.0000
   6  -5   6  153171   19669                                                      162095   -0.15   -0.10  1.0000
   6  -5   6  165362   18069                                                      174630   -0.15   -0.10  1.0000
   6  -5   7  113213   14776                                                       90349   -0.50   -0.07  1.0000
   6  -5   7  136621   14669                                                      111379   -0.50   -0.07  1.0000
   6  -5   8  448181   28653                                                      460205    0.13   -0.10  1.0000
   6  -5   8  501694   27836                                                      514414    0.13   -0.10  1.0000
  -6  -5  -9  426863   24761                                                      419463   -0.08    0.05  1.0000
   6  -5   9  424177   25038                                                      415698   -0.09    0.04  1.0000
  -6  -5 -10   70164    8828                                                       63142   -0.19    0.06  1.0000
   6  -5  10   73505    9797                                                       66686   -0.18    0.07  1.0000
   6  -5  11  125624    9983                                                      122467    0.06    0.01  1.0000
   6  -5  11  140162   10376                                                      136826    0.06    0.01  1.0000
  -6  -6  13   45277    5638                                                       41014   -0.14   -0.02  1.0000
   6  -6 -13   41948    6279                                                       37792   -0.14   -0.03  1.0000
  -6  -6  12  151295   11898                                                      152235    0.02    0.00  1.0000
   6  -6 -12  166388   14626                                                      167346    0.02   -0.02  1.0000
  -6  -6  11  170155   14681                                                      188011    0.29    0.03  1.0000
   6  -6 -11  183665   18598                                                      201590    0.28    0.04  1.0000
  -6  -6  10   51161   10015                                                       57689   -0.20    0.03  1.0000
   6  -6 -10   65386   14166                                                       72879   -0.20    0.04  1.0000
  -6  -6   9  128490   15802                                                      159891   -0.57   -0.08  1.0000
   6  -6  -9  152590   22379                                                      186859   -0.58   -0.05  1.0000
  -6  -6   8   77301   13226                                                       87140   -0.24    0.05  1.0000
   6  -6  -8   70921   16652                                                       80111   -0.24    0.06  1.0000
  -6  -6   7    3830    6308                                                        7238   -0.31   -0.12  1.0000
   6  -6  -7     648    5334                                                       -3891   -0.29   -0.20  1.0000
   6  -6  -7    6141    9610                                                       10456   -0.29   -0.20  1.0000
  -6  -6   6  127749   14946                                                      121828   -0.11   -0.09  1.0000
   6  -6  -6  114336   12340                                                      108858   -0.11   -0.13  1.0000
   6  -6  -6  124000   18353                                                      118296   -0.11   -0.13  1.0000
   6  -6  -5  107834    9889                                                      110625    0.06    0.00  1.0000
  -6  -6   5   95425   14199                                                       97715    0.05    0.01  1.0000
   6  -6  -5  107423   12245                                                      110208    0.06    0.00  1.0000
   6  -6  -5   96891   16024                                                       99538    0.06    0.00  1.0000
   6  -6  -4  352511   17252                                                      330765   -0.26    0.07  1.0000
   6  -6  -4  348949   19931                                                      327315   -0.26    0.07  1.0000
   6  -6  -4  312821   24632                                                      292354   -0.26    0.07  1.0000
   6  -6  -3  957327   30113                                                      994498   -0.26   -0.07  1.0000
   6  -6  -3  937787   33309                                                      974580   -0.26   -0.07  1.0000
   6  -6  -3  860428   40298                                                      895685   -0.26   -0.07  1.0000
   6  -6  -2  867498   29822                                                      945620   -0.57   -0.14  1.0000
   6  -6  -2  881381   32987                                                      960113   -0.57   -0.14  1.0000
   6  -6  -2  810060   38967                                                      885607   -0.57   -0.14  1.0000
   6  -6  -1  434973   22506                                                      499058   -0.65   -0.18  1.0000
   6  -6  -1  439264   28897                                                      503654   -0.65   -0.18  1.0000
   6  -6   0   10109    5750                                                        9114   -0.07   -0.07  1.0000
   6  -6   0      48    7397                                                       -7349   -0.07   -0.07  1.0000
   6  -6   0    2502    7683                                                        2010   -0.07   -0.07  1.0000
   6  -6   1  152038   15105                                                      152093    0.00    0.04  1.0000
   6  -6   1  173637   17801                                                      173696    0.00    0.04  1.0000
   6  -6   2  206697   18032                                                      241778    0.53   -0.13  1.0000
   6  -6   2  212346   20768                                                      247886    0.53   -0.13  1.0000
   6  -6   3  141994   14522                                                      171468    0.52    0.01  1.0000
   6  -6   3  132601   17251                                                      161131    0.52    0.01  1.0000
   6  -6   4  344367   20302                                                      350363   -0.07   -0.05  1.0000
   6  -6   4  293846   22304                                                      299385   -0.07   -0.05  1.0000
   6  -6   5  430167   26423                                                      432505   -0.03    0.05  1.0000
  -6  -6  -6  105268   15024                                                       95645    0.21    0.06  1.0000
   6  -6   6  115830   14391                                                      105974    0.20    0.05  1.0000
  -6  -6  -7  134626   15385                                                      129273   -0.10   -0.02  1.0000
   6  -6   7  163902   15821                                                      157933   -0.10    0.01  1.0000
  -6  -6  -8  289660   18676                                                      281574   -0.11    0.08  1.0000
  -6  -6  -9  182045   12435                                                      171747   -0.17   -0.05  1.0000
   6  -7 -11   31494    5119                                                       24115   -0.31    0.05  1.0000
   6  -7 -10    4943    5350                                                        8912    0.34    0.02  1.0000
   6  -7  -9  182154   16243                                                      185996   -0.06   -0.07  1.0000
   6  -7  -8  173290    9642                                                      135423    0.68   -0.07  1.0000
   6  -7  -8  266191   19326                                                      218714    0.68   -0.07  1.0000
   6  -7  -7    6108    3794                                                        9329    0.26   -0.03  1.0000
   6  -7  -7    6614    8596                                                        9952    0.26   -0.03  1.0000
   6  -7  -6  167459   11827                                                      163677   -0.07    0.04  1.0000
   6  -7  -6  182988   18486                                                      179033   -0.07    0.04  1.0000
   6  -7  -5  182622   11574                                                      186005    0.05    0.02  1.0000
   6  -7  -5  159799   12110                                                      162966    0.05    0.02  1.0000
   6  -7  -5  171260   18012                                                      174537    0.05    0.02  1.0000
   6  -7  -4  202108   12463                                                      191900    0.16   -0.05  1.0000
   6  -7  -4  218386   14050                                                      207770    0.16   -0.05  1.0000
   6  -7  -4  189598   17743                                                      179714    0.16   -0.05  1.0000
   6  -7  -3    6610    3938                                                        4961    0.15    0.04  1.0000
   6  -7  -2  331399   16904                                                      315353    0.20    0.02  1.0000
   6  -7  -2  280710   19645                                                      265958    0.20    0.02  1.0000
   6  -7  -2  281048   19894                                                      266287    0.20    0.02  1.0000
   6  -7  -1  294468   18443                                                      251116    0.58    0.05  1.0000
   6  -7  -1  322212   19798                                                      276785    0.58    0.05  1.0000
   6  -7   0   59584    8446                                                       42417    0.53    0.05  1.0000
   6  -7   0   67437    9553                                                       49082    0.53    0.05  1.0000
   6  -7   1  215300   15006                                                      194375   -0.32   -0.12  1.0000
   6  -7   1  222093   16920                                                      200833   -0.32   -0.12  1.0000
   6  -7   2  510683   22154                                                      489463   -0.21    0.09  1.0000
   6  -7   2  492008   25227                                                      471182   -0.21    0.09  1.0000
  -6  -7  -3     140    6783                                                       -2245    0.12   -0.11  1.0000
   6  -7   3    1107    4149                                                        1763    0.13    0.05  1.0000
   6  -7   3    2846    6951                                                        3865    0.13    0.05  1.0000
  -6  -7  -4   95314   14280                                                      103074   -0.17   -0.08  1.0000
   6  -7   4  115914   13338                                                      123941   -0.16   -0.02  1.0000
  -6  -7  -5  291152   20186                                                      290039    0.01    0.01  1.0000
   6  -7   5  320078   19411                                                      319390    0.01   -0.03  1.0000
  -6  -7  -6   17299    6306                                                       17122    0.01    0.01  1.0000
   6  -7   6   17714    6554                                                       17595    0.01   -0.01  1.0000
  -6  -7  -7   39574    6462                                                       37757   -0.06   -0.05  1.0000
   6  -8  -8   56078    6591                                                       55824    0.00    0.07  1.0000
   6  -8  -7     104    4921                                                       -7382   -0.14    0.01  1.0000
   6  -8  -7     104    4339                                                       -9050   -0.14    0.01  1.0000
   6  -8  -6   26869    5632                                                       20418   -0.31    0.10  1.0000
   6  -8  -6   27767    5830                                                       21203   -0.31    0.10  1.0000
   6  -8  -5   30220    7214                                                       34786    0.17    0.06  1.0000
   6  -8  -5   50775    8262                                                       56650    0.17    0.06  1.0000
   6  -8  -4   22905    5517                                                       15955   -0.35    0.00  1.0000
   6  -8  -4   38690    6703                                                       29469   -0.35    0.00  1.0000
   6  -8  -3  153517   12394                                                      148917    0.08   -0.02  1.0000
   6  -8  -3  142155   12154                                                      137729    0.08   -0.02  1.0000
   6  -8  -2  198604   13706                                                      208724   -0.16    0.02  1.0000
   6  -8  -2  234140   15580                                                      245118   -0.16    0.02  1.0000
   6  -8  -1   74139    8754                                                       79316   -0.13    0.05  1.0000
   6  -8  -1   76715    9948                                                       81980   -0.13    0.05  1.0000
   6  -8   0    7770    4882                                                       15580   -0.51    0.09  1.0000
   6  -8   0    5001    5603                                                       11531   -0.51    0.09  1.0000
   6  -8   1  116584    9400                                                      111354   -0.11    0.05  1.0000
   6  -8   1  106915   10299                                                      101908   -0.11    0.05  1.0000
   6  -8   2  110217   10231                                                      116749    0.14   -0.03  1.0000
   6  -8   3   25275    5890                                                       28932    0.16    0.00  1.0000
   6  -8   4   80963    7504                                                       77016    0.10    0.00  1.0000
  -7   0  18   10491    3823                                                       10557    0.00    0.00  1.0000
  -7   0  17   53005    8651                                                       53177   -0.01    0.01  1.0000
  -7   0  16      31    5150                                                        2198   -0.72    0.00  1.0000
  -7   0  15  126238   15758                                                      151344    0.47   -0.02  1.0000
  -7   0  14  501722   30865                                                      494222   -0.07    0.01  1.0000
  -7   0  13  234635   21264                                                      207875   -0.40    0.00  1.0000
  -7   0  12   18440    8760                                                       13367   -0.28    0.03  1.0000
  -7   0  11  353932   25308                                                      257382    1.23    0.00  1.0000
  -7   0  10   36669   10001                                                       31965    0.18    0.02  1.0000
  -7   0   9       0   10354                                                       20238   -1.99    0.07  1.0000
  -7   0   8  103601   43737                                                      283437    2.95   -0.03  1.0000
  -7   0   7  782004   85596                                                     1217149    3.06    0.00  1.0000
  -7   0   6  340393   26602                                                       93461   -3.88   -0.16  1.0000
  -7   0   5    9447   15191                                                        3179    0.60   -0.02  1.0000
  -7   0   4 9197879  206443                                                     8328365    2.05   -0.06  1.0000
  -7   0   3  887498   56655                                                      605610    2.29    0.01  1.0000
  -7   0   2 1257681   77511                                                     1252059   -0.04    0.05  1.0000
  -7   0   1 5833284  162577                                                     5441511   -1.15    0.00  1.0000
  -7   0   0 2073233  103612                                                     2262860    0.90    0.02  1.0000
  -7   0  -1     330   12996                                                        3837   -1.11    0.01  1.0000
   7   0   2   86654    9290                                                       69771    0.42    0.00  1.0000
  -7   0  -2   78929   21895                                                       62895    0.42    0.00  1.0000
   7   0   3 1328516   38828                                                     1479227   -0.89    0.03  1.0000
   7   0   4  124159   10392                                                       65194    1.36    0.01  1.0000
   7   0   4  162576   16705                                                       93749    1.36    0.01  1.0000
   7   0   4  173803   18064                                                      102321    1.36    0.01  1.0000
   7   0   5   42957   17545                                                       93762    1.38    0.03  1.0000
   7   0   5   52527   13060                                                      107673    1.38    0.03  1.0000
   7   0   5   61365   19356                                                      120181    1.38    0.03  1.0000
   7   0   6  956070   48851                                                      907499   -0.35    0.00  1.0000
   7   0   6  951085   36149                                                      902642   -0.35    0.00  1.0000
   7   0   7  480574   31774                                                      345880   -1.47   -0.02  1.0000
   7   0   7  429603   22603                                                      302853   -1.47   -0.02  1.0000
   7   0   8   15027   12789                                                       18467    0.19   -0.02  1.0000
   7   0   8    9402    8107                                                       12160    0.19   -0.02  1.0000
   7   0   8     179    8738                                                        -596    0.19   -0.02  1.0000
   7   0   9  718316   40116                                                      619498    0.85    0.01  1.0000
   7   0   9  661477   34552                                                      566797    0.85    0.01  1.0000
   7   0   9  638971   30775                                                      545978    0.85    0.01  1.0000
   7   0  10  384162   29945                                                      378865    0.06    0.02  1.0000
   7   0  10  353399   25571                                                      348319    0.06    0.02  1.0000
   7   0  11  166062   18806                                                      168774   -0.05   -0.01  1.0000
   7   0  11  157912   16117                                                      160558   -0.05   -0.01  1.0000
   7   0  13  130131   11053                                                      113858   -0.33    0.00  1.0000
  -7  -1  18   37876    5017                                                       30651    0.28   -0.10  1.0000
  -7  -1  17   16788    5171                                                       10143    0.41   -0.01  1.0000
  -7   1  17   28587    5783                                                       19638    0.40    0.02  1.0000
  -7  -1  17   23153    5527                                                       15207    0.41   -0.01  1.0000
  -7  -1  16    1134    6232                                                       -4020   -0.47    0.04  1.0000
  -7  -1  15  149197   16456                                                      130463   -0.35    0.02  1.0000
  -7  -1  14  443194   31675                                                      494655    0.52    0.04  1.0000
  -7  -1  13  340055   28539                                                      357582    0.20    0.17  1.0000
  -7  -1  12    4529    9668                                                         889   -0.70   -0.31  1.0000
  -7  -1  11   19868    8932                                                        2462    1.29    0.11  1.0000
  -7  -1  10  338508   56049                                                      458673   -1.34    0.07  1.0000
  -7  -1  10  362188   33690                                                      486175   -1.34    0.07  1.0000
  -7  -1   9    5960   10532                                                       40831   -1.75    0.08  1.0000
  -7  -1   9   15570   23209                                                       62338   -1.75    0.08  1.0000
  -7   1   8  568259   52550                                                      703534    1.17    0.28  1.0000
  -7  -1   8  575182   67231                                                      708800    1.17   -0.25  1.0000
  -7  -1   7 1232936   82684                                                     1126080   -0.69    0.14  1.0000
  -7   1   7 1213730   63087                                                     1106850   -0.70    0.21  1.0000
  -7  -1   6   93677   18085                                                       43300   -1.55    0.81  1.0000
  -7   1   6  104076   20178                                                       45798   -1.55   -0.58  1.0000
  -7   1   6  106376   13082                                                       47353   -1.55   -0.58  1.0000
  -7   1   5 2201896   75323                                                     2102171    0.49    1.10  1.0000
  -7  -1   5 2139957  106341                                                     2047922    0.47   -0.69  1.0000
  -7   1   5 2124561  103786                                                     2026512    0.49    1.10  1.0000
  -7   1   4  939035   51971                                                     1093700   -1.05   -0.42  1.0000
  -7  -1   4 1017770   80151                                                     1176859   -1.07    0.48  1.0000
  -7   1   4  946669   76101                                                     1101940   -1.05   -0.42  1.0000
  -7  -1   3 1454557   88374                                                     1512056   -0.33   -0.07  1.0000
  -7   1   3 1491376   86188                                                     1548146   -0.32   -0.06  1.0000
  -7  -1   2  229261   27630                                                      120801   -1.84    0.02  1.0000
  -7   1   2  240576   25606                                                      128650   -1.84   -0.06  1.0000
  -7  -1   1 4047769  149809                                                     4401350    1.21   -0.48  1.0000
  -7   1   1 4133724  141925                                                     4498489    1.21    0.46  1.0000
  -7  -1   0 4029297  138362                                                     3708977   -1.13   -0.18  1.0000
  -7   1   0 4145264  132206                                                     3820586   -1.14    0.17  1.0000
  -7  -1  -1  332065   48474                                                      414288    0.94   -0.15  1.0000
  -7   1  -1  358232   45754                                                      443897    0.94    0.16  1.0000
   7   1   2 1357128   31223                                                     1158370    1.25   -0.27  1.0000
  -7   1  -2 1207138   70017                                                     1020861    1.25   -0.27  1.0000
  -7  -1  -2 1274994   77624                                                     1079690    1.25    0.27  1.0000
   7   1   3  875735   31902                                                     1032231   -1.13    0.08  1.0000
   7  -1   3  831486   35370                                                      985357   -1.13   -0.08  1.0000
   7  -1   4  264206   29513                                                      328851   -0.84    0.28  1.0000
   7   1   4  264105   29039                                                      331672   -0.85   -0.30  1.0000
   7   1   4  272375   19968                                                      340937   -0.85   -0.30  1.0000
   7  -1   4  261176   22536                                                      325467   -0.84    0.28  1.0000
  -7  -1  -4  311995   48391                                                      382709   -0.85    0.30  1.0000
   7   1   4  280394   30336                                                      349906   -0.85   -0.30  1.0000
   7  -1   4  260333   28373                                                      324526   -0.84    0.28  1.0000
   7  -1   5  141557   20531                                                      140428   -0.02   -0.14  1.0000
   7   1   5  143818   20308                                                      143319   -0.02    0.11  1.0000
   7   1   5  157070   15245                                                      156551   -0.02    0.11  1.0000
   7  -1   5  148647   16720                                                      147492   -0.02   -0.14  1.0000
   7  -1   5  146472   21563                                                      145325   -0.02   -0.14  1.0000
   7  -1   6  783093   47765                                                      840047    0.44   -0.04  1.0000
   7   1   6  755671   46076                                                      812485    0.45    0.06  1.0000
   7   1   6  766394   34087                                                      823603    0.45    0.06  1.0000
   7  -1   6  746157   38175                                                      801776    0.44   -0.04  1.0000
   7  -1   6  720706   45966                                                      775385    0.44   -0.04  1.0000
   7  -1   7  424782   35164                                                      437215    0.14   -0.09  1.0000
   7   1   7  371015   32370                                                      384418    0.15    0.11  1.0000
   7   1   7  410699   25066                                                      424796    0.15    0.11  1.0000
   7  -1   8     440    9156                                                        -441   -0.17   -0.24  1.0000
   7   1   8    2541    9741                                                        4207   -0.16    0.27  1.0000
   7   1   8    4562    7104                                                        6819   -0.16    0.27  1.0000
   7  -1   8    7336   10191                                                       10206   -0.17   -0.24  1.0000
   7  -1   9  286346   28840                                                      309036   -0.30    0.12  1.0000
   7   1   9  253106   27605                                                      275038   -0.29   -0.11  1.0000
   7  -1   9  246345   25155                                                      267416   -0.30    0.12  1.0000
   7  -1  10  779271   42492                                                      815177   -0.28    0.03  1.0000
   7   1  10  675860   39496                                                      709461   -0.28   -0.04  1.0000
   7  -1  10  678237   36681                                                      711761   -0.28    0.03  1.0000
   7  -1  11   84584   14638                                                       82878    0.04    0.01  1.0000
   7   1  11   89844   14243                                                       87992    0.04   -0.02  1.0000
   7  -1  11   76137   11870                                                       74519    0.04    0.01  1.0000
   7   1  12   37303    8924                                                       32158   -0.19   -0.03  1.0000
   7  -1  12   16242    6031                                                       13013   -0.19    0.04  1.0000
   7   1  13   74317    8502                                                       71725   -0.07    0.02  1.0000
   7  -1  13   75375    9411                                                       72814   -0.07   -0.01  1.0000
  -7  -2  17   19267    4868                                                       15212    0.22   -0.02  1.0000
  -7  -2  17   18750    5404                                                       14753    0.22   -0.02  1.0000
  -7  -2  16     595    6154                                                        -387    0.34    0.05  1.0000
  -7  -2  16     595    5853                                                       -2284    0.34    0.05  1.0000
  -7  -2  15  206930   19782                                                      225737    0.28    0.01  1.0000
  -7  -2  15  194751   20236                                                      213008    0.28    0.01  1.0000
  -7  -2  14  194946   21022                                                      197795    0.04    0.09  1.0000
  -7  -2  13  396737   29661                                                      359482   -0.43    0.14  1.0000
  -7  -2  12   46008   11723                                                       34571   -0.41   -0.15  1.0000
  -7  -2  11  245163   21482                                                      173106    1.11   -0.04  1.0000
  -7  -2  10  518371   35050                                                      487011    0.31    0.08  1.0000
  -7  -2   9   10017   11751                                                       13515   -0.23    0.00  1.0000
  -7  -2   9   14904   10883                                                       19113   -0.23    0.00  1.0000
  -7   2   9    2859   12919                                                        4648   -0.21    0.00  1.0000
  -7  -2   8  982229   48636                                                     1079450    0.67    0.04  1.0000
  -7  -2   8  968161   82543                                                     1064700    0.67    0.04  1.0000
  -7   2   8  955796   69416                                                     1051771    0.66    0.20  1.0000
  -7  -2   8  952592   48454                                                     1048371    0.67    0.04  1.0000
  -7   2   7  411405   42803                                                      428403    0.14    0.46  1.0000
  -7  -2   7  423009   53003                                                      442440    0.21   -0.10  1.0000
  -7  -2   7  421091   31584                                                      440479    0.21   -0.10  1.0000
  -7  -2   6   13692   13179                                                       14688    2.40   -1.34  1.0000
  -7   2   6   12264   11284                                                       18443    2.37   -1.26  1.0000
  -7   2   5  963022   65682                                                     1265459   -1.96   -0.82  1.0000
  -7  -2   5  905060   82365                                                     1200639   -1.99    1.20  1.0000
  -7   2   5  866276   78756                                                     1154050   -1.96   -0.82  1.0000
  -7   2   4 1880660   74558                                                     1741814    0.71    0.28  1.0000
  -7  -2   4 1898657   98404                                                     1745344    0.80   -0.12  1.0000
  -7   2   4 1898529   94753                                                     1759014    0.71    0.28  1.0000
  -7   2   3  383470   31580                                                      314709    0.81    0.09  1.0000
  -7  -2   3  434500   46122                                                      361442    0.82   -0.14  1.0000
  -7   2   3  486427   46290                                                      408556    0.81    0.09  1.0000
  -7   2   2  214703   26852                                                      218999    0.07   -0.05  1.0000
  -7  -2   2  245262   38784                                                      251444    0.08    0.10  1.0000
  -7   2   2  185837   31528                                                      189834    0.07   -0.05  1.0000
  -7   2   1 1370626   77185                                                     1747164    2.12   -0.19  1.0000
  -7  -2   1 1433825  100737                                                     1819453    2.11    0.23  1.0000
  -7   2   1 1452299   91648                                                     1839233    2.12   -0.19  1.0000
  -7  -2   0 4425020  154685                                                     4168823   -0.86   -0.08  1.0000
  -7   2   0 4448583  136445                                                     4199282   -0.84   -0.04  1.0000
  -7   2   0 4125447  117755                                                     3885505   -0.84   -0.04  1.0000
  -7  -2  -1 1082935   78155                                                     1014941   -0.47    0.17  1.0000
  -7  -2  -2  290226   48344                                                      374053   -1.03    0.15  1.0000
   7   2   3 1932131   67641                                                     1958752   -0.13   -0.05  1.0000
  -7  -2  -3 1868614  112594                                                     1894103   -0.13    0.05  1.0000
   7  -2   3 1927580   63816                                                     1954162   -0.14    0.07  1.0000
   7  -2   4  269571   21178                                                      173944    1.43    0.00  1.0000
   7   2   4  269104   22303                                                      174025    1.42   -0.05  1.0000
   7  -2   4  289054   22692                                                      189662    1.43    0.00  1.0000
  -7  -2  -4  202924   29958                                                      121449    1.42    0.05  1.0000
   7  -2   5  691782   43405                                                      769517    0.64   -0.19  1.0000
   7   2   5  669877   44140                                                      747862    0.64    0.14  1.0000
  -7  -2  -5  666812   75015                                                      743807    0.64   -0.14  1.0000
   7  -2   5  696693   44083                                                      774696    0.64   -0.19  1.0000
   7  -2   6  460264   32136                                                      396548   -0.68    0.00  1.0000
   7   2   6  439190   32255                                                      377054   -0.68    0.00  1.0000
   7  -2   6  415478   31857                                                      355060   -0.68    0.00  1.0000
   7  -2   7  415662   28315                                                      312773   -1.19   -0.11  1.0000
   7   2   7  429602   29867                                                      326040   -1.19    0.13  1.0000
   7   2   7  475873   22876                                                      366515   -1.19    0.13  1.0000
   7  -2   8   93945   14209                                                       62604    0.79    0.10  1.0000
   7   2   8   55355   12557                                                       32492    0.78   -0.17  1.0000
   7   2   8  117106   11883                                                       82582    0.78   -0.17  1.0000
   7  -2   8   95798   14792                                                       64119    0.79    0.10  1.0000
   7  -2   9  561910   33314                                                      495818    0.63    0.07  1.0000
   7   2   9  555303   34312                                                      489707    0.64   -0.04  1.0000
   7  -2   9  585883   33995                                                      518351    0.63    0.07  1.0000
   7  -2  10  457982   29380                                                      446054    0.12    0.10  1.0000
   7   2  10  429834   29194                                                      419338    0.12   -0.09  1.0000
   7  -2  10  429081   28924                                                      417537    0.12    0.10  1.0000
   7   2  11  107953   14125                                                      105801    0.05   -0.10  1.0000
   7  -2  11   85228   13027                                                       82573    0.06    0.08  1.0000
   7   2  12    1005    4264                                                       -2059    0.44    0.02  1.0000
   7  -2  12    2774    5956                                                        6910    0.44   -0.02  1.0000
   7  -2  12    4146    5901                                                        9007    0.44   -0.02  1.0000
  -7  -3  16    1735    4216                                                       -2553   -0.56    0.15  1.0000
  -7  -3  16     125    4966                                                        1138   -0.56    0.15  1.0000
  -7  -3  15     632    7399                                                        5297   -0.42   -0.83  1.0000
  -7  -3  15    1063    5776                                                        7338   -0.42   -0.83  1.0000
  -7  -3  14  509198   29392                                                      519182    0.10    0.05  1.0000
  -7  -3  14  521877   31997                                                      531984    0.10    0.05  1.0000
  -7  -3  13  175070   20181                                                      194547    0.31    0.16  1.0000
  -7  -3  13  190681   23015                                                      210991    0.31    0.16  1.0000
  -7  -3  12      33    9427                                                       -1473   -0.03   -0.07  1.0000
  -7  -3  12    7085    6674                                                        7513   -0.03   -0.07  1.0000
  -7  -3  11  399467   30161                                                      400114   -0.01    0.04  1.0000
  -7  -3  11  458665   34175                                                      459359   -0.01    0.04  1.0000
  -7  -3  10  381904   29427                                                      370043    0.14   -0.02  1.0000
  -7  -3  10  408533   31830                                                      396262    0.14   -0.02  1.0000
  -7  -3   9   17163   10953                                                       20457   -0.16   -0.09  1.0000
  -7  -3   9    9297    8943                                                       11750   -0.16   -0.09  1.0000
  -7  -3   8    1899    7284                                                        -159   -0.59    0.15  1.0000
  -7   3   8     696    7268                                                         513   -0.58   -0.22  1.0000
  -7  -3   8    1899    8779                                                      -10841   -0.59    0.15  1.0000
  -7   3   7  308363   36732                                                      278661   -0.39    0.02  1.0000
  -7  -3   7  255325   23364                                                      231974   -0.37    0.38  1.0000
  -7  -3   7  286687   25715                                                      261964   -0.37    0.38  1.0000
  -7  -3   7  205505   35804                                                      184520   -0.37    0.38  1.0000
  -7   3   6   32435   18124                                                       23119    0.72    1.54  1.0000
  -7   3   6   82049   20221                                                       77344    0.72    1.54  1.0000
  -7  -3   6  114181   16127                                                       95126    0.45   -0.50  1.0000
  -7  -3   6   92439   22930                                                       75237    0.45   -0.50  1.0000
  -7  -3   6   99082   15630                                                       81292    0.45   -0.50  1.0000
  -7   3   5 1120508   67481                                                     1146380   -0.17    0.22  1.0000
  -7  -3   5 1064705   47899                                                     1095150   -0.21    0.29  1.0000
  -7  -3   5  987744   77639                                                     1017061   -0.21    0.29  1.0000
  -7   3   5  998218   76088                                                     1022631   -0.17    0.22  1.0000
  -7  -3   5 1064882   49215                                                     1095330   -0.21    0.29  1.0000
  -7   3   4 2735378  103018                                                     2748265   -0.05   -0.21  1.0000
  -7  -3   4 2691692  125255                                                     2703546   -0.06    0.23  1.0000
  -7   3   4 2872512  124675                                                     2885724   -0.05   -0.21  1.0000
  -7   3   3  761997   56259                                                      800028   -0.30    0.06  1.0000
  -7  -3   3  738333   67741                                                      775394   -0.29   -0.25  1.0000
  -7   3   2    4607   14165                                                       -9167   -0.95    0.01  1.0000
  -7  -3   2    4481   18835                                                      -39061   -0.93   -0.05  1.0000
  -7   3   1 2423937  101456                                                     2383109   -0.19    0.19  1.0000
  -7  -3   1 2490691  121784                                                     2447568   -0.19   -0.19  1.0000
   7  -3   0 1067743   45932                                                     1058720   -0.06    0.00  1.0000
  -7   3   0  940929   65520                                                      932430   -0.06    0.00  1.0000
   7  -3   1  437844   30235                                                      438284    0.00    0.07  1.0000
  -7   3  -1  290529   37557                                                      290662    0.00   -0.07  1.0000
   7   3   2  149128   20555                                                      146467    0.04    0.09  1.0000
   7  -3   2  107317   13189                                                      105997    0.04   -0.07  1.0000
  -7  -3  -2  113984   29880                                                      112440    0.04   -0.09  1.0000
   7  -3   2  104599   16424                                                      103295    0.04   -0.07  1.0000
   7   3   3 1146689   53317                                                     1136990    0.06    0.09  1.0000
  -7  -3  -3 1147339   92843                                                     1138810    0.06   -0.09  1.0000
   7  -3   3 1167445   39160                                                     1159110    0.06   -0.07  1.0000
   7  -3   3 1149973   51154                                                     1141700    0.06   -0.07  1.0000
   7   3   4  564828   40447                                                      615740   -0.46    0.03  1.0000
   7  -3   4  518236   37712                                                      567943   -0.47   -0.01  1.0000
   7  -3   4  538128   29282                                                      588759   -0.47   -0.01  1.0000
   7   3   5   14712   10322                                                       14399   -0.01   -0.06  1.0000
   7  -3   5      18    6781                                                       -7115    0.00    0.06  1.0000
   7  -3   5    3233    8671                                                        3390    0.00    0.06  1.0000
   7   3   6 1735310   65867                                                     1727615   -0.04   -0.10  1.0000
   7  -3   6 1712947   65548                                                     1706804   -0.04    0.14  1.0000
   7  -3   6 1747418   51636                                                     1741214   -0.04    0.14  1.0000
   7   3   7    7186    8887                                                        5808   -0.12   -0.03  1.0000
   7  -3   7   18207    7513                                                       16303   -0.11    0.03  1.0000
   7   3   8  164681   19563                                                      141667    0.41   -0.05  1.0000
   7  -3   8  169171   20796                                                      145302    0.42    0.02  1.0000
   7   3   9  534618   34787                                                      590208   -0.52    0.09  1.0000
   7  -3   9  507004   35042                                                      562223   -0.52   -0.10  1.0000
  -7  -3 -10  174340   14303                                                      196955   -0.37   -0.04  1.0000
   7   3  10  247872   21557                                                      274370   -0.37    0.04  1.0000
   7  -3  10  217674   21966                                                      242797   -0.36   -0.03  1.0000
   7  -3  11  136767   13913                                                      145666   -0.16   -0.07  1.0000
   7  -3  11  152511   15738                                                      161902   -0.16   -0.07  1.0000
   7  -3  11  120034   10029                                                      128379   -0.16   -0.07  1.0000
   7  -3  12   21860    6883                                                       28827   -0.31   -0.11  1.0000
   7  -4 -16     146    3452                                                       -7042    0.16    0.06  1.0000
  -7  -4  15  163568   14959                                                      184483    0.35    0.11  1.0000
  -7  -4  14   35953    7481                                                       36099   -0.01    0.13  1.0000
  -7  -4  14   46099   10172                                                       46276   -0.01    0.13  1.0000
  -7  -4  13   46415    8543                                                       41378   -0.18    0.12  1.0000
  -7  -4  13   56748   11154                                                       51172   -0.18    0.12  1.0000
  -7  -4  12     685    6005                                                      -10926   -0.36   -0.08  1.0000
  -7  -4  12    3318    6908                                                        7010   -0.36   -0.08  1.0000
  -7  -4  12     685    9086                                                       -5776   -0.36   -0.08  1.0000
  -7  -4  11  146319   15339                                                      164494   -0.32   -0.02  1.0000
  -7  -4  11  127806   17309                                                      144827   -0.32   -0.02  1.0000
  -7  -4  11  150047   19965                                                      168445   -0.32   -0.02  1.0000
  -7  -4  10  366731   23319                                                      364402    0.03    0.03  1.0000
  -7  -4  10  352026   27314                                                      349744    0.03    0.03  1.0000
  -7  -4  10  364309   29715                                                      361988    0.03    0.03  1.0000
  -7  -4   9  225293   19081                                                      218236    0.10    0.01  1.0000
  -7  -4   9  195497   20703                                                      188926    0.10    0.01  1.0000
  -7  -4   9  209107   22706                                                      202310    0.10    0.01  1.0000
  -7  -4   8   85965   12485                                                       80800   -0.15    0.18  1.0000
  -7  -4   8   98357   15570                                                       92840   -0.15    0.18  1.0000
  -7  -4   8   81104   15637                                                       76084   -0.15    0.18  1.0000
  -7  -4   7   37891    9011                                                       25972   -0.57    0.25  1.0000
  -7  -4   7   34762    8816                                                       23358   -0.57    0.25  1.0000
  -7  -4   7   32907   10255                                                       21819   -0.57    0.25  1.0000
  -7  -4   6    8432    5909                                                        7186    0.64   -0.95  1.0000
  -7  -4   6   14213    8668                                                       15552    0.64   -0.95  1.0000
  -7   4   5  872448   67263                                                      964084   -0.66   -0.13  1.0000
  -7  -4   5  812328   36075                                                      905980   -0.71    0.17  1.0000
  -7  -4   5  753042   42773                                                      843300   -0.71    0.17  1.0000
  -7   4   4 1731764   92089                                                     1797774   -0.35    0.11  1.0000
  -7  -4   4 1877015   52410                                                     1958042   -0.41   -0.04  1.0000
  -7  -4   4 1705644   61704                                                     1782924   -0.41   -0.04  1.0000
   7  -4  -4 1774866   57834                                                     1843033   -0.35   -0.11  1.0000
  -7   4   3  812298   59390                                                      716551    0.77   -0.15  1.0000
  -7  -4   3  854463   68966                                                      756237    0.76    0.17  1.0000
   7  -4  -3  830466   35875                                                      732325    0.77    0.15  1.0000
   7  -4  -2  118475   16390                                                      141401    0.44    0.08  1.0000
  -7   4   2   98654   25751                                                      119477    0.44   -0.08  1.0000
  -7   4   1  907462   68796                                                      969734    0.45    0.07  1.0000
   7  -4  -1  869193   45169                                                      929390    0.45   -0.07  1.0000
  -7   4   0 1778903   93706                                                     1703925   -0.40    0.11  1.0000
   7  -4   0 1922826   62963                                                     1843463   -0.40   -0.11  1.0000
  -7   4  -1   64668   19535                                                       58842   -0.16    0.00  1.0000
   7  -4   1   63563   10706                                                       57798   -0.16    0.00  1.0000
   7  -4   1   76026   13972                                                       69708   -0.16    0.00  1.0000
   7  -4   2  383586   22978                                                      337117    0.55   -0.08  1.0000
   7  -4   2  359010   27331                                                      314101    0.55   -0.08  1.0000
   7  -4   3  543828   33641                                                      471576    0.71   -0.04  1.0000
   7  -4   3  568728   27620                                                      494783    0.71   -0.04  1.0000
   7  -4   4   78906   10702                                                       57811    0.57    0.02  1.0000
   7  -4   4   71808   13970                                                       51760    0.57    0.02  1.0000
   7  -4   5  146801   19981                                                      144526   -0.05    0.11  1.0000
   7  -4   5  129055   14836                                                      126918   -0.05    0.11  1.0000
   7  -4   6   15248    6909                                                        8589   -0.42   -0.15  1.0000
   7  -4   7  326500   28774                                                      345403    0.22    0.08  1.0000
   7  -4   7  333859   23098                                                      352971    0.22    0.08  1.0000
   7  -4   8     321   10912                                                      -11177    0.25   -0.03  1.0000
   7  -4   9  388814   28049                                                      429906   -0.45    0.11  1.0000
  -7  -4 -10  524464   21043                                                      516827    0.07    0.00  1.0000
   7  -4  10  679083   30512                                                      671987    0.06   -0.01  1.0000
   7  -4  11  115007   10589                                                       97190    0.38    0.01  1.0000
   7  -5 -14  124192   11093                                                      135610    0.22   -0.01  1.0000
  -7  -5  13   22767    4822                                                       21076   -0.08   -0.03  1.0000
   7  -5 -13   37690    8214                                                       35634   -0.07   -0.06  1.0000
  -7  -5  12   13509    5001                                                        7518    0.43   -0.09  1.0000
  -7  -5  11   23569    5843                                                       17419    0.30    0.05  1.0000
  -7  -5  10  104225   12684                                                      109111   -0.10   -0.05  1.0000
  -7  -5   9   31124    8569                                                       32692   -0.06    0.01  1.0000
  -7  -5   8   18332    7723                                                       19825    0.08    0.00  1.0000
   7  -5  -8    2533    7870                                                        3163    0.08    0.01  1.0000
  -7  -5   7  196129   19365                                                      227157    0.46    0.15  1.0000
   7  -5  -7  153188   21955                                                      184083    0.53    0.02  1.0000
  -7  -5   6   27777    9348                                                       37565    0.37    0.11  1.0000
   7  -5  -6   10726    8389                                                       18657    0.46    0.01  1.0000
  -7  -5   5  580390   30203                                                      581269   -0.01    0.17  1.0000
   7  -5  -5  514237   31680                                                      507964    0.06   -0.01  1.0000
   7  -5  -4  622864   33605                                                      590856    0.29   -0.01  1.0000
   7  -5  -3  568527   31979                                                      565001    0.04   -0.08  1.0000
   7  -5  -2   76308   11710                                                       63421   -0.35    0.09  1.0000
   7  -5  -2   58420   11040                                                       47211   -0.35    0.09  1.0000
   7  -5  -1 1348908   44716                                                     1300478   -0.30    0.17  1.0000
   7  -5  -1 1355496   52435                                                     1306948   -0.30    0.17  1.0000
   7  -5   0  913789   39307                                                      906332   -0.06    0.06  1.0000
   7  -5   0  854634   42002                                                      847422   -0.06    0.06  1.0000
   7  -5   1   58396    9664                                                       66033    0.21   -0.02  1.0000
   7  -5   1   57166   12067                                                       64724    0.21   -0.02  1.0000
   7  -5   1   50450   13054                                                       57565    0.21   -0.02  1.0000
   7  -5   2  185577   20966                                                      185455    0.00    0.05  1.0000
   7  -5   2  215604   18942                                                      215473    0.00    0.05  1.0000
   7  -5   3  111029   19259                                                      146574   -0.70    0.02  1.0000
   7  -5   3  140354   17543                                                      180016   -0.70    0.02  1.0000
   7  -5   4   63375   12929                                                       86906   -0.60   -0.10  1.0000
   7  -5   4   62763   14616                                                       86189   -0.60   -0.10  1.0000
   7  -5   5    1249    8914                                                       -4645   -0.49    0.01  1.0000
   7  -5   5    1249    7117                                                       -7199   -0.49    0.01  1.0000
   7  -5   6  253159   23757                                                      276346    0.31    0.08  1.0000
   7  -5   6  252294   20561                                                      275442    0.31    0.08  1.0000
   7  -5   7  117288   15111                                                      111954   -0.11   -0.07  1.0000
   7  -5   7  112112   13205                                                      106898   -0.11   -0.07  1.0000
  -7  -5  -8     503    5385                                                        1039    0.22   -0.14  1.0000
   7  -5   8     541    7170                                                       -8507    0.28   -0.16  1.0000
  -7  -5  -9  123977   10905                                                      111561    0.25    0.02  1.0000
   7  -5   9  155652   13213                                                      142579    0.24    0.02  1.0000
   7  -5  10  345156   12628                                                      299160    0.57    0.01  1.0000
   7  -6 -13   38896    4829                                                       28710   -0.39   -0.01  1.0000
   7  -6 -12     344    4432                                                       -4447   -0.26    0.00  1.0000
  -7  -6  11  127940   10512                                                      130231   -0.03   -0.15  1.0000
   7  -6 -11  123640   13534                                                      126026   -0.04   -0.15  1.0000
  -7  -6  10   22493    5028                                                       15351    0.37   -0.01  1.0000
   7  -6 -10   24807    7672                                                       17302    0.37    0.00  1.0000
  -7  -6   9    4768    5185                                                        5911    0.11   -0.03  1.0000
   7  -6  -9    1707    7094                                                        2461    0.12   -0.03  1.0000
  -7  -6   8   60150    9930                                                       60514    0.01    0.05  1.0000
   7  -6  -8   50710   11953                                                       50801    0.00    0.03  1.0000
   7  -6  -7  100435   14657                                                       87485   -0.29   -0.02  1.0000
   7  -6  -6    1001    7470                                                       -1814   -0.44   -0.01  1.0000
   7  -6  -5    1981    7334                                                        4934   -0.37   -0.01  1.0000
   7  -6  -5    7062    8247                                                       12064   -0.37   -0.01  1.0000
   7  -6  -4  933833   38758                                                      919899    0.10    0.07  1.0000
   7  -6  -4  989422   41172                                                      975078    0.10    0.07  1.0000
   7  -6  -3   69617   12392                                                       76501   -0.18   -0.02  1.0000
   7  -6  -3   51983   11324                                                       57953   -0.18   -0.02  1.0000
   7  -6  -2   71192   11734                                                       67975   -0.08   -0.07  1.0000
   7  -6  -2   66028   12357                                                       62930   -0.08   -0.07  1.0000
   7  -6  -1  517263   29523                                                      544504    0.26   -0.05  1.0000
   7  -6   0  363340   22134                                                      388274    0.28    0.01  1.0000
   7  -6   0  386482   25426                                                      412185    0.28    0.01  1.0000
   7  -6   1   75714    8948                                                       59527   -0.44    0.04  1.0000
   7  -6   1   90544   12066                                                       72753   -0.44    0.04  1.0000
   7  -6   2    2072    4231                                                        3539   -0.25   -0.05  1.0000
   7  -6   2    1578    6647                                                        2864   -0.25   -0.05  1.0000
   7  -6   3  377584   22672                                                      347685    0.34    0.06  1.0000
   7  -6   4   61383   10188                                                       45888    0.47   -0.03  1.0000
   7  -6   5   33157    9258                                                       36664    0.13    0.03  1.0000
  -7  -6  -6  268325   20946                                                      302817    0.45    0.04  1.0000
   7  -6   6  302765   20460                                                      339031    0.45    0.04  1.0000
  -7  -6  -7   77989   10397                                                       80207    0.05    0.06  1.0000
  -7  -6  -8     891    3733                                                        4529   -0.52    0.04  1.0000
   7  -7 -10   81723    7973                                                       75616    0.15    0.02  1.0000
   7  -7  -9     251    5096                                                        4501   -0.72   -0.03  1.0000
   7  -7  -8  153537   14135                                                      164724    0.19    0.04  1.0000
   7  -7  -7  134078   14338                                                      146423    0.24   -0.15  1.0000
   7  -7  -6    2667    6447                                                        6874    0.44   -0.11  1.0000
   7  -7  -5  272570   19300                                                      287247   -0.19   -0.12  1.0000
   7  -7  -4    3242    6968                                                       -2660    0.79    0.04  1.0000
   7  -7  -3   68696   10492                                                       78173   -0.24   -0.05  1.0000
   7  -7  -3   86861   12094                                                       97480   -0.24   -0.05  1.0000
   7  -7  -2      40    5754                                                       -3075   -0.08   -0.03  1.0000
   7  -7  -2      40    8142                                                       -7986   -0.08   -0.03  1.0000
   7  -7  -1  120433   11251                                                      113618   -0.14   -0.07  1.0000
   7  -7  -1  132407   13108                                                      125258   -0.14   -0.07  1.0000
   7  -7   0  401155   19068                                                      403137    0.02   -0.06  1.0000
   7  -7   0  417662   22616                                                      419684    0.02   -0.06  1.0000
   7  -7   1  121369   10702                                                      134676    0.26    0.02  1.0000
   7  -7   1  117685   12936                                                      130794    0.26    0.02  1.0000
  -7  -7  -2  106219   13685                                                      104620    0.03    0.03  1.0000
   7  -7   2  141045   13007                                                      139459    0.03   -0.02  1.0000
  -7  -7  -3  118903   13088                                                      109666    0.19    0.03  1.0000
   7  -7   3  141265   12677                                                      131094    0.19    0.04  1.0000
  -7  -7  -4   44540    8550                                                       45513   -0.03   -0.07  1.0000
   7  -7   4   51087    8432                                                       51691   -0.02   -0.03  1.0000
  -7  -7  -5   53002    7199                                                       44610   -0.26   -0.03  1.0000
   7  -7   5   76198    8279                                                       66077   -0.26   -0.02  1.0000
  -7  -7  -6  116389    7707                                                       88285   -0.61   -0.06  1.0000
   7  -8  -6    1039    2529                                                        -642   -0.45    0.07  1.0000
   7  -8  -6    8579    3202                                                        4068   -0.45    0.07  1.0000
   7  -8  -5    5512    3382                                                        6115   -0.06    0.11  1.0000
   7  -8  -5    8677    3956                                                        9446   -0.06    0.11  1.0000
   7  -8  -4  154631   10221                                                      159349   -0.09    0.07  1.0000
   7  -8  -4  182331   11898                                                      187453   -0.09    0.07  1.0000
   7  -8  -3   23296    4608                                                       24584   -0.06    0.03  1.0000
   7  -8  -3   34310    6230                                                       35870   -0.06    0.03  1.0000
   7  -8  -2   16364    4054                                                       15854   -0.03    0.01  1.0000
   7  -8  -2   11565    4300                                                       11136   -0.03    0.01  1.0000
   7  -8  -1   69912    7003                                                       85013    0.38    0.05  1.0000
   7  -8  -1   67589    8443                                                       82450    0.38    0.05  1.0000
   7  -8   0  152570   10110                                                      143192   -0.17    0.04  1.0000
   7  -8   1   17652    4654                                                       17130   -0.03    0.00  1.0000
   7  -8   2    9963    3619                                                       11664   -0.12    0.02  1.0000
  -8   0  17    9611    4929                                                       14491    0.31    0.00  1.0000
  -8   0  16   45682    8621                                                       41349   -0.14   -0.02  1.0000
  -8   0  15   26174    8044                                                       23834   -0.10    0.00  1.0000
  -8   0  15   25887    7195                                                       23560   -0.10    0.00  1.0000
  -8   0  14   18382    8445                                                       23094   -0.23    0.03  1.0000
  -8   0  13   85086   13821                                                       82797    0.06   -0.04  1.0000
  -8   0  12  131181   20539                                                      180715   -0.88    0.01  1.0000
  -8   0  11   56957   13841                                                       64820    0.22    0.05  1.0000
  -8   0  10   83105   20147                                                      163080    1.62   -0.03  1.0000
  -8   0   9   76906   10255                                                       32033   -1.39   -0.01  1.0000
  -8   0   9  113250   13150                                                       56785   -1.39   -0.01  1.0000
  -8   0   8   60114   20141                                                       39131   -0.66   -0.02  1.0000
  -8   0   8   56972    9763                                                       36604   -0.66   -0.02  1.0000
  -8   0   8   73056   12583                                                       49695   -0.66   -0.02  1.0000
  -8   0   7   54190   15717                                                       -9191    3.25   -0.01  1.0000
  -8   0   7   67856    6979                                                        5212    3.25   -0.01  1.0000
  -8   0   7   74975    8854                                                        9419    3.25   -0.01  1.0000
  -8   0   6  783832   61811                                                      526855    2.23    0.00  1.0000
  -8   0   5 3079028  139357                                                     3016983    0.25    0.08  1.0000
  -8   0   4  487510   45253                                                      292971   -2.19    0.02  1.0000
  -8   0   3 2729907  137054                                                     3161281    1.76   -0.03  1.0000
  -8   0   2 2464933  125674                                                     2639906    0.77    0.00  1.0000
  -8   0   1   39273   22838                                                       54540    0.50   -0.03  1.0000
  -8   0   0  431972   45818                                                      320581    1.27   -0.02  1.0000
   8   0   1  396335   32557                                                      402355   -0.07   -0.02  1.0000
  -8   0  -1  332710   46174                                                      337989   -0.07    0.02  1.0000
   8   0   2  608610   38766                                                      593719    0.13    0.02  1.0000
   8   0   2  651938   38620                                                      636522    0.13    0.02  1.0000
   8   0   3   41234   15311                                                       65723    0.75    0.01  1.0000
   8   0   3   44975   16458                                                       70424    0.75    0.01  1.0000
   8   0   4  323792   25755                                                      240660   -1.10    0.02  1.0000
   8   0   4  325601   27054                                                      242220   -1.10    0.02  1.0000
   8   0   5  373906   29974                                                      316036   -0.69    0.00  1.0000
   8   0   5  299848   19959                                                      248278   -0.69    0.00  1.0000
   8   0   5  345314   30249                                                      289795   -0.69    0.00  1.0000
   8   0   6   57507   13266                                                       35470    0.72    0.00  1.0000
   8   0   6   34511    8160                                                       18036    0.72    0.00  1.0000
   8   0   7  650893   42435                                                      681957   -0.27    0.00  1.0000
   8   0   7  682775   39039                                                      714582   -0.27    0.00  1.0000
   8   0   7  601255   32590                                                      631125   -0.27    0.00  1.0000
   8   0   8  976544   52278                                                     1138380   -1.10    0.03  1.0000
   8   0   8 1032570   47718                                                     1198809   -1.10    0.03  1.0000
   8   0   9   82939   15233                                                       77281    0.14    0.01  1.0000
   8   0   9   47881    9980                                                       43606    0.14    0.01  1.0000
   8   0  10   11478    9137                                                       14268    0.18   -0.01  1.0000
   8   0  10    7508    5730                                                        9792    0.18   -0.01  1.0000
   8   0  11  139289   13983                                                      126910   -0.24   -0.01  1.0000
   8   0  12   25627    6713                                                       33954    0.34    0.00  1.0000
  -8  -1  17    9916    4787                                                       13044    0.21   -0.07  1.0000
  -8   1  17    8380    4064                                                       11378    0.21    0.06  1.0000
  -8  -1  16   35816    8330                                                       38820    0.11    0.00  1.0000
  -8   1  16   24791    6782                                                       27291    0.11    0.00  1.0000
  -8  -1  16   33646    7774                                                       36559    0.11    0.00  1.0000
  -8  -1  15   16362    6568                                                       12541   -0.22   -0.07  1.0000
  -8   1  15   11365    5448                                                        8440   -0.21    0.06  1.0000
  -8  -1  15   13544    6671                                                       10089   -0.22   -0.07  1.0000
  -8  -1  14   17880    8650                                                       18927   -0.06    0.05  1.0000
  -8  -1  14   19232    8601                                                       20318   -0.06    0.05  1.0000
  -8  -1  13  131103   16135                                                      101821    0.61    0.46  1.0000
  -8  -1  13  148152   17140                                                      116978    0.61    0.46  1.0000
  -8  -1  12   26531   11184                                                       32003   -0.21   -0.13  1.0000
  -8  -1  11   18018    9506                                                       12913    0.30   -0.20  1.0000
  -8  -1  10  151018   21767                                                      177541    0.44    0.19  1.0000
  -8  -1  10  145077   21563                                                      171091    0.44    0.19  1.0000
  -8  -1   9  347690   25041                                                      256448   -1.16   -0.24  1.0000
  -8   1   9  305618   22348                                                      223092   -1.15    0.27  1.0000
  -8  -1   9  367430   26064                                                      273446   -1.16   -0.24  1.0000
  -8  -1   8   54953   18240                                                       19689   -1.32    0.04  1.0000
  -8   1   8   36646   15990                                                        9284   -1.33   -0.06  1.0000
  -8  -1   8   79089   11024                                                       35040   -1.32    0.04  1.0000
  -8   1   8   42071    7628                                                       12107   -1.33   -0.06  1.0000
  -8  -1   8   63452   10572                                                       24907   -1.32    0.04  1.0000
  -8   1   7  343685   47150                                                      323819    0.24    0.28  1.0000
  -8  -1   7  377898   28449                                                      356987    0.25   -0.16  1.0000
  -8   1   7  348575   25435                                                      328569    0.24    0.28  1.0000
  -8  -1   7  374710   51237                                                      353888    0.25   -0.16  1.0000
  -8  -1   7  371687   28832                                                      350950    0.25   -0.16  1.0000
  -8  -1   6 1650186   60471                                                     1687795   -0.20   -0.11  1.0000
  -8  -1   6 1633506  106675                                                     1670925   -0.20   -0.11  1.0000
  -8   1   6 1610507  103781                                                     1646245   -0.20    0.25  1.0000
  -8  -1   6 1714365   62913                                                     1752694   -0.20   -0.11  1.0000
  -8  -1   5   69049   45979                                                      297771   -3.97    0.33  1.0000
  -8   1   5   87763   49375                                                      338101   -3.97   -0.35  1.0000
  -8   1   4    8015   18623                                                      -23607    1.25   -0.03  1.0000
  -8  -1   4    1002   13060                                                        3302    1.24    0.02  1.0000
  -8  -1   3 1551169  107404                                                     1810894    1.41   -0.20  1.0000
  -8   1   3 1540756  102916                                                     1804224    1.42    0.26  1.0000
  -8  -1   2 2582570  118316                                                     2271070   -1.39   -0.28  1.0000
  -8   1   2 2478282  111038                                                     2177190   -1.39    0.34  1.0000
  -8  -1   1  528421   52646                                                      426657   -1.03   -0.10  1.0000
  -8   1   1  460198   47418                                                      366004   -1.03    0.06  1.0000
  -8  -1   0  379706   54342                                                      445328   -0.72    0.20  1.0000
  -8   1   0  402051   52566                                                      470952   -0.72   -0.20  1.0000
   8  -1   1 1690941   66421                                                     1819703   -0.66   -0.36  1.0000
   8   1   1 1634977   64839                                                     1758114   -0.67    0.33  1.0000
  -8  -1  -1 1514275  102854                                                     1636965   -0.67   -0.33  1.0000
  -8   1  -1 1648832  100015                                                     1771404   -0.66    0.36  1.0000
   8  -1   1 1695519   62012                                                     1824453   -0.66   -0.36  1.0000
   8  -1   2  211283   24045                                                      209678    0.02    0.10  1.0000
   8   1   2  188431   22654                                                      187718    0.02   -0.10  1.0000
   8  -1   2  190203   22965                                                      188677    0.02    0.10  1.0000
   8   1   2  153927   19486                                                      153278    0.02   -0.10  1.0000
   8  -1   3   15134   12629                                                       30608    0.74   -0.30  1.0000
   8   1   3   30001   14095                                                       51618    0.73    0.26  1.0000
   8   1   3   21459   12674                                                       40165    0.73    0.26  1.0000
   8  -1   3   18209   12738                                                       34973    0.74   -0.30  1.0000
   8   1   4  377157   30485                                                      332079   -0.54    0.18  1.0000
   8  -1   4  412183   31024                                                      361908   -0.56   -0.19  1.0000
   8  -1   5  192367   24356                                                      204360    0.15    0.35  1.0000
   8   1   5  160470   22787                                                      167983    0.14   -0.32  1.0000
   8   1   5  154078   15558                                                      161431    0.14   -0.32  1.0000
   8  -1   5  179368   23722                                                      190936    0.15    0.35  1.0000
   8  -1   6   84110   15307                                                       57385    0.71   -0.07  1.0000
   8   1   6   89552   15679                                                       61543    0.72    0.03  1.0000
   8   1   6   70057    9610                                                       45586    0.72    0.03  1.0000
   8  -1   7  726176   41980                                                      675450    0.42    0.05  1.0000
   8   1   7  679387   40328                                                      630634    0.42   -0.05  1.0000
   8  -1   7  690909   38535                                                      641452    0.42    0.05  1.0000
   8  -1   8  670635   39733                                                      658335    0.11   -0.15  1.0000
   8   1   8  598410   37261                                                      584477    0.12    0.13  1.0000
   8  -1   8  625017   35554                                                      613140    0.11   -0.15  1.0000
   8  -1   9  228690   22513                                                      216616    0.18   -0.13  1.0000
   8   1   9  204950   21109                                                      192920    0.19    0.12  1.0000
   8  -1   9  227588   20338                                                      215544    0.18   -0.13  1.0000
   8  -1  10   84054   13205                                                       79703   -0.11    0.00  1.0000
   8   1  10   78975   13265                                                       74955   -0.10    0.02  1.0000
   8  -1  10   58583   10371                                                       54960   -0.11    0.00  1.0000
   8   1  11  170021   14830                                                      155428   -0.25   -0.04  1.0000
   8  -1  11  172434   13034                                                      157951   -0.25    0.06  1.0000
   8   1  12   15434    4268                                                       15178   -0.01   -0.04  1.0000
   8  -1  12   21301    5482                                                       21164   -0.01    0.04  1.0000
  -8  -2  17    1875    2904                                                        2069    0.03    0.00  1.0000
  -8  -2  16   48719    8875                                                       53062    0.13    0.10  1.0000
  -8  -2  16   46678    8779                                                       50930    0.13    0.10  1.0000
  -8  -2  15     125    5619                                                       -1527   -0.13    0.09  1.0000
  -8   2  15    1586    3936                                                        2359   -0.13   -0.09  1.0000
  -8  -2  15     125    6891                                                       -3311   -0.13    0.09  1.0000
  -8  -2  14    4926    7224                                                        7513   -0.22   -0.21  1.0000
  -8   2  14     450    4991                                                        -204   -0.23    0.18  1.0000
  -8  -2  14     474    8770                                                       -3522   -0.22   -0.21  1.0000
  -8  -2  13   94287   15255                                                       80444    0.33    0.00  1.0000
  -8   2  13   83548   11359                                                       70458    0.33    0.05  1.0000
  -8  -2  13   83649   14837                                                       70643    0.33    0.00  1.0000
  -8  -2  12  151626   21249                                                      183362   -0.54   -0.03  1.0000
  -8   2  12  156718   19214                                                      188558   -0.54   -0.02  1.0000
  -8  -2  12  149763   21668                                                      181313   -0.54   -0.03  1.0000
  -8  -2  11    1351   10565                                                      -14561   -0.51    0.04  1.0000
  -8   2  11    4249    7251                                                       10527   -0.52   -0.02  1.0000
  -8  -2  11       8    8915                                                        1527   -0.51    0.04  1.0000
  -8  -2  10  314023   30219                                                      373996    0.71    0.12  1.0000
  -8  -2  10  286035   29611                                                      343391    0.71    0.12  1.0000
  -8  -2   9  593037   40757                                                      662217    0.61    0.06  1.0000
  -8  -2   9  642423   42168                                                      714349    0.61    0.06  1.0000
  -8   2   8   10186   18065                                                       11053    0.04   -0.18  1.0000
  -8  -2   8    1251    7539                                                        1531    0.04   -0.23  1.0000
  -8  -2   8     280    9554                                                       -1645    0.04   -0.23  1.0000
  -8  -2   8   38943   18901                                                       41579    0.04   -0.23  1.0000
  -8   2   7  221372   43096                                                      225059   -0.06    0.40  1.0000
  -8  -2   7  216916   23298                                                      218111   -0.02    0.41  1.0000
  -8  -2   7  206842   23479                                                      207988   -0.02    0.41  1.0000
  -8  -2   7  230696   40574                                                      231955   -0.02    0.41  1.0000
  -8   2   6  427821   38905                                                      222028    2.60   -0.39  1.0000
  -8  -2   6  518941   26560                                                      288460    2.61   -0.40  1.0000
  -8  -2   6  519107   46592                                                      288584    2.61   -0.40  1.0000
  -8   2   5  192280   38531                                                      191451    0.03   -0.20  1.0000
  -8  -2   5  164249   19840                                                      161007    0.06   -0.06  1.0000
  -8  -2   5  206553   37708                                                      202917    0.06   -0.06  1.0000
  -8   2   4  138835   32033                                                      139218    0.00   -0.32  1.0000
  -8  -2   4  228480   23807                                                      228275    0.00   -0.02  1.0000
  -8  -2   4  230634   41307                                                      230428    0.00   -0.02  1.0000
  -8  -2   3 1258507   49528                                                     1143260   -0.75    0.23  1.0000
  -8  -2   3 1301426   88371                                                     1184189   -0.75    0.23  1.0000
  -8   2   3 1209983   79861                                                     1095190   -0.75   -0.08  1.0000
  -8  -2   2 1212422   52523                                                     1276199    0.40    0.01  1.0000
  -8  -2   2 1241852   93905                                                     1306388    0.40    0.01  1.0000
  -8   2   2 1224675   86261                                                     1287638    0.39    0.02  1.0000
   8  -2  -2 1256314   52503                                                     1319868    0.39   -0.02  1.0000
   8   2  -1  971654   52616                                                     1116980    0.99   -0.33  1.0000
  -8  -2   1  958130   85401                                                     1103660    0.99    0.33  1.0000
   8  -2  -1  961845   48032                                                     1106670    0.99    0.35  1.0000
   8   2   0  126219   16113                                                       90642    0.75    0.13  1.0000
  -8  -2   0  113285   26887                                                       80600    0.75   -0.13  1.0000
   8  -2   0  134064   15707                                                       98685    0.74   -0.12  1.0000
   8  -2   1 1312242   51250                                                     1130660    1.15    0.04  1.0000
   8   2   1 1369885   54561                                                     1184139    1.15   -0.07  1.0000
   8  -2   1 1393258   51749                                                     1205949    1.15    0.04  1.0000
   8  -2   2  770077   43187                                                      780393   -0.08   -0.06  1.0000
   8   2   2  785470   45505                                                      795524   -0.08    0.08  1.0000
   8  -2   2  731443   41983                                                      741497   -0.08   -0.06  1.0000
   8  -2   3   71117   14252                                                       64530   -0.18    0.09  1.0000
   8   2   3   97943   17185                                                       89749   -0.18   -0.09  1.0000
   8  -2   3  125460   19210                                                      116675   -0.18    0.09  1.0000
   8  -2   4  978837   46163                                                      861105   -0.87    0.18  1.0000
   8   2   4  905402   45666                                                      789693   -0.87   -0.18  1.0000
   8  -2   4 1017747   47525                                                      897629   -0.87    0.18  1.0000
   8  -2   5   76683   15662                                                       75122   -0.05    0.04  1.0000
   8   2   5   68986   14908                                                       67028   -0.05   -0.05  1.0000
   8  -2   5   62737   15343                                                       61324   -0.05    0.04  1.0000
   8  -2   6    2072    8018                                                       -2193    0.63    0.06  1.0000
   8   2   6   18770   10814                                                        8565    0.62   -0.07  1.0000
   8  -2   6    9613    9914                                                        2781    0.63    0.06  1.0000
   8  -2   7  664005   40495                                                      711956   -0.41    0.03  1.0000
   8   2   7  675771   42130                                                      724720   -0.41   -0.03  1.0000
   8  -2   7  661368   41242                                                      709225   -0.41    0.03  1.0000
   8  -2   8  421334   31641                                                      490624   -0.72    0.01  1.0000
   8   2   8  474902   34821                                                      547678   -0.71    0.00  1.0000
   8  -2   8  442385   33199                                                      513320   -0.72    0.01  1.0000
   8  -2   9   20928    9042                                                       19298    0.09   -0.06  1.0000
   8   2   9    7846    8626                                                        6807    0.08    0.04  1.0000
   8  -2   9   30453   10502                                                       28485    0.09   -0.06  1.0000
   8   2  10   63054   11835                                                       70580    0.20    0.03  1.0000
   8  -2  10   61987   11488                                                       69300    0.20   -0.05  1.0000
   8  -2  11  112988   11568                                                      101658   -0.25    0.04  1.0000
   8   2  11   78600    8155                                                       69104   -0.24   -0.04  1.0000
   8  -2  11  107652   10697                                                       96600   -0.25    0.04  1.0000
  -8  -3  16    3757    3948                                                        9390    0.28    0.42  1.0000
  -8  -3  15   81552   10388                                                       87713    0.15   -0.30  1.0000
  -8  -3  15   97279   12480                                                      104039    0.15   -0.30  1.0000
  -8  -3  14   21771    8955                                                       34011   -0.50   -0.17  1.0000
  -8  -3  14   23887    9800                                                       36646   -0.50   -0.17  1.0000
  -8  -3  13  112945   14527                                                       98215    0.33   -0.17  1.0000
  -8  -3  13  109944   15713                                                       95415    0.33   -0.17  1.0000
  -8  -3  12   76815   12191                                                       55877    0.57    0.04  1.0000
  -8  -3  12   80142   13596                                                       58720    0.57    0.04  1.0000
  -8  -3  11   31822    9917                                                       25276   -0.27    0.04  1.0000
  -8  -3  11   25678   10443                                                       19834   -0.27    0.04  1.0000
  -8  -3  10  368557   30283                                                      393352    0.28   -0.05  1.0000
  -8  -3  10  352070   31050                                                      376313    0.28   -0.05  1.0000
  -8  -3   9  294916   27120                                                      295286   -0.01    0.16  1.0000
  -8  -3   9  251441   25574                                                      251773   -0.01    0.16  1.0000
  -8  -3   8  214711   22686                                                      199353   -0.23   -0.09  1.0000
  -8  -3   8  259811   25826                                                      242892   -0.23   -0.09  1.0000
  -8  -3   7   64621   15604                                                       90793   -0.66    0.11  1.0000
  -8  -3   7   57219   16627                                                       81973   -0.66    0.11  1.0000
  -8  -3   6  268860   28602                                                      334133   -0.84    0.15  1.0000
  -8  -3   6  235539   47290                                                      296848   -0.84    0.15  1.0000
  -8  -3   5  135018   20313                                                      148056   -0.24    0.01  1.0000
  -8  -3   5  164428   36642                                                      178785   -0.24    0.01  1.0000
  -8   3   5   80122   23123                                                       88295   -0.21    0.20  1.0000
  -8   3   4  254845   35743                                                      291581    0.49    0.17  1.0000
  -8  -3   4  306873   29282                                                      343524    0.45   -0.07  1.0000
  -8  -3   4  353043   52055                                                      392282    0.45   -0.07  1.0000
  -8   3   3 1155044   68761                                                     1154650    0.00   -0.06  1.0000
  -8  -3   3 1212007   53144                                                     1213989    0.01    0.09  1.0000
  -8  -3   3 1089684   86531                                                     1091560    0.01    0.09  1.0000
   8   3  -2 2010754   71943                                                     1977192   -0.16   -0.08  1.0000
  -8  -3   2 1851720  112371                                                     1820364   -0.16    0.08  1.0000
   8  -3  -2 1931525   64627                                                     1897503   -0.17   -0.01  1.0000
   8   3  -1   57125   10764                                                       22227   -1.26    0.02  1.0000
  -8  -3   1   69148   21916                                                       29903   -1.26   -0.02  1.0000
  -8   3   1   89607   14942                                                       43649   -1.27    0.01  1.0000
   8  -3  -1   75154   10899                                                       33723   -1.27   -0.01  1.0000
   8   3   0   68993   16960                                                       87132   -0.46    0.01  1.0000
   8  -3   0   39643    9887                                                       53432   -0.45    0.03  1.0000
   8  -3   0   44048   13988                                                       58529   -0.45    0.03  1.0000
   8   3   1  558116   40421                                                      604661   -0.42   -0.13  1.0000
   8  -3   1  548107   27652                                                      593100   -0.42    0.14  1.0000
   8  -3   1  569180   37852                                                      615014   -0.42    0.14  1.0000
   8   3   2  494119   38830                                                      550000   -0.54    0.08  1.0000
   8  -3   2  490851   27249                                                      546819   -0.54   -0.05  1.0000
   8  -3   2  507979   37021                                                      564889   -0.54   -0.05  1.0000
   8   3   3   11373   10791                                                        5993   -0.41   -0.06  1.0000
   8  -3   3    5288    5525                                                        2119   -0.41    0.05  1.0000
   8  -3   3     861   10487                                                        -806   -0.41    0.05  1.0000
   8   3   4  422187   33856                                                      426209    0.04    0.03  1.0000
   8  -3   4  431158   25117                                                      435462    0.05    0.00  1.0000
   8  -3   4  425185   34150                                                      429459    0.05    0.00  1.0000
   8   3   5  824139   47602                                                      899728    0.57    0.11  1.0000
   8  -3   5  852615   36019                                                      927845    0.56   -0.13  1.0000
   8  -3   5  793061   46982                                                      865668    0.56   -0.13  1.0000
   8   3   6  326447   27861                                                      310777    0.19    0.05  1.0000
   8  -3   6  276516   19056                                                      262815    0.19   -0.08  1.0000
   8   3   7  461291   32951                                                      482684   -0.22    0.17  1.0000
   8  -3   7  417244   32814                                                      438853   -0.22   -0.17  1.0000
   8   3   8  230426   20417                                                      213555    0.26   -0.08  1.0000
   8  -3   8  240070   22222                                                      221719    0.26    0.09  1.0000
   8   3   9      11    7072                                                       -1166    0.04   -0.03  1.0000
   8  -3   9      17    8545                                                       -7042    0.04    0.04  1.0000
   8  -3  10   15611    6266                                                       20533    0.26    0.00  1.0000
   8  -3  10   12666    7226                                                       17133    0.26    0.00  1.0000
   8  -3  11   61084    7670                                                       55382   -0.17    0.05  1.0000
   8  -4 -15     388    3791                                                       -2472    0.27    0.02  1.0000
  -8  -4  14    3201    4569                                                        6777   -0.36    0.16  1.0000
  -8  -4  13   17875    7441                                                       22218   -0.22    0.11  1.0000
  -8  -4  13   15991    8643                                                       20108   -0.22    0.11  1.0000
  -8  -4  12   22407    7236                                                       18646    0.19   -0.03  1.0000
  -8  -4  12   20369    8820                                                       16791    0.19   -0.03  1.0000
  -8  -4  11    1464    6815                                                       -3395   -0.53    0.06  1.0000
  -8  -4  11    1464    8124                                                       -4155   -0.53    0.06  1.0000
  -8  -4  10  142146   16527                                                      126219   -0.30   -0.06  1.0000
  -8  -4  10  135084   17917                                                      119569   -0.30   -0.06  1.0000
  -8  -4   9  514370   32836                                                      513567    0.00   -0.21  1.0000
  -8  -4   8   78683   15952                                                       93593    0.36   -0.04  1.0000
  -8  -4   7    6919    8694                                                       12519   -0.39    0.41  1.0000
  -8  -4   6  239622   21951                                                      195157    0.71   -0.35  1.0000
   8  -4  -6  200911   19038                                                      167932    0.53    0.09  1.0000
  -8  -4   5   94884   14801                                                       79764    0.37   -0.14  1.0000
   8  -4  -5   76398   12355                                                       64915    0.31   -0.05  1.0000
   8  -4  -4  154666   16166                                                      131887   -0.42   -0.13  1.0000
   8  -4  -2  825535   45947                                                      900770    0.57   -0.01  1.0000
   8  -4  -1  289307   23444                                                      358579    0.85   -0.07  1.0000
   8  -4  -1  255122   27430                                                      320397    0.85   -0.07  1.0000
   8  -4   0  295430   19408                                                      227901    0.93   -0.09  1.0000
   8  -4   0  319037   25275                                                      248694    0.93   -0.09  1.0000
   8  -4   1  620894   29510                                                      611452    0.09   -0.06  1.0000
   8  -4   1  607089   37684                                                      597754    0.09   -0.06  1.0000
   8  -4   2  145898   13882                                                      122108    0.45    0.01  1.0000
   8  -4   2  124527   17614                                                      102629    0.45    0.01  1.0000
   8  -4   3   61851   11689                                                       80701    0.50   -0.03  1.0000
   8  -4   3   53789   15649                                                       71452    0.50   -0.03  1.0000
   8  -4   4  232929   26864                                                      253879    0.30   -0.03  1.0000
   8  -4   4  246167   19986                                                      267691    0.30   -0.03  1.0000
   8  -4   5    3540    6350                                                        3434   -0.04    0.03  1.0000
   8  -4   5    8065    9896                                                        7910   -0.04    0.03  1.0000
   8  -4   6   42703   11812                                                       37691   -0.18    0.07  1.0000
   8  -4   6   41555    9019                                                       36612   -0.18    0.07  1.0000
   8  -4   7  174255   20482                                                      192031   -0.29    0.07  1.0000
   8  -4   8  311941   22821                                                      300669    0.14    0.05  1.0000
  -8  -4  -9   38605    6341                                                       35158    0.13   -0.02  1.0000
   8  -4   9   62824   10229                                                       58474    0.12    0.01  1.0000
   8  -4  10   89528    8026                                                       63990   -0.64   -0.05  1.0000
   8  -5 -14   13048    3613                                                       10520    0.16    0.06  1.0000
   8  -5 -13   49379    7893                                                       55137   -0.18    0.00  1.0000
   8  -5 -12    1646    5735                                                       -3156    0.57    0.01  1.0000
   8  -5 -11      67    6710                                                       -3881   -0.11   -0.03  1.0000
   8  -5 -10   49377   11661                                                       51444    0.07   -0.05  1.0000
   8  -5  -9  104603   16255                                                      121076    0.34    0.07  1.0000
   8  -5  -8   85876   12797                                                       72914   -0.32   -0.02  1.0000
   8  -5  -7   23369    8891                                                       22849    0.02    0.06  1.0000
   8  -5  -6  366962   25698                                                      367826   -0.01    0.03  1.0000
   8  -5  -5   48081   10904                                                       47292    0.02    0.07  1.0000
   8  -5  -4   11275    7255                                                       11519    0.01    0.04  1.0000
   8  -5  -4   17663   10363                                                       17971    0.01    0.04  1.0000
   8  -5  -3  610644   30214                                                      604871   -0.06    0.08  1.0000
   8  -5  -3  668721   37587                                                      662680   -0.06    0.08  1.0000
   8  -5  -2  716813   32226                                                      740268    0.19    0.03  1.0000
   8  -5  -2  721585   39607                                                      745118    0.19    0.03  1.0000
   8  -5  -1   16721    6653                                                       10848   -0.37    0.11  1.0000
   8  -5  -1   15810    9902                                                       10113   -0.37    0.11  1.0000
   8  -5   0  232162   21542                                                      288671   -0.78    0.04  1.0000
   8  -5   0  174343   22151                                                      223719   -0.78    0.04  1.0000
   8  -5   1  368153   29536                                                      407273   -0.44   -0.01  1.0000
   8  -5   1  378149   25006                                                      417784   -0.44   -0.01  1.0000
   8  -5   2   28433    8474                                                       32341   -0.15   -0.08  1.0000
   8  -5   2   30383   10641                                                       34418   -0.15   -0.08  1.0000
   8  -5   3   12211    6621                                                        8153   -0.28   -0.05  1.0000
   8  -5   3     409    7450                                                       -2257   -0.28   -0.05  1.0000
   8  -5   4   81590   11893                                                       81211   -0.01    0.02  1.0000
   8  -5   4   58001   11297                                                       57681   -0.01    0.02  1.0000
   8  -5   5  122886   14086                                                       98702   -0.51   -0.07  1.0000
   8  -5   5  136845   13053                                                      111251   -0.51   -0.07  1.0000
   8  -5   6       7    7484                                                       -5740   -0.04    0.01  1.0000
   8  -5   6    9337    6027                                                        9842   -0.04    0.01  1.0000
   8  -5   7  110535   12052                                                      103512    0.15    0.06  1.0000
  -8  -5  -8  129111   10764                                                      122871    0.13   -0.09  1.0000
   8  -5   8  160581   12246                                                      152838    0.14   -0.10  1.0000
   8  -6 -12   65250    6322                                                       56165    0.26    0.06  1.0000
   8  -6 -11    5663    4177                                                        3339   -0.24   -0.02  1.0000
   8  -6 -10   35293    7996                                                       40887    0.20    0.02  1.0000
   8  -6  -9   35913    8473                                                       33961   -0.08    0.03  1.0000
   8  -6  -8    3314    5878                                                        4870    0.17   -0.01  1.0000
   8  -6  -7   43636    9241                                                       37894    0.20   -0.03  1.0000
   8  -6  -7   43462    9283                                                       37732    0.20   -0.03  1.0000
   8  -6  -6   66697   11122                                                       66864    0.00   -0.05  1.0000
   8  -6  -6   68604   12041                                                       68773    0.00   -0.05  1.0000
   8  -6  -5  330297   22212                                                      350837   -0.25    0.09  1.0000
   8  -6  -5  344766   24190                                                      365745   -0.25    0.09  1.0000
   8  -6  -4   79641   11746                                                       78306   -0.04    0.13  1.0000
   8  -6  -4   83725   12901                                                       82358   -0.04    0.13  1.0000
   8  -6  -3  244765   18984                                                      238096   -0.09   -0.01  1.0000
   8  -6  -3  250752   20087                                                      244001   -0.09   -0.01  1.0000
   8  -6  -2  186522   14707                                                      179143   -0.12   -0.12  1.0000
   8  -6  -2  231090   18912                                                      222877   -0.12   -0.12  1.0000
   8  -6  -2  254279   18495                                                      245664   -0.12   -0.12  1.0000
   8  -6  -1    6773    3948                                                        3775   -0.29   -0.07  1.0000
   8  -6  -1    7123    6078                                                        4037   -0.29   -0.07  1.0000
   8  -6  -1    6795    6614                                                        3791   -0.29   -0.07  1.0000
   8  -6   0   60693    7117                                                       45889    0.44    0.09  1.0000
   8  -6   0   51114    8743                                                       37612    0.44    0.09  1.0000
   8  -6   0   51645    9895                                                       38068    0.44    0.09  1.0000
   8  -6   1  128041   12983                                                      106342    0.44    0.04  1.0000
   8  -6   2  189089   16160                                                      196290   -0.12    0.12  1.0000
   8  -6   3   13013    6688                                                       11163   -0.12    0.04  1.0000
   8  -6   4  129498   13689                                                      156290    0.50    0.02  1.0000
  -8  -6  -5   93713   11564                                                       90817   -0.07   -0.01  1.0000
   8  -6   5   99048   10437                                                       96183   -0.06    0.01  1.0000
  -8  -6  -6    8348    5274                                                        9925   -0.12   -0.03  1.0000
  -8  -6  -7   92089    6500                                                       60504    0.80    0.02  1.0000
   8  -7  -9   61370    5994                                                       43404   -0.55   -0.14  1.0000
   8  -7  -8      76    4526                                                       -7401   -0.12    0.01  1.0000
   8  -7  -7   80910    8645                                                       75411    0.14    0.06  1.0000
   8  -7  -6  193598   12881                                                      173270    0.33    0.06  1.0000
   8  -7  -5    4859    3694                                                        2341   -0.56   -0.48  1.0000
   8  -7  -5    4682    4911                                                        2153   -0.56   -0.48  1.0000
   8  -7  -4    3009    3726                                                       -1418    0.77    0.02  1.0000
   8  -7  -4    3009    5918                                                       -4409    0.77    0.02  1.0000
   8  -7  -3   49573    6557                                                       46195   -0.11    0.03  1.0000
   8  -7  -3   59169    8340                                                       55475   -0.11    0.03  1.0000
   8  -7  -2  117910    9638                                                      126962    0.18   -0.01  1.0000
   8  -7  -2  134469   12297                                                      144124    0.18   -0.01  1.0000
   8  -7  -1   58172    6881                                                       65329    0.20    0.02  1.0000
   8  -7  -1   70107    9694                                                       77943    0.20    0.02  1.0000
   8  -7   0   29643    4814                                                       32742   -0.11   -0.08  1.0000
   8  -7   0   27461    7339                                                       30444   -0.11   -0.08  1.0000
   8  -7   1  265102   15200                                                      263745    0.02   -0.07  1.0000
  -8  -7  -2   25493    5630                                                       24278    0.06   -0.02  1.0000
   8  -7   2   30294    6267                                                       29159    0.05   -0.01  1.0000
  -8  -7  -3    7599    3854                                                        6197   -0.12    0.00  1.0000
   8  -7   3   10591    4640                                                        8919   -0.12   -0.01  1.0000
  -9   0  16    9541    4269                                                        7730    0.14   -0.02  1.0000
  -9   0  15   63933   10977                                                       69450   -0.15   -0.01  1.0000
  -9   0  14   20087    8228                                                       24020   -0.19   -0.01  1.0000
  -9   0  13    6936    7589                                                       18091    0.72    0.01  1.0000
  -9   0  12  299512   24524                                                      279398   -0.26    0.01  1.0000
  -9   0  11  125888   17107                                                      117751   -0.16    0.00  1.0000
  -9   0  10   10973   10104                                                       20971    0.56    0.03  1.0000
  -9   0   9   27996    8348                                                       12323    0.79    0.06  1.0000
  -9   0   8  249324   25174                                                      265807   -0.23   -0.02  1.0000
  -9   0   7  247595   27332                                                      322788   -0.99   -0.03  1.0000
  -9   0   6   87019   20106                                                       33071    1.58    0.04  1.0000
  -9   0   6  106601   12510                                                       45526    1.58    0.04  1.0000
  -9   0   5 1731245   70138                                                     2227110    2.47   -0.03  1.0000
  -9   0   5 1747665  126593                                                     2245730    2.47   -0.03  1.0000
   9   0  -5 1807358   67613                                                     2313579    2.47    0.03  1.0000
  -9   0   4 1122835   47834                                                     1024731   -0.67    0.09  1.0000
  -9   0   4 1050889   82720                                                      956050   -0.67    0.09  1.0000
   9   0  -4 1133221   45817                                                     1033731   -0.67   -0.09  1.0000
  -9   0   3   63734   14494                                                       80204    0.43    0.03  1.0000
   9   0  -3   62197   14417                                                       78419    0.43   -0.03  1.0000
  -9   0   3  103977   34936                                                      124752    0.43    0.03  1.0000
   9   0  -2  285116   26318                                                      238872    0.64   -0.05  1.0000
   9   0  -2  231585   20953                                                      190106    0.64   -0.05  1.0000
  -9   0   2  309437   45351                                                      260757    0.64    0.05  1.0000
   9   0  -1  192766   22488                                                      163709    0.48   -0.01  1.0000
   9   0  -1  168961   18861                                                      141832    0.48   -0.01  1.0000
  -9   0   1  178328   34475                                                      150348    0.48    0.01  1.0000
   9   0   0    9805   10940                                                       29619    1.03    0.02  1.0000
   9   0   0    9213   10373                                                       28581    1.03    0.02  1.0000
  -9   0   0   21449   20002                                                       48336    1.03   -0.02  1.0000
   9   0   1   56336   17122                                                       78473    0.60    0.03  1.0000
  -9   0  -1   41259   24169                                                       60372    0.60   -0.03  1.0000
   9   0   1   70701   17059                                                       95281    0.60    0.03  1.0000
   9   0   2  662079   43469                                                      674794    0.10    0.10  1.0000
   9   0   2  647424   41444                                                      659997    0.10    0.10  1.0000
   9   0   3  314883   33986                                                      407328    1.08   -0.08  1.0000
   9   0   3  351038   35471                                                      448319    1.08   -0.08  1.0000
   9   0   4   17549   13005                                                       39240    0.92    0.02  1.0000
   9   0   4   12936   13545                                                       32168    0.92    0.02  1.0000
   9   0   5  288718   29913                                                      309698   -0.27    0.04  1.0000
   9   0   6  439159   37230                                                      540788   -1.02    0.01  1.0000
   9   0   6  424595   32494                                                      524613   -1.02    0.01  1.0000
   9   0   7  129146   18701                                                      117240    0.24   -0.03  1.0000
   9   0   7  141718   16020                                                      129233    0.24   -0.03  1.0000
   9   0   8  146147   18310                                                      134587   -0.22    0.00  1.0000
   9   0   8  127254   13089                                                      116483   -0.22    0.00  1.0000
   9   0   9  196087   17363                                                      168131   -0.46    0.02  1.0000
   9   0  10  123341   12735                                                      125345    0.04    0.00  1.0000
   9   0  11    1443    3480                                                       -2782    0.53    0.00  1.0000
  -9   1  16    3703    2937                                                        2975    0.09    0.11  1.0000
  -9  -1  16   10126    4833                                                        9050    0.08   -0.06  1.0000
  -9  -1  15   40681    8991                                                       41358   -0.01   -0.12  1.0000
  -9   1  15   54690    8681                                                       55384   -0.02    0.12  1.0000
  -9  -1  14   27191    8971                                                       23782    0.15    0.15  1.0000
  -9   1  14   26346    8027                                                       23811    0.15   -0.17  1.0000
  -9  -1  13   25793   10029                                                       27506    0.07   -0.03  1.0000
  -9   1  13   25599    8850                                                       27151    0.07    0.02  1.0000
  -9  -1  13   20606    8587                                                       22139    0.07   -0.03  1.0000
  -9  -1  12   85905   13825                                                       67076   -0.49    0.11  1.0000
  -9   1  12   75263   11753                                                       57080   -0.49   -0.12  1.0000
  -9  -1  12   85753   13563                                                       66942   -0.49    0.11  1.0000
  -9  -1  11  234142   22756                                                      217406   -0.25   -0.01  1.0000
  -9   1  11  265520   22607                                                      247615   -0.25    0.02  1.0000
  -9  -1  11  227145   22690                                                      210665   -0.25   -0.01  1.0000
  -9  -1  10   20625   11220                                                       29447    0.39    0.03  1.0000
  -9   1  10   29405   11173                                                       39663    0.39   -0.05  1.0000
  -9  -1  10   34163   12972                                                       45292    0.39    0.03  1.0000
  -9  -1   9  114425   16627                                                       94798    0.45   -0.27  1.0000
  -9   1   9  125975   16090                                                      103937    0.45    0.18  1.0000
  -9   1   8  528724   39329                                                      718100   -1.69    0.18  1.0000
  -9  -1   8  517986   41798                                                      709170   -1.71   -0.10  1.0000
  -9   1   7  288371   29117                                                      379109   -1.10   -0.10  1.0000
  -9  -1   7  279453   30048                                                      368672   -1.10    0.06  1.0000
  -9   1   6  179411   49860                                                      318310    1.96    0.20  1.0000
  -9   1   6  171559   26132                                                      307821    1.96    0.20  1.0000
  -9  -1   6  192266   29343                                                      336874    1.98   -0.07  1.0000
  -9  -1   6  210240   52829                                                      360538    1.98   -0.07  1.0000
  -9  -1   5  221249   18836                                                      122345   -1.69   -0.01  1.0000
  -9   1   5  215229   16885                                                      118203   -1.68   -0.04  1.0000
  -9  -1   5  156891   26873                                                       75890   -1.69   -0.01  1.0000
  -9   1   5  196890   36233                                                      104716   -1.68   -0.04  1.0000
  -9  -1   4  810179   38823                                                      640808   -1.39   -0.30  1.0000
  -9  -1   4  859798   72610                                                      685030   -1.39   -0.30  1.0000
  -9   1   4  831381   67327                                                      660813   -1.40    0.24  1.0000
   9  -1  -4  958147   41235                                                      771840   -1.40   -0.24  1.0000
   9  -1  -3  268249   25094                                                      222808   -0.67    0.46  1.0000
  -9  -1   3  250537   22589                                                      206658   -0.66    0.38  1.0000
   9  -1  -3  271128   23622                                                      225439   -0.67    0.46  1.0000
  -9  -1   3  281643   45784                                                      235047   -0.66    0.38  1.0000
  -9   1   3  179049   34150                                                      141212   -0.67   -0.46  1.0000
   9  -1  -2   55065   14204                                                       43354    0.40   -0.19  1.0000
   9   1  -2   65551   14219                                                       51401    0.40    0.22  1.0000
  -9  -1   2   70220   23842                                                       57145    0.40   -0.22  1.0000
   9  -1  -2   44242   10502                                                       33788    0.40   -0.19  1.0000
  -9   1   2   85273   23780                                                       69102    0.40    0.19  1.0000
   9  -1  -1  388416   34669                                                      442413   -0.59   -0.02  1.0000
   9   1  -1  395153   35099                                                      448936   -0.58    0.02  1.0000
  -9  -1   1  337186   55029                                                      387216   -0.58   -0.02  1.0000
  -9   1   1  369958   52367                                                      422509   -0.59    0.02  1.0000
   9  -1  -1  387822   31825                                                      441779   -0.59   -0.02  1.0000
   9  -1   0   53953   17903                                                       81958   -0.75   -0.04  1.0000
   9   1   0   58734   17405                                                       88180   -0.77    0.02  1.0000
   9  -1   0   41737   14275                                                       66720   -0.75   -0.04  1.0000
  -9  -1   0   10640   18185                                                       24939   -0.77   -0.02  1.0000
  -9   1   0   95359   31323                                                      131416   -0.75    0.04  1.0000
   9  -1   1  509882   34724                                                      438792   -0.72    0.01  1.0000
   9   1   1  470409   33251                                                      402089   -0.72   -0.03  1.0000
   9   1   1  485235   32118                                                      415805   -0.72   -0.03  1.0000
   9  -1   1  499965   33797                                                      429596   -0.72    0.01  1.0000
   9  -1   2  648090   38678                                                      535659   -1.02   -0.11  1.0000
   9   1   2  634903   37986                                                      522659   -1.03    0.00  1.0000
   9   1   2  678371   37844                                                      562166   -1.03    0.00  1.0000
   9  -1   2  606035   36412                                                      497489   -1.02   -0.11  1.0000
   9  -1   3  392471   33898                                                      405359    0.12    0.29  1.0000
   9   1   3  365514   32872                                                      375472    0.12   -0.26  1.0000
   9  -1   3  429881   34291                                                      443383    0.12    0.29  1.0000
   9  -1   4    3618   11853                                                        8108   -0.58   -0.82  1.0000
   9   1   4    3780   10028                                                        7665   -0.56    0.78  1.0000
   9  -1   4    4157   11294                                                        9384   -0.58   -0.82  1.0000
   9  -1   5  269791   28407                                                      291324   -0.29    0.14  1.0000
   9   1   5  232668   26488                                                      254626   -0.30   -0.15  1.0000
   9  -1   5  232393   26950                                                      252400   -0.29    0.14  1.0000
   9  -1   6  381006   30550                                                      369502    0.13    0.06  1.0000
   9   1   6  337233   29231                                                      327572    0.12   -0.07  1.0000
   9  -1   7   80451   13609                                                       62380    0.47    0.04  1.0000
   9   1   7   71003   13314                                                       54376    0.47   -0.06  1.0000
   9  -1   7   61535   11323                                                       45873    0.47    0.04  1.0000
   9  -1   8   12506    9223                                                       14463    0.10    0.12  1.0000
   9   1   8   17174    9416                                                       19031    0.10   -0.12  1.0000
   9  -1   8   24342    8931                                                       27067    0.10    0.12  1.0000
   9  -1   9  279429   21394                                                      298704    0.25    0.02  1.0000
   9   1   9  273859   21802                                                      292797    0.25    0.00  1.0000
   9  -1   9  275563   18939                                                      294707    0.25    0.02  1.0000
   9   1  10   81038    9860                                                       75265   -0.15    0.10  1.0000
   9  -1  10   64209    7668                                                       58343   -0.16   -0.12  1.0000
  -9  -2  16    9985    4006                                                        7131    0.22   -0.04  1.0000
  -9  -2  15   13423    6785                                                       16638   -0.19    0.14  1.0000
  -9  -2  14   37075   10437                                                       44231   -0.25    0.01  1.0000
  -9  -2  13      12    7759                                                      -11466    0.05   -0.02  1.0000
  -9  -2  13      12    8120                                                       -4567    0.05   -0.02  1.0000
  -9  -2  12  141801   18925                                                      154957    0.24   -0.10  1.0000
  -9  -2  12  150445   20035                                                      163990    0.24   -0.10  1.0000
  -9  -2  11  233062   22158                                                      195483   -0.57   -0.02  1.0000
  -9  -2  11  226254   22186                                                      189252   -0.57   -0.02  1.0000
  -9  -2  10   15442    9680                                                       15545    0.00    0.09  1.0000
  -9  -2  10   21082   11290                                                       21209    0.00    0.09  1.0000
  -9  -2   9  363202   26887                                                      283908    0.98    0.29  1.0000
  -9  -2   8  532302   35280                                                      490918    0.40    0.12  1.0000
  -9  -2   7  216600   25514                                                      231486   -0.17   -0.50  1.0000
  -9  -2   6      56   10450                                                       -6193   -0.07    0.08  1.0000
  -9  -2   5  276068   30522                                                      370695    1.16    0.14  1.0000
   9  -2  -4  294045   28904                                                      347939    0.66    0.12  1.0000
  -9  -2   4  291652   29024                                                      342134    0.63    0.01  1.0000
   9  -2  -3   26583   10540                                                       21438   -0.24    0.09  1.0000
   9  -2  -3   44709   12385                                                       37970   -0.24    0.09  1.0000
   9  -2  -2    3472   11503                                                      -34789    0.82   -0.01  1.0000
   9   2  -2    3431   13582                                                      -11451    0.82    0.03  1.0000
   9  -2  -2    3472    8900                                                       -3438    0.82   -0.01  1.0000
   9  -2  -1  356901   28767                                                      333690    0.28   -0.08  1.0000
   9   2  -1  400604   33058                                                      374903    0.28    0.12  1.0000
   9  -2  -1  403389   29820                                                      378691    0.28   -0.08  1.0000
   9  -2   0  138034   18028                                                      111967    0.52   -0.12  1.0000
   9   2   0  144027   19673                                                      116799    0.53    0.06  1.0000
   9  -2   0  139743   17663                                                      113507    0.52   -0.12  1.0000
   9  -2   1   81435   17550                                                      103368    0.50    0.04  1.0000
   9   2   1  120820   22136                                                      147265    0.51   -0.03  1.0000
   9  -2   1  116506   20480                                                      142484    0.50    0.04  1.0000
   9  -2   2  951584   50239                                                     1039941    0.62    0.10  1.0000
   9   2   2  952972   53155                                                     1042871    0.63   -0.12  1.0000
   9  -2   2  876071   49867                                                      960927    0.62    0.10  1.0000
   9  -2   3  515218   38802                                                      620173    0.97    0.13  1.0000
   9   2   3  479821   39556                                                      579753    0.96   -0.06  1.0000
   9  -2   3  520863   39568                                                      626365    0.97    0.13  1.0000
   9  -2   4   56484   14220                                                       48855    0.23    0.08  1.0000
   9   2   4   45758   12241                                                       39025    0.23   -0.07  1.0000
   9  -2   4   58840   15026                                                       51048    0.23    0.08  1.0000
   9  -2   5  212355   24425                                                      246544   -0.51    0.17  1.0000
   9   2   5  213900   26177                                                      249893   -0.51   -0.14  1.0000
   9  -2   5  183697   25227                                                      215572   -0.51    0.17  1.0000
   9  -2   6  521789   33117                                                      534518   -0.12   -0.01  1.0000
   9   2   6  541165   35649                                                      553336   -0.12    0.06  1.0000
   9  -2   7   49389    9171                                                       33364    0.55    0.02  1.0000
   9   2   7   57434   11369                                                       40087    0.56   -0.06  1.0000
   9  -2   7   58618   11693                                                       41019    0.55    0.02  1.0000
   9  -2   8   46476    9706                                                       47588    0.04    0.00  1.0000
   9   2   8   57224   11670                                                       58578    0.04    0.00  1.0000
   9  -2   8   47785   11206                                                       48912    0.04    0.00  1.0000
   9   2   9  117827   13480                                                      110607   -0.15    0.01  1.0000
   9  -2   9  122822   12441                                                      115122   -0.16   -0.01  1.0000
   9  -2  10   24326    5774                                                       24924    0.03   -0.03  1.0000
  -9  -3  15   51499    6791                                                       41661    0.32    0.06  1.0000
  -9  -3  14   22502    6911                                                       22878   -0.02   -0.01  1.0000
  -9  -3  13   13123    7202                                                       15593    0.14   -0.13  1.0000
  -9  -3  12  136050   17094                                                      144820    0.17   -0.06  1.0000
  -9  -3  11  134734   16595                                                      118309   -0.32   -0.02  1.0000
  -9  -3  10    3489    8687                                                         569    0.49   -0.17  1.0000
  -9  -3   9  101468   18801                                                      122825   -0.45    0.03  1.0000
  -9  -3   8  551321   37595                                                      577260   -0.25    0.37  1.0000
  -9  -3   7  314597   28247                                                      296930    0.22    0.00  1.0000
  -9  -3   6    3822    8458                                                       11423   -0.63    0.02  1.0000
  -9  -3   5  249847   24972                                                      229746   -0.30    0.15  1.0000
   9   3  -3   91507   16059                                                       64483   -0.68    0.07  1.0000
   9  -3  -3  108067   15798                                                       77969   -0.69    0.00  1.0000
   9   3  -2  177277   23709                                                      170221    0.12   -0.02  1.0000
   9  -3  -2  199251   22756                                                      191341    0.13    0.00  1.0000
   9   3  -1   88589   19790                                                      118131   -0.63   -0.13  1.0000
   9  -3  -1   69155   17470                                                       94086   -0.62    0.07  1.0000
   9   3   0   17937   14150                                                       40623   -0.94   -0.10  1.0000
   9  -3   0   11463   11906                                                       30134   -0.94    0.06  1.0000
   9   3   1  104578   17716                                                       89269   -0.34   -0.10  1.0000
   9  -3   1   84560   16514                                                       71246   -0.34    0.12  1.0000
   9   3   2  632403   40543                                                      607147   -0.23    0.10  1.0000
   9  -3   2  602341   37509                                                      575418   -0.24   -0.07  1.0000
   9   3   3  486238   34037                                                      435421   -0.53    0.11  1.0000
   9  -3   3  485467   33535                                                      433233   -0.54   -0.12  1.0000
   9   3   4   95529   16462                                                       73782   -0.52    0.00  1.0000
   9  -3   4   61837   14064                                                       44681   -0.52   -0.04  1.0000
   9   3   5  730790   40116                                                      717895    0.10    0.04  1.0000
   9  -3   5  724645   40305                                                      712792    0.10   -0.03  1.0000
   9   3   6  223546   20987                                                      217026    0.10   -0.04  1.0000
   9  -3   6  250020   23761                                                      242223    0.11    0.00  1.0000
   9   3   7   18288    9692                                                       17347    0.05    0.03  1.0000
   9  -3   7   15445    9210                                                       14615    0.05   -0.02  1.0000
   9   3   8   36402    7216                                                       22022   -0.60    0.08  1.0000
   9  -3   8   52167    9370                                                       34350   -0.60   -0.08  1.0000
   9  -3   9   20060    6061                                                       18094   -0.10    0.00  1.0000
   9  -4 -14    1672    3181                                                        1012    0.12    0.06  1.0000
  -9  -4  13    6313    5140                                                        4701   -0.18    0.07  1.0000
   9  -4 -13     259    4926                                                       -6995   -0.19    0.11  1.0000
  -9  -4  12   41641    9094                                                       42600    0.03    0.09  1.0000
  -9  -4  11   74039   12285                                                       77725    0.09    0.06  1.0000
  -9  -4  10   20214    7929                                                       16514   -0.19   -0.12  1.0000
  -9  -4   9  153035   18903                                                      166843   -0.24   -0.10  1.0000
   9  -4  -9  132826   16571                                                      146020   -0.24   -0.17  1.0000
  -9  -4   8  342718   26153                                                      323512    0.24   -0.13  1.0000
   9  -4  -8  304848   22405                                                      285122    0.26   -0.10  1.0000
  -9  -4   7  280819   24539                                                      264893    0.22   -0.09  1.0000
   9  -4  -7  250021   20270                                                      238909    0.15    0.09  1.0000
   9  -4  -6   10890    6788                                                       14951   -0.25    0.08  1.0000
   9   4  -5  179002   22919                                                      207089    0.44    0.06  1.0000
   9   4  -4  290239   28568                                                      337548    0.59    0.11  1.0000
   9  -4  -4  299487   28841                                                      346388    0.58   -0.16  1.0000
   9   4  -3   19186   10117                                                       19527    0.02    0.03  1.0000
   9  -4  -3   19824   11947                                                       20266    0.02   -0.07  1.0000
   9   4  -2   17795    8785                                                       15759    0.10    0.06  1.0000
   9  -4  -2   33258    8142                                                       31352    0.08   -0.03  1.0000
   9  -4  -2   22944   10451                                                       21363    0.08   -0.03  1.0000
   9   4  -1  281552   25277                                                      264384    0.23    0.09  1.0000
   9  -4  -1  279001   18607                                                      263419    0.21   -0.05  1.0000
   9  -4  -1  308532   26597                                                      292135    0.21   -0.05  1.0000
   9   4   0    4028    9555                                                         -75    0.89   -0.03  1.0000
   9  -4   0    4078    5334                                                        -547    0.89    0.02  1.0000
   9  -4   0    5530    8405                                                         603    0.89    0.02  1.0000
   9   4   1  242041   25259                                                      279557    0.51   -0.01  1.0000
   9  -4   1  222988   18132                                                      259484    0.52    0.01  1.0000
   9  -4   1  206605   24820                                                      241787    0.52    0.01  1.0000
   9   4   2  492141   33557                                                      523793    0.31   -0.04  1.0000
   9  -4   2  494522   25396                                                      527750    0.32    0.03  1.0000
   9  -4   2  485488   35231                                                      518416    0.32    0.03  1.0000
   9   4   3  143631   18653                                                      153678    0.18    0.07  1.0000
   9  -4   3  187938   15703                                                      198996    0.18   -0.08  1.0000
   9  -4   3  195042   23315                                                      206305    0.18   -0.08  1.0000
   9   4   4   16374    7958                                                       11149    0.31   -0.01  1.0000
   9  -4   4   18632    6520                                                       13075    0.31    0.04  1.0000
   9  -4   4   13385   10037                                                        8748    0.31    0.04  1.0000
   9  -4   6  297868   23013                                                      290959    0.09    0.02  1.0000
   9  -4   7  105395   12795                                                       93094    0.27   -0.03  1.0000
  -9  -4  -8    9067    3288                                                        5056   -0.35    0.03  1.0000
   9  -4   8    8381    5197                                                        4539   -0.35    0.05  1.0000
   9  -5 -13    4851    2440                                                        1643   -0.41    0.02  1.0000
   9  -5 -12   13523    4810                                                       17516    0.22    0.01  1.0000
   9  -5 -11   29110    6696                                                       26273   -0.12    0.06  1.0000
   9  -5 -10    2720    4996                                                        1435   -0.21    0.05  1.0000
   9  -5  -9   17858    6179                                                       10667    0.42    0.00  1.0000
   9  -5  -8  198867   16702                                                      199342   -0.01    0.04  1.0000
   9  -5  -7  214280   17242                                                      205897    0.13   -0.02  1.0000
   9  -5  -6    1348    5541                                                         -64   -0.51    0.03  1.0000
   9  -5  -6    1348    8618                                                       -2237   -0.51    0.03  1.0000
   9  -5  -5   52481    9448                                                       54123    0.04    0.10  1.0000
   9  -5  -5   90036   15003                                                       92198    0.04    0.10  1.0000
   9  -5  -4  253529   17174                                                      244474   -0.13    0.04  1.0000
   9  -5  -4  260936   22617                                                      251748   -0.13    0.04  1.0000
   9  -5  -3   19333    6110                                                       14024   -0.29    0.01  1.0000
   9  -5  -3   33744   10188                                                       26593   -0.29    0.01  1.0000
   9  -5  -2  106247   12770                                                       97246    0.20    0.01  1.0000
   9  -5  -2  110183   15300                                                      101014    0.20    0.01  1.0000
   9  -5  -1  147953   14085                                                      150054   -0.04    0.06  1.0000
   9  -5  -1  132704   17661                                                      134693   -0.04    0.06  1.0000
   9  -5   0    7348    6709                                                       14850   -0.50   -0.10  1.0000
   9  -5   0    1298    7315                                                        5204   -0.50   -0.10  1.0000
   9  -5   1  159265   17922                                                      145845   -0.24   -0.04  1.0000
   9  -5   1  196070   14928                                                      181147   -0.24   -0.04  1.0000
   9  -5   2  176534   18449                                                      157126   -0.34    0.04  1.0000
   9  -5   2  192763   14606                                                      172457   -0.34    0.04  1.0000
   9  -5   3   98469   10725                                                       94986   -0.08    0.00  1.0000
   9  -5   3  112135   14572                                                      108416   -0.08    0.00  1.0000
   9  -5   4   13979    7882                                                       14306    0.02    0.00  1.0000
   9  -5   4   10690    5234                                                       10976    0.02    0.00  1.0000
   9  -5   5   85928   11425                                                       83794    0.05    0.04  1.0000
   9  -5   6   97141   10907                                                      112475   -0.33   -0.02  1.0000
  -9  -5  -7   21563    4507                                                       18657    0.14    0.03  1.0000
   9  -6 -10    1062    2999                                                        5093    0.54    0.06  1.0000
   9  -6 -10    4919    4343                                                       11870    0.54    0.06  1.0000
   9  -6  -9   24181    5671                                                       28668   -0.19   -0.03  1.0000
   9  -6  -9   17104    6452                                                       20908   -0.19   -0.03  1.0000
   9  -6  -8   57524    8222                                                       66053   -0.24    0.03  1.0000
   9  -6  -8   74089   10157                                                       83729   -0.24    0.03  1.0000
   9  -6  -7   38317    7011                                                       41869   -0.13    0.04  1.0000
   9  -6  -7   34208    7486                                                       37568   -0.13    0.04  1.0000
   9  -6  -6   46296    7444                                                       41915    0.15   -0.13  1.0000
   9  -6  -6   25235    7021                                                       22004    0.15   -0.13  1.0000
   9  -6  -5  167656   14317                                                      185156    0.29    0.07  1.0000
   9  -6  -5  203805   17500                                                      223057    0.29    0.07  1.0000
   9  -6  -4   70977    7888                                                       66195   -0.14    0.09  1.0000
   9  -6  -4   83409    9825                                                       78224   -0.14    0.09  1.0000
   9  -6  -4   96554   11946                                                       90973   -0.14    0.09  1.0000
   9  -6  -3    5854    3510                                                        4397   -0.14    0.00  1.0000
   9  -6  -3    1625    6287                                                         906   -0.14    0.00  1.0000
   9  -6  -3    5518    6279                                                        4106   -0.14    0.00  1.0000
   9  -6  -2   47862    8102                                                       44323    0.11    0.05  1.0000
   9  -6  -2   43651    8590                                                       40274    0.11    0.05  1.0000
   9  -6  -1   57517    9476                                                       68110   -0.30    0.01  1.0000
   9  -6  -1   45653   10085                                                       55138   -0.30    0.01  1.0000
   9  -6   0    8540    5882                                                       11734   -0.23    0.05  1.0000
   9  -6   0    3471    5103                                                        5586   -0.23    0.05  1.0000
   9  -6   1    7263    5119                                                        7404    0.01   -0.02  1.0000
   9  -6   2  210203   14499                                                      235767    0.38    0.02  1.0000
   9  -6   3  131590    9627                                                      111623   -0.40    0.02  1.0000
  -9  -6  -4    4633    4912                                                        8172    0.31    0.03  1.0000
  -9  -6  -5   62745    5857                                                       41335    0.66   -0.03  1.0000
   9  -7  -7   18541    3453                                                       13463    0.29   -0.06  1.0000
   9  -7  -6   40691    5770                                                       47315    0.21    0.21  1.0000
   9  -7  -5    4949    3355                                                        2416   -0.28   -0.17  1.0000
   9  -7  -4   40186    6186                                                       45155    0.17   -0.12  1.0000
   9  -7  -3   16171    4650                                                       18667    0.13   -0.05  1.0000
   9  -7  -2    7419    3779                                                        6159    0.10    0.03  1.0000
   9  -7  -1   83065    7237                                                       76517    0.17   -0.04  1.0000
   9  -7   0   51129    5663                                                       42766    0.27   -0.02  1.0000
 -10   0  15     237    3950                                                        -513    0.21    0.02  1.0000
 -10   0  14   11013    6369                                                        7317   -0.27    0.00  1.0000
 -10   0  13   35368    9445                                                       38558    0.12   -0.01  1.0000
 -10   0  12   22165    6917                                                       12446    0.52   -0.01  1.0000
 -10   0  11  152906   16236                                                      119008    0.64   -0.01  1.0000
 -10   0  10  297972   25250                                                      296095    0.02   -0.01  1.0000
 -10   0   9  247013   23639                                                      237018    0.14    0.04  1.0000
 -10   0   8   29329    7533                                                        7229    1.21   -0.02  1.0000
 -10   0   7   48140   11562                                                       39499   -0.30    0.01  1.0000
 -10   0   6  862055   43774                                                      847218   -0.11    0.06  1.0000
 -10   0   5   14343    8479                                                       10990   -0.21    0.03  1.0000
  10   0  -5    7824    7654                                                        5370   -0.21   -0.03  1.0000
  10   0  -4  161497   21334                                                      147129    0.26    0.00  1.0000
  10   0  -4  158978   18589                                                      144725    0.26    0.00  1.0000
  10   0  -3  146407   21104                                                      141450    0.09    0.04  1.0000
  10   0  -3  171456   19999                                                      166089    0.09    0.04  1.0000
  10   0  -2   76273   16519                                                       88152    0.29   -0.03  1.0000
  10   0  -2   87434   16708                                                      100122    0.29   -0.03  1.0000
  10   0  -1  655521   43167                                                      646050   -0.08   -0.04  1.0000
  10   0  -1  672575   39966                                                      662981   -0.08   -0.04  1.0000
  10   0   0  530182   40347                                                      562435    0.31   -0.02  1.0000
  10   0   0  517673   37257                                                      549549    0.31   -0.02  1.0000
  10   0   1  459678   35393                                                      445765   -0.14   -0.06  1.0000
  10   0   1  469833   34325                                                      455766   -0.14   -0.06  1.0000
  10   0   2     342    9430                                                        4202    0.61    0.24  1.0000
  10   0   2    2179    9339                                                       -4168    0.61    0.24  1.0000
  10   0   3  244013   28257                                                      289085   -0.61   -0.06  1.0000
  10   0   3  217015   26814                                                      259630   -0.61   -0.06  1.0000
  10   0   4  436561   34061                                                      454466   -0.19   -0.03  1.0000
  10   0   5  146315   16818                                                       95575    1.03   -0.01  1.0000
  10   0   6    3659    9099                                                        5245    0.17   -0.02  1.0000
  10   0   6     155    7075                                                        -428    0.17   -0.02  1.0000
  10   0   7  135416   16226                                                      127332   -0.16    0.01  1.0000
  10   0   8   19792    7311                                                       17492   -0.12    0.01  1.0000
  10   0   9    2525    4199                                                        3921   -0.17   -0.01  1.0000
 -10   1  15    2685    3406                                                        6835   -0.22    0.38  1.0000
 -10  -1  15      31    3988                                                        1136   -0.22   -0.40  1.0000
 -10   1  14   18414    5654                                                       15061   -0.18   -0.18  1.0000
 -10  -1  14   21925    7055                                                       18858   -0.18    0.20  1.0000
 -10   1  13   11546    6724                                                       15949    0.27   -0.10  1.0000
 -10  -1  13   14677    8492                                                       20176    0.28    0.11  1.0000
 -10   1  12    4851    5966                                                        3069   -0.30    0.14  1.0000
 -10  -1  12     653    6607                                                       -3404   -0.31   -0.18  1.0000
 -10   1  11   91544   14725                                                      112139   -0.45   -0.03  1.0000
 -10  -1  11  109283   18148                                                      131339   -0.45    0.04  1.0000
 -10   1  10  326052   26716                                                      369389   -0.52    0.10  1.0000
 -10  -1  10  342150   29303                                                      386748   -0.52    0.00  1.0000
 -10   1   9  233938   21517                                                      204458    0.45   -0.11  1.0000
 -10  -1   9  229894   22938                                                      200433    0.44    0.05  1.0000
 -10   1   8     510    7883                                                       -6926   -0.31   -0.03  1.0000
 -10  -1   8     488    7821                                                       -1981   -0.31    0.04  1.0000
 -10   1   7  379161   24086                                                      258903   -1.53    0.32  1.0000
 -10  -1   7  349307   24712                                                      231174   -1.54   -0.33  1.0000
 -10   1   6  117843   17740                                                      130160    0.25   -0.14  1.0000
 -10  -1   6  111511   19410                                                      124564    0.27    0.02  1.0000
  10  -1  -6  120920   18882                                                      134357    0.25    0.14  1.0000
 -10  -1   5  105190   20195                                                      142183    0.73    0.10  1.0000
  10  -1  -5  133667   21026                                                      174580    0.72    0.17  1.0000
  10  -1  -4   12707    9492                                                        4884    0.93   -0.06  1.0000
  10   1  -4    4397   13240                                                       -7013    0.93    0.05  1.0000
  10  -1  -4   11315    9049                                                        3864    0.93   -0.06  1.0000
  10  -1  -3   72620   19195                                                      111025   -0.89   -0.04  1.0000
  10   1  -3   73331   19730                                                      111586   -0.89    0.01  1.0000
  10  -1  -3  104625   19762                                                      149912   -0.89   -0.04  1.0000
  10  -1  -2    2939   11895                                                      -10864   -0.76    0.01  1.0000
  10   1  -2    2919   13106                                                       -5032   -0.76    0.01  1.0000
  10  -1  -2    2939    8646                                                       -4168   -0.76    0.01  1.0000
  10  -1  -1  467029   36892                                                      491678    0.23    0.36  1.0000
  10   1  -1  469183   37738                                                      492880    0.24   -0.32  1.0000
  10  -1  -1  486254   35472                                                      511410    0.23    0.36  1.0000
  10  -1   0 1075569   54474                                                     1124510    0.33   -0.03  1.0000
  10   1   0 1066240   55391                                                     1116120    0.33    0.10  1.0000
  10  -1   0 1091178   53459                                                     1140470    0.33   -0.03  1.0000
  10  -1   1  278500   26856                                                      257038   -0.29    0.02  1.0000
  10   1   1  261161   27140                                                      241305   -0.27   -0.06  1.0000
  10  -1   1  284344   26583                                                      262654   -0.29    0.02  1.0000
  10  -1   2    4247   11377                                                       11741   -0.49   -0.37  1.0000
  10   1   2    1231   10098                                                        5639   -0.52    0.23  1.0000
  10  -1   2    2889   11273                                                        9389   -0.49   -0.37  1.0000
  10  -1   3  239799   24217                                                      211429    0.41    0.42  1.0000
  10   1   3  213495   23828                                                      190841    0.40   -0.48  1.0000
  10  -1   3  250863   25207                                                      221846    0.41    0.42  1.0000
  10  -1   4  387414   30848                                                      393711   -0.05   -0.28  1.0000
  10   1   4  361762   30613                                                      364340   -0.04    0.30  1.0000
  10  -1   4  339723   29542                                                      345596   -0.05   -0.28  1.0000
  10  -1   5  101758   17407                                                      113738   -0.25   -0.13  1.0000
  10   1   5   66402   14919                                                       75510   -0.24    0.17  1.0000
  10  -1   6    8787    7695                                                        4713   -0.34   -0.07  1.0000
  10   1   6     649    9388                                                       -4664   -0.34    0.09  1.0000
  10  -1   6   19066    8714                                                       12768   -0.34   -0.07  1.0000
  10  -1   7   84987   12385                                                       75416   -0.24    0.02  1.0000
  10   1   7   71944   11859                                                       62811   -0.24   -0.03  1.0000
  10  -1   7   70220   10741                                                       61545   -0.24    0.02  1.0000
  10  -1   8   93295   10413                                                       85184   -0.19    0.06  1.0000
  10   1   8  100162   11737                                                       91377   -0.20   -0.06  1.0000
  10  -1   8   84566    9240                                                       76851   -0.19    0.06  1.0000
  10   1   9    2420    3915                                                       -2327    0.69   -0.06  1.0000
 -10  -2  15    6868    4443                                                       10012   -0.24    0.08  1.0000
 -10  -2  14    5078    5539                                                        6448    0.13   -0.03  1.0000
 -10  -2  13   57467   10536                                                       54296   -0.10    0.09  1.0000
 -10  -2  12    5112    8012                                                        9621    0.37    0.03  1.0000
 -10  -2  11   74079   14819                                                       78566   -0.11   -0.15  1.0000
 -10  -2  10  375070   31195                                                      424005   -0.54    0.16  1.0000
 -10  -2   9   95775   16094                                                       76929    0.47   -0.21  1.0000
 -10  -2   8   20999   13471                                                       46418    0.96    0.28  1.0000
 -10  -2   7  214722   26272                                                      268652    0.76    0.10  1.0000
  10  -2  -6  293848   24468                                                      244142   -0.67   -0.29  1.0000
 -10  -2   6  309921   26103                                                      258643   -0.67   -0.21  1.0000
  10  -2  -5   69720   12021                                                       43311   -0.78   -0.06  1.0000
 -10  -2   5   57001   12085                                                       33113   -0.79   -0.03  1.0000
  10  -2  -5   53432   10546                                                       30701   -0.78   -0.06  1.0000
  10  -2  -4   11261    8397                                                        9948    0.12   -0.02  1.0000
  10   2  -4      80   13887                                                      -12990    0.12   -0.04  1.0000
  10  -2  -4    2912    8937                                                        2248    0.12   -0.02  1.0000
  10  -2  -3   10287    8347                                                       11742   -0.08   -0.06  1.0000
  10   2  -3    8101   10791                                                        8184   -0.08    0.09  1.0000
  10  -2  -3      52    8782                                                       -2906   -0.08   -0.06  1.0000
  10  -2  -2     726    7779                                                       -1954    0.38    0.02  1.0000
  10   2  -2     722   11186                                                       -2795    0.37   -0.03  1.0000
  10  -2  -2     726    9652                                                       -5990    0.38    0.02  1.0000
  10  -2  -1  277019   26209                                                      282348    0.07   -0.11  1.0000
  10   2  -1  253577   28439                                                      258809    0.07    0.15  1.0000
  10  -2  -1  268189   26322                                                      273433    0.07   -0.11  1.0000
  10  -2   0  714787   41512                                                      750105    0.29    0.03  1.0000
  10   2   0  791091   47721                                                      827156    0.28   -0.06  1.0000
  10  -2   0  675645   41788                                                      709995    0.29    0.03  1.0000
  10  -2   1  466641   32923                                                      463695   -0.03   -0.11  1.0000
  10   2   1  480050   36205                                                      478248   -0.03    0.18  1.0000
  10  -2   1  459924   34075                                                      456999   -0.03   -0.11  1.0000
  10  -2   2    6264    8235                                                        6100    0.02    0.04  1.0000
  10   2   2       8   12177                                                       -9940    0.02   -0.04  1.0000
  10  -2   2      10    9928                                                       -4423    0.02    0.04  1.0000
  10  -2   3  442345   31276                                                      463503   -0.22    0.06  1.0000
  10   2   3  504496   35919                                                      527330   -0.22   -0.05  1.0000
  10  -2   3  466248   34567                                                      487964   -0.22    0.06  1.0000
  10  -2   4  238975   21887                                                      222654    0.23    0.16  1.0000
  10   2   4  255467   24517                                                      239253    0.24   -0.13  1.0000
  10  -2   4  267952   25103                                                      250660    0.23    0.16  1.0000
  10  -2   5  135562   15369                                                      121568    0.27    0.10  1.0000
  10   2   5  143255   18345                                                      129157    0.27   -0.09  1.0000
  10  -2   6   12104    7130                                                       15128    0.18    0.01  1.0000
  10   2   6   22423   10793                                                       26239    0.17   -0.02  1.0000
  10  -2   6    2423    7565                                                        3868    0.18    0.01  1.0000
  10  -2   7   77715    9999                                                       79997    0.05    0.04  1.0000
  10   2   7   77410   12155                                                       79627    0.06   -0.03  1.0000
  10  -2   7   71647   11135                                                       73839    0.05    0.04  1.0000
  10   2   8   22741    7719                                                       32069    0.39    0.03  1.0000
  10  -2   8   22004    6712                                                       31151    0.40   -0.03  1.0000
 -10  -3  14    9124    3923                                                        6950   -0.17   -0.08  1.0000
 -10  -3  13   17651    6311                                                       17595    0.00    0.01  1.0000
  10  -3 -13   13103    4635                                                       13159    0.00    0.01  1.0000
 -10  -3  12     765    5946                                                        -636    0.39    0.02  1.0000
 -10  -3  11   99367   15303                                                      111642   -0.26   -0.06  1.0000
 -10  -3  10  109540   15649                                                      103044    0.14    0.07  1.0000
 -10  -3   9  139290   19219                                                      155459   -0.29   -0.06  1.0000
 -10  -3   8    2034    8005                                                       -3529   -0.63   -0.06  1.0000
 -10  -3   7  185910   21225                                                      171276   -0.26    0.20  1.0000
  10  -3  -6  281141   27538                                                      319413    0.48    0.10  1.0000
  10   3  -5   52492   14678                                                       55550    0.09   -0.02  1.0000
  10  -3  -5   73104   15320                                                       76409    0.08    0.11  1.0000
  10   3  -4    2561   11314                                                      -10210    0.71   -0.01  1.0000
  10  -3  -4    4934    8548                                                         468    0.70    0.03  1.0000
  10   3  -3  101542   19824                                                      118689   -0.36   -0.07  1.0000
  10  -3  -3   95423   17609                                                      111319   -0.35    0.03  1.0000
  10   3  -2   28117   11506                                                       20201   -0.37   -0.09  1.0000
  10  -3  -2   14629    8778                                                        9018   -0.36    0.05  1.0000
  10   3  -1  153669   21477                                                      156234    0.04    0.08  1.0000
  10  -3  -1  141444   19353                                                      144136    0.05   -0.05  1.0000
  10   3   0  324248   29122                                                      313356   -0.14    0.05  1.0000
  10  -3   0  347813   28826                                                      335564   -0.15   -0.01  1.0000
  10   3   1  224068   22893                                                      195080   -0.45    0.04  1.0000
  10  -3   1  235597   23400                                                      205810   -0.44   -0.06  1.0000
  10   3   2      20    9891                                                       -3573    0.04   -0.05  1.0000
  10  -3   2      12    9021                                                       -1660    0.04    0.03  1.0000
  10   3   3  190210   19295                                                      150586    0.67    0.02  1.0000
  10  -3   3  214787   21369                                                      172710    0.67   -0.03  1.0000
  10   3   4  780124   38820                                                      779755    0.00    0.00  1.0000
  10  -3   4  784248   39455                                                      784762    0.00   -0.02  1.0000
  10   3   5   23147    9971                                                       31266   -0.35    0.08  1.0000
  10  -3   5   25777   10691                                                       34728   -0.36   -0.07  1.0000
  10   3   6   32709    8581                                                       26304   -0.27    0.07  1.0000
  10  -3   6   11683    8492                                                        7836   -0.27   -0.09  1.0000
  10   3   7   51183    8566                                                       58901    0.23   -0.02  1.0000
  10  -3   7   61170   10085                                                       69629    0.23    0.04  1.0000
  10  -3   8    2836    3986                                                          82   -0.63    0.01  1.0000
  10  -4 -13    2483    3964                                                        2768    0.04    0.02  1.0000
  10   4 -12       1    3620                                                        -235   -0.01   -0.01  1.0000
  10  -4 -12       5    3923                                                       -3921    0.00    0.03  1.0000
  10   4 -11   32110    6840                                                       23907    0.36   -0.12  1.0000
  10  -4 -11   28797    5208                                                       20740    0.36    0.13  1.0000
  10   4 -10  168665   15616                                                      173519   -0.08    0.10  1.0000
  10  -4 -10  135811   12243                                                      140586   -0.09   -0.09  1.0000
  10   4  -9   84395   11868                                                       78756    0.14    0.12  1.0000
  10  -4  -9   39862    7433                                                       36834    0.11   -0.10  1.0000
  10   4  -8      46    8553                                                      -11836   -0.09    0.01  1.0000
  10   4  -7   99973   15700                                                      123162    0.48    0.04  1.0000
  10  -4  -7  107976   17368                                                      132031    0.49   -0.01  1.0000
  10   4  -6  214382   20794                                                      208750   -0.08   -0.08  1.0000
  10  -4  -6  224739   22188                                                      221768   -0.04   -0.04  1.0000
  10   4  -5   42549    9101                                                       25440   -0.65   -0.05  1.0000
  10  -4  -5   60636   12267                                                       39717   -0.66   -0.02  1.0000
  10   4  -4   19975    9581                                                       23988   -0.19    0.02  1.0000
  10  -4  -4   17373    6417                                                       20990   -0.18   -0.07  1.0000
  10   4  -3   30210   10185                                                       23202    0.29    0.08  1.0000
  10  -4  -3   42270   11689                                                       34398    0.29   -0.05  1.0000
  10   4  -2   25622    9197                                                       20739    0.22    0.01  1.0000
  10  -4  -2   15632    9717                                                       12135    0.21    0.00  1.0000
  10   4  -1  132101   17885                                                      138343    0.12   -0.05  1.0000
  10  -4  -1  161383   19670                                                      167884    0.11    0.03  1.0000
  10   4   0  281044   24542                                                      301023    0.26    0.03  1.0000
  10  -4   0  317837   27552                                                      338565    0.25   -0.01  1.0000
  10   4   1  105095   14375                                                       99046   -0.13   -0.14  1.0000
  10  -4   1  113935   17243                                                      108095   -0.13    0.10  1.0000
  10   4   2   31991    9792                                                       31568    0.02   -0.10  1.0000
  10  -4   2   23425    9875                                                       23068    0.02    0.13  1.0000
  10   4   3  232194   19689                                                      264983   -0.46    0.07  1.0000
  10  -4   3  229668   22580                                                      262626   -0.46   -0.09  1.0000
  10  -4   5  148504   15450                                                      153577   -0.09   -0.03  1.0000
  10  -4   6     856    5609                                                       -7150   -0.41    0.01  1.0000
  10  -5 -11   12040    5334                                                       12908   -0.06    0.05  1.0000
  10  -5 -10   25559    4964                                                       30710   -0.22    0.03  1.0000
  10  -5 -10   58979    9681                                                       66686   -0.22    0.03  1.0000
  10  -5  -9   43594    6259                                                       45488   -0.06   -0.02  1.0000
  10  -5  -9   60455   10140                                                       62683   -0.06   -0.02  1.0000
  10  -5  -8      44    3133                                                       -1269    0.09    0.01  1.0000
  10  -5  -8      44    7215                                                       -6819    0.09    0.01  1.0000
  10  -5  -7  119975   15209                                                      135733    0.31   -0.02  1.0000
  10  -5  -6   86145    9443                                                       78649   -0.18    0.01  1.0000
  10  -5  -6   97552   13384                                                       89564   -0.18    0.01  1.0000
  10  -5  -5   55015    8113                                                       57018    0.06   -0.03  1.0000
  10  -5  -5   56117   12171                                                       58140    0.06   -0.03  1.0000
  10  -5  -4    8226    4513                                                        4870    0.29    0.08  1.0000
  10  -5  -4   24103    8690                                                       18056    0.29    0.08  1.0000
  10  -5  -3   56365    8695                                                       65236   -0.25    0.01  1.0000
  10  -5  -3   72319   13252                                                       82325   -0.25    0.01  1.0000
  10  -5  -2    1130    4430                                                        1352   -0.06   -0.03  1.0000
  10  -5  -2      21    7126                                                       -1647   -0.06   -0.03  1.0000
  10  -5  -1   99155    9959                                                      103687    0.10   -0.06  1.0000
  10  -5  -1   86570   13617                                                       90807    0.10   -0.06  1.0000
  10  -5   0  214834   13641                                                      224515    0.14    0.01  1.0000
  10  -5   0  215062   19716                                                      224748    0.14    0.01  1.0000
  10  -5   1   36128    6048                                                       35645   -0.01   -0.04  1.0000
  10  -5   1   24778    8559                                                       24377   -0.01   -0.04  1.0000
  10  -5   2    5047    6499                                                        8460   -0.29   -0.04  1.0000
  10  -5   3   77911    9226                                                       60279    0.47    0.06  1.0000
  10  -5   4  165074   12239                                                      155026    0.17    0.03  1.0000
 -10  -5  -5   25079    4491                                                       14973    0.50    0.00  1.0000
  10  -6  -8       2    3889                                                       -8511   -0.02    0.00  1.0000
  10  -6  -7    4433    3068                                                        2306   -0.27    0.05  1.0000
  10  -6  -7   14234    4531                                                       10200   -0.27    0.05  1.0000
  10  -6  -6  136309    9311                                                      132755   -0.07   -0.06  1.0000
  10  -6  -6  147566   11803                                                      143868   -0.07   -0.06  1.0000
  10  -6  -5       2    3743                                                        -922    0.02    0.01  1.0000
  10  -6  -5    6480    5340                                                        6671    0.02    0.01  1.0000
  10  -6  -4   18190    4770                                                       19890   -0.09    0.09  1.0000
  10  -6  -4   21928    6421                                                       23795   -0.09    0.09  1.0000
  10  -6  -3   27520    5321                                                       28338   -0.03   -0.03  1.0000
  10  -6  -3   35063    7084                                                       35986   -0.03   -0.03  1.0000
  10  -6  -2     295    3186                                                         176   -0.05    0.01  1.0000
  10  -6  -2      16    5200                                                       -5238   -0.05    0.01  1.0000
  10  -6  -1   41851    6217                                                       43532    0.06    0.02  1.0000
  10  -6  -1   22354    5036                                                       23586    0.06    0.02  1.0000
  10  -6   0   59730    6274                                                       60342    0.02    0.00  1.0000
 -10  -6  -1   79416    6441                                                       54380   -0.68    0.03  1.0000
 -11   0  14     700    4010                                                        4487    0.57    0.01  1.0000
 -11   0  13   34629    7635                                                       36666   -0.08    0.02  1.0000
 -11   0  12   33437    8558                                                       36761   -0.12   -0.04  1.0000
 -11   0  11   10017    5548                                                        4340    0.48   -0.02  1.0000
 -11   0  10    3296    6859                                                        7885    0.44    0.01  1.0000
 -11   0   9   61215   12730                                                       60132   -0.03    0.02  1.0000
 -11   0   8  130580   16894                                                      124957   -0.11    0.00  1.0000
 -11   0   7  179973   18386                                                      152146   -0.48    0.02  1.0000
  11   0  -6  126084   18552                                                      109044    0.35    0.04  1.0000
  11   0  -5  202775   26117                                                      245682   -0.64    0.03  1.0000
  11   0  -4     345   11818                                                       -3234    0.26    0.04  1.0000
  11   0  -4   34443    9349                                                       27902    0.26    0.04  1.0000
  11   0  -3  190503   20228                                                      137577   -0.92   -0.01  1.0000
  11   0  -3  207392   18572                                                      151984   -0.92   -0.01  1.0000
  11   0  -2  298659   29146                                                      300614    0.02    0.02  1.0000
  11   0  -2  325818   26763                                                      327860    0.02    0.02  1.0000
  11   0  -1   49586   14336                                                       53273    0.12   -0.02  1.0000
  11   0  -1   74567   14949                                                       79075    0.12   -0.02  1.0000
  11   0   0     115    9600                                                        3224   -0.94    0.07  1.0000
  11   0   0    1781    9929                                                       11933   -0.94    0.07  1.0000
  11   0   1  260002   30665                                                      366619   -1.33   -0.09  1.0000
  11   0   1  255098   28682                                                      360791   -1.33   -0.09  1.0000
  11   0   2  315618   26747                                                      296186    0.24    0.10  1.0000
  11   0   3   81664   15030                                                       88706   -0.17    0.01  1.0000
  11   0   4   17417    8766                                                        5114   -0.85    0.00  1.0000
  11   0   4   21758    6346                                                        7588   -0.85    0.00  1.0000
  11   0   5  116078   12721                                                       80828   -0.79    0.00  1.0000
  11   0   6   94575   11862                                                       91246   -0.08   -0.01  1.0000
  11   0   7    1156    4484                                                         -60    0.48    0.00  1.0000
 -11  -1  14    1870    4447                                                        6175   -0.45   -0.25  1.0000
 -11   1  13   22746    5788                                                       27230   -0.18   -0.12  1.0000
 -11  -1  13    4287    5971                                                        6037   -0.17    0.10  1.0000
 -11   1  12   48764    8005                                                       49522   -0.02   -0.01  1.0000
 -11  -1  12   52598   10604                                                       53657   -0.03    0.06  1.0000
 -11   1  11   55874    9942                                                       58161   -0.07    0.02  1.0000
 -11  -1  11   28909    9670                                                       30645   -0.07   -0.04  1.0000
 -11   1  10     886    7029                                                        4813   -0.55    0.05  1.0000
 -11  -1  10    1489    7658                                                       -7831   -0.53   -0.08  1.0000
  11  -1 -10    1574    5903                                                       -6790   -0.55   -0.05  1.0000
 -11   1   9  102449   14780                                                      116064    0.29    0.05  1.0000
 -11  -1   9   82741   15392                                                       94230    0.27   -0.05  1.0000
  11  -1  -9   84508   12928                                                       96695    0.29   -0.05  1.0000
 -11   1   8  120475   17170                                                      146941    0.51   -0.24  1.0000
 -11  -1   8  138934   20047                                                      167969    0.50    0.22  1.0000
  11  -1  -8  167639   18739                                                      199894    0.51    0.24  1.0000
  11  -1  -7    2390    9284                                                         631    0.33   -0.06  1.0000
 -11  -1   7     594    7917                                                       -7733    0.34   -0.05  1.0000
  11  -1  -7     594    7720                                                       -7920    0.33   -0.06  1.0000
  11  -1  -6   15679   12533                                                       28586   -0.62    0.03  1.0000
  11   1  -6   28915   14453                                                       46056   -0.62   -0.03  1.0000
  11  -1  -6   29776   11386                                                       46845   -0.62    0.03  1.0000
  11  -1  -5  145828   21375                                                      160153   -0.24   -0.21  1.0000
  11   1  -5  149863   22496                                                      162867   -0.24    0.13  1.0000
  11  -1  -5  161192   19814                                                      176244   -0.24   -0.21  1.0000
  11  -1  -4   25997   10975                                                        5075    1.25    0.13  1.0000
  11   1  -4   54497   11557                                                       21419    1.25   -0.14  1.0000
  11  -1  -4   81133   11120                                                       38011    1.25    0.13  1.0000
  11  -1  -3   41011   14107                                                       53797    0.41    0.00  1.0000
  11   1  -3   38439   15172                                                       51057    0.42   -0.01  1.0000
  11  -1  -3   45814   13446                                                       59279    0.41    0.00  1.0000
  11  -1  -2  258864   25975                                                      250658   -0.11    0.01  1.0000
  11   1  -2  273597   27983                                                      265406   -0.11   -0.03  1.0000
  11  -1  -2  299415   26354                                                      290584   -0.11    0.01  1.0000
  11  -1  -1  163882   21431                                                      168631    0.08    0.06  1.0000
  11   1  -1  158035   22175                                                      162336    0.08   -0.03  1.0000
  11  -1  -1  162144   21184                                                      166868    0.08    0.06  1.0000
  11  -1   0   35556    9801                                                       16296    0.86    0.20  1.0000
  11   1   0   36748   11670                                                       17033    0.86   -0.16  1.0000
  11  -1   0   41981   10761                                                       20755    0.86    0.20  1.0000
  11  -1   1  296031   23622                                                      234505    0.84    0.03  1.0000
  11   1   1  277362   24372                                                      217984    0.84   -0.10  1.0000
  11  -1   1  313112   25138                                                      249734    0.84    0.03  1.0000
  11  -1   2  284546   24975                                                      277987    0.09   -0.06  1.0000
  11   1   2  287547   26946                                                      280974    0.09    0.02  1.0000
  11  -1   2  266865   24591                                                      260514    0.09   -0.06  1.0000
  11  -1   3   88966   14264                                                       76947    0.30   -0.09  1.0000
  11   1   3   61609   13023                                                       51368    0.30    0.06  1.0000
  11  -1   4   19882   10586                                                       34236    0.62    0.02  1.0000
  11   1   4   17321   10586                                                       30652    0.61   -0.03  1.0000
  11  -1   5  103259   14278                                                      125050    0.45    0.02  1.0000
  11   1   5   85688   14216                                                      105414    0.45   -0.01  1.0000
  11  -1   5   58306   10963                                                       74940    0.45    0.02  1.0000
  11  -1   6   40586    8118                                                       40610    0.00   -0.03  1.0000
  11   1   6   50321    9598                                                       50590    0.01    0.04  1.0000
  11  -1   6   30130    6529                                                       30149    0.00   -0.03  1.0000
  11   1   7    1383    4131                                                        2163    0.13    0.01  1.0000
 -11  -2  13   15636    6484                                                       20245   -0.24    0.05  1.0000
 -11  -2  12   61765   10148                                                       51144    0.31    0.08  1.0000
  11  -2 -12   51396    7430                                                       42153    0.30    0.07  1.0000
 -11  -2  11   66717   11691                                                       58007    0.27   -0.23  1.0000
  11  -2 -11   49531    8473                                                       41806    0.27   -0.20  1.0000
 -11  -2  10   13994    7844                                                       10406   -0.28    0.21  1.0000
  11  -2 -10    6948    6248                                                        4210   -0.26    0.05  1.0000
  11  -2  -9   71991   11093                                                       57876   -0.39   -0.06  1.0000
 -11  -2   9   85877   13644                                                       70814   -0.38   -0.03  1.0000
  11  -2  -9   62423   10487                                                       49332   -0.39   -0.06  1.0000
  11  -2  -8   50458    9943                                                       40707   -0.32    0.00  1.0000
 -11  -2   8   56590   12268                                                       45623   -0.34   -0.09  1.0000
  11  -2  -8   63566   11885                                                       52558   -0.32    0.00  1.0000
  11  -2  -7    1470    6958                                                        2095    0.10    0.06  1.0000
  11   2  -7      58   11932                                                       -5831    0.10   -0.03  1.0000
  11  -2  -7    6320    7555                                                        7567    0.10    0.06  1.0000
  11  -2  -6   65586   12319                                                       54497    0.33   -0.12  1.0000
  11   2  -6   76942   15432                                                       64238    0.33    0.08  1.0000
  11  -2  -6   81984   13212                                                       69538    0.33   -0.12  1.0000
  11  -2  -5   98889   16730                                                      124366   -0.54    0.02  1.0000
  11   2  -5   99156   20225                                                      125000   -0.54   -0.03  1.0000
  11  -2  -5  116367   18219                                                      143881   -0.54    0.02  1.0000
  11  -2  -4   26207   12059                                                       34455   -0.33   -0.02  1.0000
  11   2  -4   12543   10928                                                       18184   -0.32    0.05  1.0000
  11  -2  -4   16370    9920                                                       23007   -0.33   -0.02  1.0000
  11  -2  -3   13350    8154                                                        5248   -0.63    0.07  1.0000
  11   2  -3    2076   10134                                                       -1991   -0.63   -0.05  1.0000
  11  -2  -3   16073    8249                                                        7026   -0.63    0.07  1.0000
  11  -2  -2  214810   20848                                                      209178   -0.08   -0.12  1.0000
  11   2  -2  246089   25676                                                      240899   -0.08    0.08  1.0000
  11  -2  -2  247356   23439                                                      241315   -0.08   -0.12  1.0000
  11  -2  -1  170232   18883                                                      159784   -0.18   -0.12  1.0000
  11   2  -1  163264   21352                                                      152935   -0.19    0.08  1.0000
  11  -2  -1  166723   19847                                                      156384   -0.18   -0.12  1.0000
  11  -2   0    2479    7908                                                       -1508   -0.70    0.00  1.0000
  11   2   0    2533   11923                                                       -6642   -0.70    0.00  1.0000
  11  -2   0    1473    9561                                                        7770   -0.70    0.00  1.0000
  11  -2   1  182832   19948                                                      204251   -0.34    0.00  1.0000
  11   2   1  227926   25320                                                      251579   -0.34    0.02  1.0000
  11  -2   1  233800   24718                                                      257944   -0.34    0.00  1.0000
  11  -2   2  280334   22023                                                      280372    0.00    0.08  1.0000
  11   2   2  311398   26964                                                      312240   -0.01   -0.01  1.0000
  11  -2   2  322459   26561                                                      322502    0.00    0.08  1.0000
  11  -2   3    4575    7081                                                       11025   -0.52   -0.04  1.0000
  11   2   3    2968    8215                                                        8275   -0.51    0.04  1.0000
  11  -2   3    7812   10398                                                       15813   -0.52   -0.04  1.0000
  11  -2   4   21300    6797                                                       15095   -0.34    0.09  1.0000
  11   2   4   11136    7734                                                        6384   -0.35   -0.09  1.0000
  11  -2   5  120880   10136                                                      100466   -0.43   -0.02  1.0000
  11   2   5  150123   14420                                                      127596   -0.42    0.02  1.0000
  11  -2   5  123490   12267                                                      102847   -0.43   -0.02  1.0000
  11   2   6   46494    8300                                                       48378    0.06    0.00  1.0000
  11  -2   6   45301    7544                                                       46788    0.05    0.00  1.0000
  11   3 -12   11846    5455                                                        8986    0.20   -0.07  1.0000
  11  -3 -12   24330    5626                                                       20024    0.20    0.07  1.0000
  11   3 -11     197    6852                                                       -5094    0.19    0.03  1.0000
  11  -3 -11    1173    5917                                                         453    0.18    0.01  1.0000
  11   3 -10     229    8286                                                       -5865   -0.20    0.06  1.0000
  11  -3 -10     242    6267                                                       -3389   -0.22   -0.03  1.0000
  11   3  -9   70377   13428                                                       78018    0.20   -0.07  1.0000
  11  -3  -9   59350   11924                                                       66004    0.17    0.14  1.0000
  11   3  -8   65485   14059                                                       75512    0.27   -0.08  1.0000
  11  -3  -8   71116   12916                                                       82531    0.29    0.01  1.0000
  11   3  -7    8150    8378                                                        3940   -0.42    0.08  1.0000
  11  -3  -7     931    8330                                                        -253   -0.42   -0.06  1.0000
  11   3  -6   54362   11724                                                       37988    0.53    0.07  1.0000
  11  -3  -6   53587   10916                                                       37611    0.53   -0.02  1.0000
  11   3  -5   95377   17056                                                       91463    0.10   -0.15  1.0000
  11  -3  -5   97868   14926                                                       93014    0.11    0.10  1.0000
  11   3  -4   20915    9163                                                        8198    0.75    0.05  1.0000
  11  -3  -4   51141   10390                                                       29577    0.76   -0.01  1.0000
  11   3  -3   61836   14354                                                       73234    0.30    0.08  1.0000
  11  -3  -3   91617   16186                                                      105577    0.31   -0.07  1.0000
  11   3  -2  117004   18172                                                      115651   -0.03   -0.05  1.0000
  11  -3  -2  147904   18846                                                      146625   -0.03    0.08  1.0000
  11   3  -1  102072   17008                                                      107801    0.12    0.05  1.0000
  11  -3  -1   93646   16418                                                       98618    0.11   -0.04  1.0000
  11   3   0    5311    8729                                                       11849    0.50    0.04  1.0000
  11  -3   0    1108    8689                                                        4780    0.50   -0.03  1.0000
  11   3   1   76784   13794                                                       72112    0.12    0.04  1.0000
  11  -3   1  105938   15799                                                      100753    0.12   -0.04  1.0000
  11   3   2  154600   18502                                                      165433   -0.19    0.13  1.0000
  11  -3   2  169148   18991                                                      181204   -0.19   -0.11  1.0000
  11   3   3   98960   12294                                                       78392    0.48    0.03  1.0000
  11   3   4  108095   14827                                                      158462    0.97    0.00  1.0000
  11  -3   4  105806   15821                                                      155391    0.96    0.01  1.0000
  11   3   5   97600    9918                                                      101178    0.08   -0.06  1.0000
  11  -3   5  110887   11942                                                      115263    0.09    0.02  1.0000
  11  -3   6   20333    4338                                                       14453   -0.32    0.06  1.0000
  11  -4 -11    9960    4485                                                        5208    0.38    0.09  1.0000
  11   4 -10   12958    4560                                                       11476   -0.09    0.00  1.0000
  11  -4 -10    2407    5086                                                        1838   -0.09   -0.02  1.0000
  11   4  -9   31131    6715                                                       35603    0.17    0.06  1.0000
  11  -4  -9   39013    9403                                                       44531    0.19   -0.12  1.0000
  11   4  -8   46853    8599                                                       39644   -0.24    0.02  1.0000
  11  -4  -8   39839    8520                                                       32773   -0.26   -0.02  1.0000
  11   4  -7   10207    5977                                                        7560   -0.20   -0.03  1.0000
  11  -4  -7     208    6638                                                       -3659   -0.20    0.03  1.0000
  11   4  -6   37575    9680                                                       37706    0.00   -0.01  1.0000
  11  -4  -6   41332   10369                                                       41357    0.00    0.01  1.0000
  11   4  -5   86007   13274                                                       94463   -0.19   -0.08  1.0000
  11  -4  -5   91654   14337                                                      100226   -0.20    0.06  1.0000
  11   4  -4    6979    7016                                                       15809   -0.59   -0.01  1.0000
  11  -4  -4    8393    8274                                                       17853   -0.59    0.00  1.0000
  11   4  -3    7635    6997                                                        4191   -0.31   -0.06  1.0000
  11  -4  -3   18930    9662                                                       13059   -0.33    0.05  1.0000
  11   4  -2  194653   17295                                                      191570   -0.05    0.00  1.0000
  11  -4  -2  191748   19458                                                      189012   -0.04   -0.01  1.0000
  11   4  -1   88313   11656                                                       84647   -0.08   -0.12  1.0000
  11  -4  -1  118295   15619                                                      114945   -0.07    0.07  1.0000
  11   4   0      96    6608                                                       -7752    0.13   -0.03  1.0000
  11  -4   0      95    8307                                                       -4801    0.14    0.01  1.0000
  11   4   1   72793    9932                                                       69232    0.10   -0.06  1.0000
  11  -4   1   99238   13786                                                       94498    0.11    0.02  1.0000
  11  -4   2   77807   12123                                                       83002   -0.13    0.07  1.0000
  11  -4   3    1521    6501                                                       10814   -0.91    0.06  1.0000
  11  -4   4    1056    4410                                                        -866   -0.45   -0.02  1.0000
  11  -5  -9   23925    5347                                                       22751   -0.06    0.04  1.0000
  11  -5  -8   42636    7930                                                       49340    0.22   -0.07  1.0000
  11  -5  -7     179    5148                                                        -232    0.18   -0.03  1.0000
  11  -5  -6   15892    6568                                                       14279    0.09    0.00  1.0000
  11  -5  -5   82597   11203                                                       83290   -0.01   -0.05  1.0000
  11  -5  -4   15582    6300                                                        7600    0.53   -0.05  1.0000
  11  -5  -3   23112    7139                                                       24082    0.04   -0.01  1.0000
  11  -5  -2   88159   11294                                                       88486    0.00    0.05  1.0000
  11  -5  -1   43221    7853                                                       34896   -0.29   -0.06  1.0000
  11  -5   0   11295    5979                                                       11549   -0.02   -0.02  1.0000
  11  -5   1   41561    5803                                                       26479    0.58   -0.02  1.0000
  12   0 -12     437    5053                                                       -2477   -0.29    0.00  1.0000
  12   0 -11    7046    5914                                                        5707   -0.13    0.05  1.0000
  12   0 -10     616    7771                                                       -7994   -0.35    0.00  1.0000
  12   0  -9    1201    7295                                                       -4041    0.48    0.01  1.0000
  12   0  -8   19759    9366                                                       13880    0.32    0.03  1.0000
  12   0  -7  278852   25288                                                      302364   -0.31    0.04  1.0000
  12   0  -6   64049   13837                                                       63452    0.02   -0.03  1.0000
  12   0  -5    8388   10413                                                        -665   -1.28    0.00  1.0000
  12   0  -4  148368   20526                                                      166387    0.32    0.03  1.0000
  12   0  -3   87236   15079                                                       73026   -0.35   -0.03  1.0000
  12   0  -2    4761   10072                                                         -33   -0.96    0.08  1.0000
  12   0  -2    1696    8123                                                       12130   -0.96    0.08  1.0000
  12   0  -1    5381    8236                                                       -2729    1.02    0.03  1.0000
  12   0  -1    5381    7394                                                       -3724    1.02    0.03  1.0000
  12   0   0   61565   12889                                                       58665    0.08    0.05  1.0000
  12   0   1    4731    9411                                                       17273   -0.88    0.07  1.0000
  12   0   2   33337    8550                                                       17219   -0.72    0.00  1.0000
  12   0   3  115027   12778                                                      102534   -0.27    0.00  1.0000
  12   0   4   62770    9210                                                       58487   -0.12    0.01  1.0000
  12   0   5     334    3605                                                       -1583   -0.26    0.00  1.0000
  12   1 -12      31    5441                                                       -3039    0.07   -0.02  1.0000
  12  -1 -11    5996    5687                                                       11118    0.40   -0.08  1.0000
  12   1 -11   17599    8376                                                       25699    0.38    0.06  1.0000
  12  -1 -10    6968    5960                                                        5285   -0.16    0.05  1.0000
  12   1 -10    9917    7415                                                        7793   -0.16   -0.05  1.0000
  12  -1  -9    4950    6147                                                        5700   -0.07   -0.05  1.0000
  12   1  -9    1252    7639                                                        1631   -0.07    0.04  1.0000
  12   1  -8  114261   18025                                                      138200   -0.47   -0.10  1.0000
  12  -1  -8   89216   14574                                                      109960   -0.46    0.04  1.0000
  12  -1  -8   86352   11643                                                      106777   -0.46    0.04  1.0000
  12  -1  -7   76433   11710                                                       44067    0.93    0.03  1.0000
  12   1  -7   72649   12656                                                       41663    0.92   -0.03  1.0000
  12  -1  -7   63329    8256                                                       34264    0.93    0.03  1.0000
  12  -1  -6   47303    9884                                                       35226    0.42    0.02  1.0000
  12   1  -6   63852   13432                                                       49703    0.42   -0.04  1.0000
  12  -1  -6   59441    9939                                                       45796    0.42    0.02  1.0000
  12  -1  -5    2675    8229                                                         816   -0.33    0.02  1.0000
  12   1  -5     565   10920                                                       -8324   -0.33   -0.03  1.0000
  12  -1  -5     573    6571                                                        -634   -0.33    0.02  1.0000
  12  -1  -4  105720   17332                                                      136487    0.62   -0.03  1.0000
  12   1  -4  103198   19075                                                      133780    0.62    0.03  1.0000
  12  -1  -4  110292   16678                                                      141676    0.62   -0.03  1.0000
  12  -1  -3  135024   18246                                                      159471    0.45   -0.09  1.0000
  12   1  -3  139324   20693                                                      165172    0.46    0.10  1.0000
  12  -1  -3  113201   16467                                                      135667    0.45   -0.09  1.0000
  12  -1  -2   11126    9571                                                       13845    0.16    0.18  1.0000
  12   1  -2   19343   10457                                                       23293    0.16   -0.26  1.0000
  12  -1  -2   16270    9100                                                       19557    0.16    0.18  1.0000
  12  -1  -1   56022   11976                                                       61414   -0.15   -0.09  1.0000
  12   1  -1   62690   14825                                                       68178   -0.15    0.05  1.0000
  12  -1  -1   44502   11125                                                       49318   -0.15   -0.09  1.0000
  12  -1   0   49403   11641                                                       52583   -0.10   -0.02  1.0000
  12   1   0   49982   13266                                                       53800   -0.10   -0.18  1.0000
  12  -1   0   75920   13752                                                       79851   -0.10   -0.02  1.0000
  12  -1   1    2487    8230                                                      -12118    0.70    0.00  1.0000
  12   1   1    2568    8084                                                       -1783    0.70    0.12  1.0000
  12  -1   2   29919    8900                                                       38884    0.33    0.14  1.0000
  12   1   2   19844    9461                                                       26783    0.32   -0.22  1.0000
  12   1   3   87554   12748                                                       95739    0.19    0.01  1.0000
  12  -1   3   74409   10550                                                       81955    0.19   -0.07  1.0000
  12  -1   3   85082   10893                                                       93140    0.19   -0.07  1.0000
  12  -1   4   29338    6611                                                       36100    0.26    0.04  1.0000
  12   1   4   25962    7774                                                       32218    0.26   -0.03  1.0000
  12  -1   4   22219    5316                                                       28149    0.26    0.04  1.0000
  12   1   5    2001    4379                                                       -3496    0.62    0.04  1.0000
  12   2 -12      48    4829                                                       -6590   -0.09   -0.04  1.0000
  12   2 -11   19033    6047                                                       15742   -0.18    0.04  1.0000
  12   2 -10      40    6383                                                        -927   -0.09    0.02  1.0000
  12  -2 -10   11720    4979                                                       10312   -0.09   -0.02  1.0000
  12   2  -9    6655    7033                                                        3351    0.34    0.08  1.0000
  12  -2  -9   15235    5830                                                        9987    0.35   -0.13  1.0000
  12   2  -8   66398   13648                                                       77052   -0.27   -0.15  1.0000
  12  -2  -8   54855   10071                                                       64088   -0.27    0.15  1.0000
  12   2  -7   94452   16885                                                      118015   -0.51    0.00  1.0000
  12  -2  -7   98925   14025                                                      123133   -0.51   -0.02  1.0000
  12   2  -6   16871    9640                                                       19017   -0.11    0.10  1.0000
  12  -2  -6   30248    9189                                                       33173   -0.11   -0.03  1.0000
  12  -2  -5    1452    5767                                                       -2302   -0.53    0.02  1.0000
  12   2  -5    9614    8736                                                        3640   -0.53   -0.04  1.0000
  12  -2  -5    8258    6909                                                        2828   -0.53    0.02  1.0000
  12  -2  -4   29355    7492                                                       25187   -0.17   -0.03  1.0000
  12   2  -4   49852   12736                                                       44674   -0.17    0.06  1.0000
  12  -2  -4   59793   11238                                                       53778   -0.17   -0.03  1.0000
  12  -2  -3   76506   11389                                                       68450   -0.21    0.06  1.0000
  12   2  -3  124293   17153                                                      113573   -0.21   -0.07  1.0000
  12  -2  -3  117120   14615                                                      107106   -0.21    0.06  1.0000
  12  -2  -2   10526    6314                                                        5862   -0.37   -0.10  1.0000
  12   2  -2     756    8356                                                       -3314   -0.37    0.10  1.0000
  12  -2  -2    6240    7402                                                        2788   -0.37   -0.10  1.0000
  12  -2  -1   45970    8593                                                       36890    0.31    0.08  1.0000
  12   2  -1   47204   12421                                                       38373    0.31   -0.08  1.0000
  12  -2  -1   37041   10088                                                       28939    0.31    0.08  1.0000
  12  -2   0  101563   12680                                                      120555   -0.40   -0.01  1.0000
  12   2   0  111396   16307                                                      130940   -0.40    0.06  1.0000
  12  -2   0  125637   16766                                                      146669   -0.40   -0.01  1.0000
  12   2   1   33739   10399                                                       35860   -0.08    0.06  1.0000
  12  -2   1   20747    8440                                                       22630   -0.09   -0.01  1.0000
  12   2   2   38250    9139                                                       33136   -0.19    0.05  1.0000
  12   2   3   34563    6890                                                       25572   -0.36    0.00  1.0000
  12  -2   3   41364    7522                                                       31486   -0.37    0.01  1.0000
  12   2   4   32770    6696                                                       33318    0.02    0.00  1.0000
  12  -2   4   22662    5052                                                       23071    0.02    0.01  1.0000
  12   3 -10    7223    4819                                                        7182    0.00   -0.09  1.0000
  12  -3 -10    5748    4328                                                        5946    0.01    0.03  1.0000
  12   3  -9    5672    5750                                                        7834   -0.05    0.30  1.0000
  12  -3  -9    4153    5187                                                        5265   -0.09   -0.14  1.0000
  12   3  -8   55043    9750                                                       52770    0.08   -0.12  1.0000
  12  -3  -8   51055    9200                                                       48222    0.09    0.04  1.0000
  12   3  -7   83446   12359                                                       87326   -0.09   -0.01  1.0000
  12  -3  -7   96226   12353                                                      100343   -0.09    0.04  1.0000
  12   3  -6   32782    8551                                                       22406    0.44    0.08  1.0000
  12  -3  -6   20386    6903                                                       12402    0.45   -0.07  1.0000
  12   3  -5    3425    7123                                                        5597    0.23    0.03  1.0000
  12  -3  -5    2147    6470                                                        3981    0.24   -0.05  1.0000
  12   3  -4   72951   13550                                                       95580    0.55   -0.02  1.0000
  12  -3  -4   74351   13372                                                       97393    0.55   -0.01  1.0000
  12   3  -3   29551   11015                                                       45467    0.58    0.01  1.0000
  12  -3  -3   19468    9449                                                       32717    0.58   -0.02  1.0000
  12   3  -2       9    7064                                                        -653   -0.04    0.01  1.0000
  12  -3  -2       7    8008                                                       -9600   -0.04    0.00  1.0000
  12   3  -1   31505    9776                                                       40159   -0.32    0.07  1.0000
  12  -3  -1   28456   10299                                                       37004   -0.33   -0.01  1.0000
  12   3   0   82778   11348                                                       78938    0.09    0.13  1.0000
  12  -3   0   91527   12254                                                       87944    0.10   -0.14  1.0000
  12   3   1   26538    7024                                                       20017    0.30   -0.07  1.0000
  12  -3   1   38222    8169                                                       29968    0.31    0.04  1.0000
  12   3   2      82    4508                                                       -5811   -0.13    0.01  1.0000
  12  -3   3   94555    8685                                                       80756   -0.33    0.01  1.0000
  12  -4  -9     257    3192                                                        -935    0.22    0.01  1.0000
  12  -4  -8   27486    6171                                                       27907   -0.02    0.04  1.0000
  12  -4  -7   54782    8668                                                       57705   -0.09   -0.01  1.0000
  12  -4  -6   14567    6915                                                       17908   -0.18    0.03  1.0000
  12   4  -5    6916    4183                                                        4736   -0.20   -0.04  1.0000
  12  -4  -5   10117    5698                                                        7464   -0.20    0.04  1.0000
  12   4  -4   25415    4976                                                       14180   -0.57    0.05  1.0000
  12  -4  -4   43253    7556                                                       27669   -0.58   -0.01  1.0000
  12  -4  -3   59294    9463                                                       52172   -0.22    0.06  1.0000
  12  -4  -2       9    5609                                                       -4162    0.01    0.04  1.0000
  12  -4  -1   48365    8830                                                       49593   -0.04    0.03  1.0000
  12  -4   0   58407    8540                                                       57170    0.03    0.05  1.0000
  12  -4   1    3341    3830                                                         931    0.38    0.01  1.0000
  13   0 -10    5441    4840                                                       10262   -0.39    0.03  1.0000
  13   0  -9   17577    6759                                                       23427   -0.29    0.01  1.0000
  13   0  -8   33613    7835                                                       30737    0.11   -0.02  1.0000
  13   0  -7   10088    7017                                                       14740    0.29    0.02  1.0000
  13   0  -6   35237   10445                                                       49809    0.50    0.01  1.0000
  13   0  -5   19328    7331                                                       11053   -0.48    0.02  1.0000
  13   0  -4    5974    6943                                                        3976    0.20   -0.02  1.0000
  13   0  -3   71227   10916                                                       59935    0.31   -0.06  1.0000
  13   0  -2   54540   11795                                                       78119   -0.64    0.04  1.0000
  13   0  -1   47354    8646                                                       41894    0.18    0.12  1.0000
  13   0   0     259    5933                                                       -5545    0.22    0.04  1.0000
  13   0   1    3677    4829                                                        6189    0.24    0.09  1.0000
  13   1 -10    9733    4772                                                        5380    0.35    0.04  1.0000
  13   1  -9   25844    6625                                                       21084    0.22    0.03  1.0000
  13  -1  -8     778    4368                                                        -498   -0.39    0.04  1.0000
  13   1  -8    2886    6196                                                        6646   -0.39   -0.04  1.0000
  13  -1  -7      66    4786                                                       -1679   -0.06    0.10  1.0000
  13   1  -7    5330    5887                                                        4737   -0.06   -0.08  1.0000
  13  -1  -6   25481    8008                                                       29035    0.15   -0.08  1.0000
  13   1  -6   24996    8651                                                       28569    0.15    0.01  1.0000
  13  -1  -5   23791    7037                                                       19386   -0.21    0.04  1.0000
  13   1  -5   27309    8060                                                       22509   -0.21   -0.02  1.0000
  13  -1  -4      39    6972                                                      -10240    0.09    0.02  1.0000
  13  -1  -4      39    4907                                                       -2216    0.09    0.02  1.0000
  13  -1  -3   39799    8364                                                       44341   -0.15   -0.07  1.0000
  13   1  -3   43050   10037                                                       47380   -0.15    0.08  1.0000
  13  -1  -3   43371    8012                                                       48108   -0.15   -0.07  1.0000
  13  -1  -2   99285   10852                                                       96432    0.06    0.03  1.0000
  13   1  -2  102744   13003                                                       99874    0.06   -0.04  1.0000
  13  -1  -1   11778    5500                                                       10279    0.10    0.08  1.0000
  13   1  -1   24436    7550                                                       22235    0.10   -0.03  1.0000
  13  -1   0    1230    4137                                                        3658   -0.32   -0.22  1.0000
  13   1   0    1019    5467                                                       -2826   -0.34   -0.28  1.0000
  13   1   1    9725    5872                                                       15205    0.35    0.03  1.0000
  13   1   2     642    3658                                                        -483   -0.35    0.02  1.0000
  13   2  -9    7988    4436                                                        7296    0.05    0.09  1.0000
  13   2  -8    1454    4430                                                        1089    0.07    0.00  1.0000
  13   2  -7   10646    5915                                                       10435   -0.01   -0.05  1.0000
  13  -2  -7   12851    4591                                                       12685   -0.01   -0.01  1.0000
  13   2  -6   25896    8540                                                       30332    0.19    0.00  1.0000
  13  -2  -6   22973    6224                                                       27190    0.18    0.03  1.0000
  13   2  -5   16146    6700                                                       14160   -0.11    0.01  1.0000
  13  -2  -5    7450    4926                                                        6117   -0.11   -0.01  1.0000
  13   2  -4      33    6629                                                        -808   -0.05   -0.06  1.0000
  13  -2  -4    3786    4988                                                        3568   -0.04    0.08  1.0000
  13   2  -3   23142    7593                                                       21534    0.08   -0.02  1.0000
  13  -2  -3   41473    8080                                                       39375    0.07   -0.01  1.0000
  13   2  -2   51774    9425                                                       56863   -0.16    0.07  1.0000
  13  -2  -2   52325    8887                                                       57786   -0.16   -0.05  1.0000
  13   2  -1   22216    5870                                                       15533    0.34    0.05  1.0000
  13   2   0     988    4886                                                       -3592   -0.44    0.01  1.0000
  13  -3  -6   22141    5057                                                       17192   -0.25    0.04  1.0000
  13   3  -5   18502    5269                                                       14255   -0.24    0.03  1.0000
  13  -3  -5   15583    5107                                                       11634   -0.24   -0.02  1.0000
  13   3  -4    3029    4018                                                        3063    0.00    0.04  1.0000
  13  -3  -4     414    4215                                                         394    0.01   -0.07  1.0000
  13   3  -3    7057    4202                                                        4694    0.21    0.03  1.0000
  13  -3  -3   23388    5427                                                       18845    0.22   -0.02  1.0000
  13  -3  -2   39261    5871                                                       25718    0.53    0.00  1.0000
   0   0   0    1437       0                                                           0    0.53    0.00  1.0000
;
_shelx_hkl_checksum              14804
_platon_squeeze_void_probe_radius 1.20
loop_
_space_group_symop_operation_xyz
'x, y, z'
'-x, y, -z'
'-x, -y, -z'
'x, -y, z'
loop_
_atom_site_label
_atom_site_type_symbol
_atom_site_fract_x
_atom_site_fract_y
_atom_site_fract_z
_atom_site_U_iso_or_equiv
_atom_site_adp_type
_atom_site_occupancy
_atom_site_site_symmetry_order
_atom_site_calc_flag
_atom_site_refinement_flags_posn
_atom_site_refinement_flags_adp
_atom_site_refinement_flags_occupancy
_atom_site_disorder_assembly
_atom_site_disorder_group
N4 N 0.9686(6) 0.044(2) 0.8213(3) 0.100(7) Uani 0.25 1 d D U P A 1
H4A H 0.9633 -0.0470 0.7866 0.121 Uiso 0.25 1 calc R U P A 1
H4B H 0.9650 0.1462 0.7975 0.121 Uiso 0.25 1 calc R U P A 1
C5 C 1.1009(3) 0.0298(9) 0.9691(2) 0.059(2) Uani 0.5 1 d . U P A 1
H5 H 1.1696 0.0544 0.9452 0.071 Uiso 0.5 1 calc R U P A 1
C6 C 0.9820(3) 0.0254(18) 0.9091(2) 0.067(3) Uani 0.5 1 d D U P A 1
C7 C 0.5121(5) -0.1346(5) 0.9471(3) 0.0665(9) Uani 0.5 1 d . . P A 1
C8 C 0.5743(4) 0.1378(5) 0.9976(3) 0.0645(9) Uani 0.5 1 d . . P A 1
N5 N 0.6463(9) 0.2710(11) 0.9990(7) 0.096(3) Uani 0.25 1 d . . P A 1
H5A H 0.7177 0.2598 0.9813 0.115 Uiso 0.25 1 calc R U P A 1
H5B H 0.6360 0.3661 1.0305 0.115 Uiso 0.25 1 calc R U P A 1
C1 C 0.65037(19) -0.3448(2) 0.74343(12) 0.0594(4) Uani 1 1 d . . . A 1
C2 C 0.6205(3) -0.5000 0.69463(17) 0.0602(6) Uani 1 2 d S T P A 1
C3 C 0.5594(3) -0.5000 0.59581(17) 0.0571(6) Uani 1 2 d S T P A 1
C4 C 0.5282(2) -0.3445(2) 0.54640(12) 0.0653(5) Uani 1 1 d . . . A 1
H4 H 0.5462 -0.2386 0.5771 0.078 Uiso 1 1 calc R U . A 1
N1 N 0.67337(18) -0.2153(2) 0.78216(11) 0.0688(4) Uani 1 1 d . . . A 1
N2 N 0.5846(2) 0.0000 0.94388(16) 0.0587(5) Uani 1 2 d S T P A 1
N3 N 0.8808(2) 0.0000 0.94117(15) 0.0586(5) Uani 1 2 d S TU P A 1
Cu1 Cu 0.70408(3) 0.0000 0.85284(2) 0.05492(16) Uani 1 2 d S T P A 1
loop_
_atom_site_aniso_label
_atom_site_aniso_U_11
_atom_site_aniso_U_22
_atom_site_aniso_U_33
_atom_site_aniso_U_23
_atom_site_aniso_U_13
_atom_site_aniso_U_12
N4 0.073(3) 0.17(2) 0.050(3) 0.029(6) 0.004(2) -0.004(6)
C5 0.0584(14) 0.069(6) 0.0465(13) 0.0099(17) 0.0047(11) -0.0021(16)
C6 0.0638(15) 0.088(8) 0.0444(12) 0.011(2) 0.0044(11) -0.003(2)
C7 0.076(2) 0.0513(16) 0.073(3) -0.0168(17) 0.018(2) -0.0095(17)
C8 0.075(2) 0.0543(18) 0.063(2) -0.0147(16) 0.014(2) -0.0131(17)
N5 0.123(7) 0.073(4) 0.113(7) -0.035(5) 0.069(6) -0.029(5)
C1 0.0845(11) 0.0430(8) 0.0443(8) 0.0022(6) 0.0030(7) 0.0017(7)
C2 0.0902(17) 0.0410(10) 0.0444(11) 0.000 0.0063(11) 0.000
C3 0.0806(15) 0.0384(10) 0.0475(11) 0.000 0.0057(10) 0.000
C4 0.1053(14) 0.0346(7) 0.0487(9) -0.0021(6) 0.0042(9) -0.0023(8)
N1 0.1002(12) 0.0455(7) 0.0512(8) -0.0023(6) -0.0002(8) 0.0013(7)
N2 0.0623(11) 0.0527(10) 0.0586(11) 0.000 0.0097(9) 0.000
N3 0.0578(10) 0.0660(12) 0.0456(10) 0.000 0.0001(8) 0.000
Cu1 0.0655(3) 0.0443(2) 0.0475(2) 0.000 -0.00119(15) 0.000
loop_
_atom_type_symbol
_atom_type_description
_atom_type_scat_dispersion_real
_atom_type_scat_dispersion_imag
_atom_type_scat_source
C C 0.0181 0.0091 'International Tables Vol C Tables 4.2.6.8 and 6.1.1.4'
H H 0.0000 0.0000 'International Tables Vol C Tables 4.2.6.8 and 6.1.1.4'
N N 0.0311 0.0180 'International Tables Vol C Tables 4.2.6.8 and 6.1.1.4'
O O 0.0492 0.0322 'International Tables Vol C Tables 4.2.6.8 and 6.1.1.4'
Cu Cu -1.9646 0.5888 'International Tables Vol C Tables 4.2.6.8 and 6.1.1.4'
loop_
_geom_angle_atom_site_label_1
_geom_angle_atom_site_label_2
_geom_angle_atom_site_label_3
_geom_angle
_geom_angle_site_symmetry_1
_geom_angle_site_symmetry_3
N3 C5 C6 122.4(3) 3_757 .
C6 C6 N4 96.2(9) 4 .
C6 C6 N3 81.6(6) 4 .
N4 C6 N3 118.7(4) . .
C6 C6 N4 67.6(10) 4 4
N4 C6 N4 28.5(16) . 4
N3 C6 N4 112.1(7) . 4
C6 C6 C5 91.4(6) 4 .
N4 C6 C5 120.6(4) . .
N3 C6 C5 120.6(3) . .
N4 C6 C5 119.0(6) 4 .
C6 C6 C5 73.2(6) 4 4
N4 C6 C5 121.4(5) . 4
N3 C6 C5 116.2(5) . 4
N4 C6 C5 110.2(8) 4 4
C5 C6 C5 18.2(6) . 4
N2 C7 C8 122.7(3) . 3_657
C7 C8 N5 112.4(7) 4 .
C7 C8 N2 68.3(4) 4 .
N5 C8 N2 119.5(4) . .
C7 C8 C7 90.3(5) 4 3_657
N5 C8 C7 120.4(5) . 3_657
N2 C8 C7 120.1(3) . 3_657
C7 C8 C8 57.9(4) 4 2_657
N5 C8 C8 127.6(4) . 2_657
N2 C8 C8 104.5(3) . 2_657
C7 C8 C8 32.5(2) 3_657 2_657
C8 N5 C7 26.8(3) . 4
N1 C1 C2 178.6(2) . .
C1 C2 C1 117.3(2) 4_545 .
C1 C2 C3 121.32(11) 4_545 .
C1 C2 C3 121.33(11) . .
C4 C3 C4 116.6(2) 4_545 .
C4 C3 C2 121.68(11) 4_545 .
C4 C3 C2 121.68(11) . .
C4 C4 C3 121.67(11) 2_656 .
C1 N1 Cu1 176.02(19) . .
C7 N2 C7 103.7(4) . 4
C7 N2 C8 117.2(3) . .
C7 N2 C8 39.1(3) 4 .
C7 N2 C8 39.1(3) . 4
C7 N2 C8 117.2(3) 4 4
C8 N2 C8 103.3(4) . 4
C7 N2 Cu1 120.2(2) . .
C7 N2 Cu1 120.2(2) 4 .
C8 N2 Cu1 122.6(2) . .
C8 N2 Cu1 122.6(2) 4 .
C5 N3 C5 19.8(6) 2_757 3_757
C5 N3 C6 113.7(3) 2_757 .
C5 N3 C6 116.9(3) 3_757 .
C5 N3 C6 116.9(3) 2_757 4
C5 N3 C6 113.7(3) 3_757 4
C6 N3 C6 16.9(12) . 4
C5 N3 Cu1 122.4(2) 2_757 .
C5 N3 Cu1 122.4(2) 3_757 .
C6 N3 Cu1 120.73(19) . .
C6 N3 Cu1 120.73(19) 4 .
N1 Cu1 N1 116.15(9) . 4
N1 Cu1 N3 111.11(6) . .
N1 Cu1 N3 111.11(6) 4 .
N1 Cu1 N2 107.23(6) . .
N1 Cu1 N2 107.23(6) 4 .
N3 Cu1 N2 103.01(9) . .
loop_
_geom_bond_atom_site_label_1
_geom_bond_atom_site_label_2
_geom_bond_distance
_geom_bond_site_symmetry_2
N4 C6 1.292(4) .
C5 N3 1.327(4) 3_757
C5 C6 1.398(4) .
C6 C6 0.39(3) 4
C6 N3 1.328(5) .
C6 N4 1.389(10) 4
C6 C5 1.460(6) 4
C7 N2 1.312(4) .
C7 C8 1.402(6) 3_657
C8 C7 0.890(6) 4
C8 N5 1.290(9) .
C8 N2 1.348(4) .
C8 C7 1.402(6) 3_657
C8 C8 1.655(9) 2_657
N5 C7 1.825(10) 4
C1 N1 1.146(2) .
C1 C2 1.393(2) .
C2 C1 1.393(2) 4_545
C2 C3 1.468(3) .
C3 C4 1.401(2) 4_545
C3 C4 1.401(2) .
C4 C4 1.377(3) 2_656
N1 Cu1 1.9448(15) .
N2 C7 1.312(4) 4
N2 C8 1.348(4) 4
N2 Cu1 2.106(2) .
N3 C5 1.327(4) 2_757
N3 C5 1.327(4) 3_757
N3 C6 1.328(5) 4
N3 Cu1 2.073(2) .
Cu1 N1 1.9448(15) 4
loop_
_platon_squeeze_void_nr
_platon_squeeze_void_average_x
_platon_squeeze_void_average_y
_platon_squeeze_void_average_z
_platon_squeeze_void_volume
_platon_squeeze_void_count_electrons
_platon_squeeze_void_content
1 0.000 -0.087 0.461 722 200 ' '
