#------------------------------------------------------------------------------
#$Date: 2019-10-28 11:22:28 +0200 (Mon, 28 Oct 2019) $
#$Revision: 220025 $
#$URL: file:///home/coder/svn-repositories/cod/cif/4/51/48/4514864.cif $
#------------------------------------------------------------------------------
#
# This file is available in the Crystallography Open Database (COD),
# http://www.crystallography.net/
#
# All data on this site have been placed in the public domain by the
# contributors.
#
data_4514864
loop_
_publ_author_name
'Steinlechner, Christoph'
'Roesel, Arend F.'
'Oberem, Elisabeth'
'P\"apcke, Ayla'
'Rockstroh, Nils'
'Gloaguen, Fr\'ed\'eric'
'Lochbrunner, Stefan'
'Ludwig, Ralf'
'Spannenberg, Anke'
'Junge, Henrik'
'Francke, Robert'
'Beller, Matthias'
_publ_section_title
;
 Selective Earth-Abundant System for CO2 Reduction: Comparing Photo- and
 Electrocatalytic Processes
;
_journal_issue                   3
_journal_name_full               'ACS Catalysis'
_journal_page_first              2091
_journal_paper_doi               10.1021/acscatal.8b03548
_journal_volume                  9
_journal_year                    2019
_chemical_formula_sum            'C15 H10 Br Mn N2 O4'
_chemical_formula_weight         417.10
_space_group_crystal_system      triclinic
_space_group_IT_number           2
_space_group_name_Hall           '-P 1'
_space_group_name_H-M_alt        'P -1'
_symmetry_space_group_name_Hall  '-P 1'
_symmetry_space_group_name_H-M   'P -1'
_atom_sites_solution_hydrogens   geom
_audit_creation_method           SHELXL-2014/7
_cell_angle_alpha                85.6351(18)
_cell_angle_beta                 84.0784(18)
_cell_angle_gamma                82.5090(17)
_cell_formula_units_Z            2
_cell_length_a                   7.1769(4)
_cell_length_b                   9.2213(5)
_cell_length_c                   11.5716(6)
_cell_measurement_reflns_used    9942
_cell_measurement_temperature    150(2)
_cell_measurement_theta_max      30.54
_cell_measurement_theta_min      2.76
_cell_volume                     753.70(7)
_computing_cell_refinement       'SAINT (Bruker, 2013)'
_computing_data_collection       'APEX2 (Bruker, 2014)'
_computing_data_reduction        SAINT
_computing_structure_refinement  'SHELXL-2014/7 (Sheldrick, 2015)'
_computing_structure_solution    'SHELXS-97 (Sheldrick, 2008)'
_diffrn_ambient_temperature      150(2)
_diffrn_detector_area_resol_mean 8.3333
_diffrn_measured_fraction_theta_full 1.000
_diffrn_measured_fraction_theta_max 1.000
_diffrn_measurement_device_type  'Bruker APEX-II CCD'
_diffrn_measurement_method       '\f and \w scans'
_diffrn_radiation_type           MoK\a
_diffrn_radiation_wavelength     0.71073
_diffrn_reflns_av_R_equivalents  0.0204
_diffrn_reflns_av_unetI/netI     0.0136
_diffrn_reflns_Laue_measured_fraction_full 1.000
_diffrn_reflns_Laue_measured_fraction_max 1.000
_diffrn_reflns_limit_h_max       9
_diffrn_reflns_limit_h_min       -9
_diffrn_reflns_limit_k_max       12
_diffrn_reflns_limit_k_min       -12
_diffrn_reflns_limit_l_max       15
_diffrn_reflns_limit_l_min       -15
_diffrn_reflns_number            21511
_diffrn_reflns_point_group_measured_fraction_full 1.000
_diffrn_reflns_point_group_measured_fraction_max 1.000
_diffrn_reflns_theta_full        25.242
_diffrn_reflns_theta_max         28.000
_diffrn_reflns_theta_min         1.773
_diffrn_source                   'fine-focus sealed tube'
_exptl_absorpt_coefficient_mu    3.547
_exptl_absorpt_correction_T_max  0.71
_exptl_absorpt_correction_T_min  0.57
_exptl_absorpt_correction_type   multi-scan
_exptl_absorpt_process_details   'SADABS (Bruker, 2014)'
_exptl_crystal_colour            red
_exptl_crystal_density_diffrn    1.838
_exptl_crystal_description       prism
_exptl_crystal_F_000             412
_exptl_crystal_size_max          0.270
_exptl_crystal_size_mid          0.165
_exptl_crystal_size_min          0.104
_refine_diff_density_max         0.437
_refine_diff_density_min         -0.217
_refine_diff_density_rms         0.059
_refine_ls_extinction_method     none
_refine_ls_goodness_of_fit_ref   1.048
_refine_ls_hydrogen_treatment    constr
_refine_ls_matrix_type           full
_refine_ls_number_parameters     208
_refine_ls_number_reflns         3637
_refine_ls_number_restraints     0
_refine_ls_restrained_S_all      1.048
_refine_ls_R_factor_all          0.0203
_refine_ls_R_factor_gt           0.0186
_refine_ls_shift/su_max          0.001
_refine_ls_shift/su_mean         0.000
_refine_ls_structure_factor_coef Fsqd
_refine_ls_weighting_details
'w=1/[\s^2^(Fo^2^)+(0.0284P)^2^+0.3380P] where P=(Fo^2^+2Fc^2^)/3'
_refine_ls_weighting_scheme      calc
_refine_ls_wR_factor_gt          0.0498
_refine_ls_wR_factor_ref         0.0508
_reflns_Friedel_coverage         0.000
_reflns_number_gt                3430
_reflns_number_total             3637
_reflns_threshold_expression     'I > 2\s(I)'
_cod_data_source_file            cs8b03548_si_001.cif
_cod_data_source_block           AX1492
_cod_database_code               4514864
_shelx_shelxl_version_number     2014/7
_shelx_space_group_comment
;
The symmetry employed for this shelxl refinement is uniquely defined
by the following loop, which should always be used as a source of
symmetry information in preference to the above space-group names.
They are only intended as comments.
;
_shelx_res_file
;

    AX1492.res created by SHELXL-2014/7


TITL AX1492 in P-1
CELL 0.71073   7.17690   9.22130  11.57160  85.6351   84.0784   82.5090
ZERR    2.00   0.00040   0.00050   0.00060   0.0018    0.0018    0.0017
LATT  1
SFAC C  H  N  O  Mn Br
UNIT 30 20 4 8 2 2
L.S. 14
OMIT -4 56
OMIT -2  -4   3
ACTA
BOND $H
FMAP 2
PLAN -10
SIZE 0.104 0.165 0.270
HTAB
CONF
TEMP -123.160
WGHT    0.028400    0.338000
FVAR       0.14493
BR1   6    0.288407    0.391167    0.106112    11.00000    0.02296    0.01718 =
         0.01954   -0.00157   -0.00173   -0.00380
C1    1    0.809053    0.302831    0.149990    11.00000    0.02115    0.02340 =
         0.02815   -0.00178    0.00085   -0.01008
AFIX  23
H1A   2    0.882028    0.327094    0.212455    11.00000   -1.20000
H1B   2    0.763911    0.394310    0.105370    11.00000   -1.20000
AFIX   0
C2    1    0.928389    0.193168    0.069884    11.00000    0.01993    0.02627 =
         0.02364   -0.00099   -0.00001   -0.00955
AFIX  23
H2A   2    0.948993    0.237831   -0.010216    11.00000   -1.20000
H2B   2    1.052495    0.160111    0.099512    11.00000   -1.20000
AFIX   0
C3    1    0.666749    0.102889    0.148823    11.00000    0.01618    0.01962 =
         0.01795   -0.00087   -0.00076   -0.00245
C4    1    0.520668    0.005445    0.172901    11.00000    0.01788    0.01689 =
         0.01632   -0.00121   -0.00147   -0.00241
C5    1    0.542036   -0.131868    0.125300    11.00000    0.01986    0.01805 =
         0.02175   -0.00554    0.00145   -0.00132
AFIX  43
H5    2    0.652268   -0.163922    0.076661    11.00000   -1.20000
AFIX   0
C6    1    0.400708   -0.218377    0.150504    11.00000    0.02504    0.01552 =
         0.02249   -0.00488   -0.00101   -0.00280
AFIX  43
H6    2    0.410649   -0.311798    0.119413    11.00000   -1.20000
AFIX   0
C7    1    0.240064   -0.166934    0.223283    11.00000    0.02011    0.01553 =
         0.01721   -0.00007   -0.00175   -0.00327
C8    1    0.088765   -0.252523    0.252219    11.00000    0.02530    0.01832 =
         0.02430   -0.00156   -0.00178   -0.00677
AFIX  43
H8    2    0.096860   -0.346940    0.223086    11.00000   -1.20000
AFIX   0
C9    1   -0.067851   -0.200886    0.321249    11.00000    0.02380    0.02419 =
         0.02488    0.00183   -0.00054   -0.00966
AFIX  43
H9    2   -0.168647   -0.258579    0.339427    11.00000   -1.20000
AFIX   0
C10   1   -0.079141   -0.061635    0.365348    11.00000    0.02010    0.02565 =
         0.02330   -0.00101    0.00379   -0.00280
AFIX  43
H10   2   -0.188463   -0.025967    0.413316    11.00000   -1.20000
AFIX   0
C11   1    0.064776    0.023688    0.340397    11.00000    0.02277    0.01817 =
         0.02128   -0.00263    0.00179   -0.00208
AFIX  43
H11   2    0.054359    0.116910    0.371873    11.00000   -1.20000
AFIX   0
C12   1    0.228086   -0.025805    0.268410    11.00000    0.01834    0.01511 =
         0.01521    0.00082   -0.00225   -0.00229
C13   1    0.481086    0.199774    0.433486    11.00000    0.02353    0.01537 =
         0.02454   -0.00567    0.00043   -0.00269
C14   1    0.174075    0.343788    0.363926    11.00000    0.02949    0.01703 =
         0.02029   -0.00314   -0.00232   -0.00394
C15   1    0.482389    0.447074    0.329857    11.00000    0.02918    0.01967 =
         0.02128   -0.00173   -0.00349   -0.00223
MN1   5    0.405691    0.277905    0.295890    11.00000    0.01941    0.01374 =
         0.01646   -0.00312   -0.00076   -0.00276
N1    3    0.650408    0.223235    0.198227    11.00000    0.01760    0.01724 =
         0.02099   -0.00077   -0.00161   -0.00502
N2    3    0.371622    0.061101    0.241934    11.00000    0.01788    0.01403 =
         0.01580   -0.00104   -0.00115   -0.00196
O1    4    0.815901    0.069889    0.072242    11.00000    0.01884    0.02550 =
         0.02509   -0.00650    0.00486   -0.00785
O2    4    0.525080    0.156888    0.522624    11.00000    0.03921    0.02466 =
         0.02547   -0.00172   -0.00778    0.00016
O3    4    0.030564    0.395069    0.405371    11.00000    0.03037    0.02958 =
         0.03458   -0.01081    0.00615    0.00210
O4    4    0.536359    0.550835    0.354431    11.00000    0.05214    0.02176 =
         0.04199   -0.00668   -0.00986   -0.01260
HKLF 4 1 1 0 0 0 1 0 0 0 1

REM  AX1492 in P-1
REM R1 =  0.0186 for    3430 Fo > 4sig(Fo)  and  0.0203 for all    3637 data
REM    208 parameters refined using      0 restraints

END

WGHT      0.0284      0.3382

REM Instructions for potential hydrogen bonds
EQIV $1 -x+1, -y+1, -z
HTAB C1 Br1_$1
EQIV $2 x+1, y, z
HTAB C2 Br1_$2
EQIV $3 -x+1, -y, -z
HTAB C5 Br1_$3
HTAB C11 O3

REM Highest difference peak  0.437,  deepest hole -0.217,  1-sigma level  0.059
Q1    1   0.0154 -0.0602  0.4963  11.00000  0.05    0.44
Q2    1   0.8310  0.4963  0.0820  11.00000  0.05    0.42
Q3    1   0.5914  0.0545  0.1601  11.00000  0.05    0.42
Q4    1   0.2428 -0.1038  0.2569  11.00000  0.05    0.38
Q5    1   0.1627 -0.2022  0.2444  11.00000  0.05    0.38
Q6    1   0.4728 -0.1813  0.1538  11.00000  0.05    0.32
Q7    1   0.1527 -0.0068  0.3127  11.00000  0.05    0.31
Q8    1   0.3084 -0.1892  0.1855  11.00000  0.05    0.31
Q9    1   0.8688  0.2492  0.1074  11.00000  0.05    0.30
Q10   1   0.0019 -0.2158  0.2776  11.00000  0.05    0.30
;
_shelx_res_checksum              19090
_shelx_hkl_file
;
  -1   0   0  112.71    2.40
  -1   0   0  112.44    2.40
   1   0   0  117.68    2.41
   1   0   0  113.55    2.40
  -2   0   0    5.59    0.14
  -2   0   0    5.46    0.15
  -2   0   0    5.70    0.14
   2   0   0    5.52    0.16
   2   0   0    5.84    0.14
   2   0   0    5.72    0.16
   2   0   0    5.36    0.17
   2   0   0    5.92    0.14
  -3   0   0    3.25    0.10
  -3   0   0    3.41    0.10
  -3   0   0    3.24    0.11
   3   0   0    3.47    0.11
   3   0   0    3.29    0.13
   3   0   0    3.22    0.13
   3   0   0    3.52    0.13
   3   0   0    3.23    0.14
  -4   0   0    4.01    0.14
  -4   0   0    3.76    0.16
  -4   0   0    3.97    0.12
  -4   0   0    3.88    0.12
   4   0   0    3.95    0.16
   4   0   0    3.81    0.16
   4   0   0    4.04    0.13
   4   0   0    3.86    0.16
   4   0   0    4.20    0.18
  -5   0   0    3.49    0.13
  -5   0   0    4.07    0.15
  -5   0   0    3.67    0.13
  -5   0   0    3.74    0.18
   5   0   0    3.55    0.18
   5   0   0    3.89    0.18
   5   0   0    3.77    0.19
   5   0   0    3.68    0.17
  -6   0   0    5.73    0.19
  -6   0   0    5.39    0.26
   6   0   0    5.76    0.25
   6   0   0    6.18    0.25
   6   0   0    6.22    0.26
   6   0   0    5.74    0.26
  -7   0   0    1.41    0.11
  -7   0   0    1.43    0.17
   7   0   0    1.37    0.15
   7   0   0    1.15    0.14
   7   0   0    1.58    0.17
  -8   0   0    2.84    0.24
  -8   0   0    2.73    0.16
   8   0   0    3.08    0.24
   8   0   0    2.81    0.23
  -9   0   0   10.66    0.46
  -9   0   0    9.69    0.32
   9   0   0    9.32    0.43
   9   0   0   10.12    0.43
 -10   0   0    3.78    0.20
 -10   0   0    4.05    0.37
 -10   0   0    3.84    0.34
  10  -1   0    4.05    0.43
 -10   1   0    3.97    0.33
 -10   1   0    4.57    0.39
   9  -1   0    0.01    0.13
   9  -1   0   -0.14    0.12
  -9   1   0    0.09    0.13
  -9   1   0    0.01    0.06
  -9   1   0    0.02    0.14
   8  -1   0   18.21    0.61
   8  -1   0   17.63    0.59
   8  -1   0   18.57    0.59
  -8   1   0   18.59    0.64
  -8   1   0   19.90    0.61
   7  -1   0   29.58    0.80
   7  -1   0   29.60    0.82
   7  -1   0   29.01    0.79
   7  -1   0   28.66    0.79
  -7   1   0   29.64    0.69
  -7   1   0   30.01    0.81
   6  -1   0    4.11    0.22
   6  -1   0    3.63    0.21
   6  -1   0    3.59    0.20
   6  -1   0    3.91    0.21
  -6   1   0    3.58    0.20
  -6   1   0    3.92    0.14
   5  -1   0   29.51    0.73
   5  -1   0   29.86    0.74
   5  -1   0   29.73    0.75
   5  -1   0   30.07    0.75
  -5   1   0   29.02    0.66
  -5   1   0   28.88    0.66
  -5   1   0   28.96    0.71
  -5   1   0   29.35    0.74
   4  -1   0    6.55    0.23
   4  -1   0    6.10    0.22
   4  -1   0    6.66    0.23
   4  -1   0    6.65    0.23
  -4   1   0    6.73    0.22
  -4   1   0    6.43    0.17
  -4   1   0    6.63    0.21
  -4   1   0    6.55    0.17
   3  -1   0    1.70    0.10
   3  -1   0    1.44    0.10
   3  -1   0    1.71    0.10
   3  -1   0    1.47    0.10
  -3   1   0    1.62    0.06
  -3   1   0    1.59    0.06
   2  -1   0    8.26    0.22
   2  -1   0    7.90    0.22
   2  -1   0    8.18    0.21
   2  -1   0    8.66    0.22
  -2   1   0    8.09    0.18
  -2   1   0    6.56    0.19
   1  -1   0   43.54    0.98
   1  -1   0   45.75    0.96
   1  -1   0   45.86    0.96
   0   1   0    2.46    0.07
   0   1   0    2.54    0.07
  -1  -1   0    4.35    0.12
  -1  -1   0    4.22    0.12
   1   1   0    4.05    0.12
  -2  -1   0  120.56    2.61
  -2  -1   0  124.24    2.60
  -2  -1   0  122.58    2.59
  -2  -1   0  119.77    2.60
   2   1   0  123.32    2.61
   2   1   0  124.59    2.61
   2   1   0  122.67    2.59
   2   1   0  120.77    2.63
   2   1   0  126.84    2.61
   2   1   0  120.58    2.61
  -3  -1   0   38.56    0.88
  -3  -1   0   39.56    0.88
  -3  -1   0   40.00    0.90
  -3  -1   0   41.80    0.89
   3   1   0   41.12    0.89
   3   1   0   40.48    0.89
   3   1   0   39.35    0.92
   3   1   0   39.17    0.91
   3   1   0   40.28    0.91
  -4  -1   0   12.49    0.31
  -4  -1   0   11.68    0.35
  -4  -1   0   12.02    0.31
  -4  -1   0   12.33    0.30
  -4  -1   0   11.89    0.30
  -4  -1   0   12.17    0.31
   4   1   0   11.90    0.32
   4   1   0   12.12    0.36
   4   1   0   11.30    0.34
   4   1   0   12.16    0.32
   4   1   0   12.34    0.34
  -5  -1   0    0.09    0.04
  -5  -1   0    0.03    0.04
  -5  -1   0    0.08    0.06
   5   1   0    0.06    0.05
   5   1   0    0.08    0.07
   5   1   0    0.05    0.06
   5   1   0    0.09    0.06
  -6  -1   0    6.01    0.27
  -6  -1   0    6.53    0.21
   6   1   0    6.24    0.26
   6   1   0    6.06    0.26
  -7  -1   0   16.04    0.43
  -7  -1   0   16.56    0.53
   7   1   0   16.29    0.51
   7   1   0   15.31    0.49
  -8  -1   0   12.92    0.38
  -8  -1   0   13.44    0.49
   8   1   0   13.35    0.47
   8   1   0   12.60    0.46
  -9  -1   0    8.59    0.43
  -9  -1   0    9.12    0.31
   9   1   0    8.56    0.42
 -10  -1   0    0.49    0.11
 -10  -1   0    0.78    0.19
   9  -2   0    2.02    0.22
   9  -2   0    2.75    0.26
  -9   2   0    1.98    0.25
   8  -2   0    9.43    0.39
   8  -2   0    8.89    0.40
  -8   2   0    9.04    0.39
  -8   2   0    9.78    0.44
   7  -2   0    1.51    0.17
   7  -2   0    1.65    0.17
   7  -2   0    1.55    0.17
   7  -2   0    1.34    0.16
  -7   2   0    1.42    0.16
  -7   2   0    1.41    0.10
  -7   2   0    1.21    0.17
   6  -2   0   33.16    0.86
   6  -2   0   33.76    0.86
   6  -2   0   33.47    0.87
   6  -2   0   33.50    0.84
  -6   2   0   33.26    0.85
  -6   2   0   32.22    0.88
  -6   2   0   33.06    0.75
   5  -2   0   33.48    0.83
   5  -2   0   31.88    0.79
   5  -2   0   32.58    0.81
   5  -2   0   33.59    0.82
  -5   2   0   31.88    0.78
  -5   2   0   32.25    0.73
  -5   2   0   32.21    0.80
  -5   2   0   32.54    0.72
   4  -2   0    5.93    0.22
   4  -2   0    6.36    0.23
   4  -2   0    6.21    0.21
   4  -2   0    6.15    0.24
  -4   2   0    6.05    0.16
  -4   2   0    6.26    0.16
  -4   2   0    6.17    0.21
   3  -2   0   11.02    0.32
   3  -2   0   10.92    0.29
   3  -2   0   10.89    0.31
   3  -2   0   10.80    0.31
  -3   2   0   11.24    0.25
   2  -2   0    7.95    0.19
   2  -2   0    7.11    0.23
   2  -2   0    7.77    0.21
   2  -2   0    8.03    0.22
   2  -2   0    7.98    0.19
  -2   2   0    7.57    0.19
  -2   2   0    7.76    0.19
   1  -2   0  105.51    2.20
   1  -2   0  104.62    2.20
   1  -2   0  103.21    2.23
   1  -2   0  102.30    2.22
   1  -2   0  103.38    2.22
  -1   2   0  104.85    2.20
  -1   2   0  100.33    2.20
  -1   2   0  106.37    2.20
   0  -2   0   23.15    0.53
   0  -2   0   23.81    0.53
   0  -2   0   23.31    0.53
   0   2   0   23.59    0.53
   0   2   0   23.68    0.53
  -1  -2   0  260.86    5.47
  -1  -2   0  258.65    5.50
  -1  -2   0  257.05    5.47
  -1  -2   0  258.11    5.47
   1   2   0  263.21    5.48
   1   2   0  259.11    5.46
   1   2   0  254.67    5.49
  -2  -2   0   72.75    1.56
  -2  -2   0   70.67    1.55
  -2  -2   0   71.54    1.56
  -2  -2   0   70.35    1.55
  -2  -2   0   72.34    1.54
   2   2   0   72.11    1.55
   2   2   0   71.26    1.56
   2   2   0   72.23    1.55
  -3  -2   0   42.49    0.95
  -3  -2   0   42.36    0.96
  -3  -2   0   41.14    0.93
  -3  -2   0   41.12    0.93
  -3  -2   0   42.40    0.92
   3   2   0   42.52    0.95
   3   2   0   42.20    0.93
   3   2   0   43.02    0.91
   3   2   0   40.89    0.95
   3   2   0   40.97    0.95
  -4  -2   0   65.95    1.55
  -4  -2   0   68.20    1.52
  -4  -2   0   68.44    1.52
  -4  -2   0   70.71    1.53
  -4  -2   0   68.12    1.52
  -4  -2   0   70.75    1.50
   4   2   0   69.16    1.54
   4   2   0   68.55    1.55
   4   2   0   72.25    1.54
   4   2   0   69.18    1.50
   4   2   0   70.09    1.49
  -5  -2   0    3.13    0.14
  -5  -2   0    3.53    0.15
  -5  -2   0    3.44    0.15
  -5  -2   0    3.41    0.18
   5   2   0    3.24    0.17
  -6  -2   0    0.21    0.06
  -6  -2   0    0.08    0.08
  -6  -2   0    0.24    0.06
   6   2   0    0.21    0.09
   6   2   0    0.15    0.08
  -7  -2   0    0.07    0.06
  -7  -2   0   -0.07    0.09
   7   2   0    0.04    0.08
   7   2   0    0.13    0.10
  -8  -2   0   10.63    0.36
  -8  -2   0   12.08    0.46
   8   2   0   11.76    0.45
   8   2   0   10.83    0.41
  -9  -2   0    0.73    0.18
  -9  -2   0    0.97    0.13
   9   2   0    0.66    0.17
 -10  -2   0    1.65    0.24
 -10  -2   0    1.81    0.17
   9  -3   0    1.37    0.22
  -9   3   0    1.35    0.23
   8  -3   0    0.13    0.12
   8  -3   0   -0.06    0.11
   8  -3   0   -0.07    0.10
  -8   3   0    0.17    0.14
   7  -3   0   11.49    0.40
   7  -3   0   11.30    0.43
   7  -3   0   11.97    0.45
  -7   3   0   11.20    0.45
   6  -3   0   20.25    0.62
   6  -3   0   21.49    0.57
   6  -3   0   20.67    0.61
   6  -3   0   20.74    0.59
  -6   3   0   20.21    0.57
  -6   3   0   20.28    0.62
  -6   3   0   20.81    0.48
   5  -3   0   10.95    0.35
   5  -3   0   10.03    0.37
   5  -3   0   10.51    0.36
   5  -3   0   10.83    0.33
  -5   3   0   10.44    0.36
  -5   3   0   10.70    0.33
  -5   3   0   10.63    0.26
  -5   3   0   10.47    0.27
   4  -3   0   41.95    0.98
   4  -3   0   41.06    1.01
   4  -3   0   42.96    1.00
   4  -3   0   40.37    0.95
  -4   3   0   42.24    0.96
  -4   3   0   41.28    0.91
  -4   3   0   40.44    0.99
  -4   3   0   41.72    0.91
   3  -3   0    0.27    0.07
   3  -3   0    0.51    0.06
   3  -3   0    0.41    0.07
   3  -3   0    0.45    0.05
   3  -3   0    0.41    0.06
  -3   3   0    0.38    0.04
  -3   3   0    0.53    0.04
   2  -3   0   31.28    0.76
   2  -3   0   32.70    0.72
   2  -3   0   32.21    0.76
   2  -3   0   33.11    0.72
  -2   3   0   32.47    0.71
  -2   3   0   31.96    0.71
  -2   3   0   31.88    0.72
   1  -3   0   73.40    1.65
   1  -3   0   74.59    1.65
   1  -3   0   77.00    1.63
   1  -3   0   74.73    1.64
   1  -3   0   73.78    1.64
  -1   3   0   74.41    1.61
  -1   3   0   76.42    1.62
  -1   3   0   74.47    1.62
  -1   3   0   77.50    1.62
   0  -3   0   20.71    0.49
   0  -3   0   20.08    0.48
   0  -3   0   21.19    0.49
   0  -3   0   19.82    0.48
   0  -3   0   20.61    0.48
   0   3   0   20.54    0.48
   0   3   0   21.09    0.49
   0   3   0   20.03    0.49
   0   3   0   20.62    0.48
  -1  -3   0   14.25    0.33
  -1  -3   0   14.27    0.36
  -1  -3   0   13.93    0.35
  -1  -3   0   13.90    0.35
   1   3   0   13.84    0.36
   1   3   0   14.41    0.36
   1   3   0   13.88    0.34
   1   3   0   13.89    0.35
  -2  -3   0   38.45    0.84
  -2  -3   0   37.51    0.86
  -2  -3   0   36.55    0.85
  -2  -3   0   36.89    0.84
  -2  -3   0   37.25    0.86
   2   3   0   37.78    0.85
   2   3   0   38.00    0.86
   2   3   0   37.00    0.84
  -3  -3   0   22.23    0.54
  -3  -3   0   22.23    0.55
  -3  -3   0   22.84    0.56
  -3  -3   0   22.55    0.56
  -3  -3   0   22.85    0.53
   3   3   0   22.78    0.56
   3   3   0   22.63    0.55
   3   3   0   22.88    0.54
  -4  -3   0   86.19    1.95
  -4  -3   0   85.77    1.91
  -4  -3   0   87.08    1.92
  -4  -3   0   85.42    1.89
  -4  -3   0   89.46    1.92
  -4  -3   0   88.59    1.93
   4   3   0   91.06    1.94
   4   3   0   86.07    1.93
   4   3   0   88.07    1.93
   4   3   0   87.65    1.90
   4   3   0   87.15    1.95
  -5  -3   0    0.65    0.10
  -5  -3   0    0.46    0.07
  -5  -3   0    0.45    0.07
  -5  -3   0    0.59    0.08
   5   3   0    0.53    0.08
   5   3   0    0.59    0.09
  -6  -3   0    9.42    0.35
  -6  -3   0    8.95    0.30
  -6  -3   0    9.32    0.30
  -6  -3   0    9.00    0.30
   6   3   0    9.87    0.34
   6   3   0    9.31    0.33
  -7  -3   0    0.64    0.14
  -7  -3   0    0.48    0.09
   7   3   0    0.66    0.13
   7   3   0    0.45    0.11
  -8  -3   0    1.46    0.19
  -8  -3   0    1.59    0.15
   8   3   0    1.33    0.18
  -9  -3   0    2.93    0.28
  -9  -3   0    3.23    0.22
 -10  -3   0   14.13    0.48
 -10  -3   0   14.57    0.60
   9  -4   0    0.26    0.16
  -9   4   0   -0.06    0.14
   8  -4   0    1.60    0.21
   8  -4   0    2.05    0.23
  -8   4   0    1.57    0.22
   7  -4   0   27.78    0.83
   7  -4   0   27.53    0.81
  -7   4   0   29.00    0.83
   6  -4   0    0.25    0.08
   6  -4   0    0.20    0.11
   6  -4   0    0.15    0.10
  -6   4   0    0.16    0.10
  -6   4   0    0.18    0.04
   5  -4   0   18.05    0.48
   5  -4   0   17.93    0.53
   5  -4   0   17.93    0.55
   5  -4   0   16.77    0.50
  -5   4   0   17.14    0.42
  -5   4   0   17.17    0.52
   4  -4   0   41.33    0.97
   4  -4   0   43.82    1.00
   4  -4   0   41.74    1.04
   4  -4   0   42.99    1.01
   4  -4   0   41.78    1.03
  -4   4   0   42.10    0.94
  -4   4   0   41.69    1.02
  -4   4   0   42.39    0.94
   3  -4   0    5.03    0.20
   3  -4   0    4.94    0.16
   3  -4   0    4.85    0.20
  -3   4   0    4.74    0.15
  -3   4   0    4.88    0.15
   2  -4   0   16.06    0.38
   2  -4   0   17.12    0.44
   2  -4   0   16.25    0.40
   2  -4   0   15.37    0.43
  -2   4   0   15.83    0.39
  -2   4   0   16.06    0.39
  -2   4   0   16.35    0.39
  -2   4   0   15.71    0.39
   1  -4   0    6.42    0.20
   1  -4   0    6.05    0.22
   1  -4   0    6.41    0.21
   1  -4   0    6.73    0.22
   1  -4   0    6.35    0.18
   1  -4   0    6.27    0.23
  -1   4   0    6.28    0.19
  -1   4   0    6.55    0.19
  -1   4   0    6.66    0.20
  -1   4   0    6.06    0.20
   0  -4   0    2.59    0.12
   0  -4   0    2.66    0.13
   0  -4   0    2.55    0.12
   0  -4   0    2.58    0.11
   0  -4   0    2.68    0.12
   0   4   0    2.70    0.11
   0   4   0    2.86    0.12
   0   4   0    2.37    0.12
   0   4   0    2.51    0.11
  -1  -4   0    1.37    0.09
  -1  -4   0    1.33    0.09
  -1  -4   0    1.34    0.08
  -1  -4   0    1.14    0.09
   1   4   0    1.27    0.09
   1   4   0    1.27    0.08
   1   4   0    1.13    0.09
   1   4   0    1.25    0.09
  -2  -4   0  112.04    2.39
  -2  -4   0  107.07    2.41
  -2  -4   0  110.55    2.39
  -2  -4   0  111.18    2.38
   2   4   0  112.72    2.40
   2   4   0  111.92    2.36
   2   4   0  107.20    2.41
  -3  -4   0   82.66    1.88
  -3  -4   0   86.39    1.87
  -3  -4   0   87.00    1.86
  -3  -4   0   84.87    1.84
  -3  -4   0   83.01    1.86
   3   4   0   83.72    1.88
   3   4   0   85.69    1.86
  -4  -4   0   23.34    0.61
  -4  -4   0   23.28    0.61
  -4  -4   0   23.88    0.59
  -4  -4   0   22.78    0.59
  -4  -4   0   23.71    0.56
   4   4   0   24.05    0.62
   4   4   0   23.30    0.59
   4   4   0   23.03    0.58
   4   4   0   23.96    0.62
  -5  -4   0   46.33    1.09
  -5  -4   0   45.90    1.09
  -5  -4   0   45.94    1.10
  -5  -4   0   46.18    1.06
  -5  -4   0   46.37    1.12
   5   4   0   47.34    1.07
   5   4   0   47.49    1.10
   5   4   0   46.20    1.10
  -6  -4   0   29.83    0.82
  -6  -4   0   30.12    0.77
  -6  -4   0   30.77    0.77
  -6  -4   0   31.74    0.79
   6   4   0   31.11    0.79
   6   4   0   31.19    0.81
  -7  -4   0    0.21    0.09
  -7  -4   0    0.08    0.07
  -7  -4   0   -0.01    0.10
   7   4   0    0.10    0.11
  -8  -4   0    0.78    0.13
  -8  -4   0    0.57    0.15
  -9  -4   0    0.39    0.17
  -9  -4   0    0.70    0.14
 -10  -4   0    0.05    0.17
 -10  -4   0    0.12    0.12
   8  -5   0   -0.05    0.14
   8  -5   0   -0.01    0.13
  -8   5   0   -0.04    0.14
   7  -5   0    0.17    0.13
   7  -5   0    0.18    0.13
   6  -5   0    1.49    0.18
   6  -5   0    1.43    0.19
  -6   5   0    1.60    0.18
  -6   5   0    1.79    0.10
   5  -5   0   24.66    0.69
   5  -5   0   23.45    0.71
  -5   5   0   24.71    0.57
  -5   5   0   23.98    0.68
   4  -5   0   15.07    0.43
   4  -5   0   14.24    0.43
   4  -5   0   14.61    0.48
   4  -5   0   14.24    0.45
  -4   5   0   14.85    0.45
  -4   5   0   14.60    0.37
   3  -5   0   57.69    1.32
   3  -5   0   56.46    1.30
   3  -5   0   56.62    1.33
   3  -5   0   55.49    1.35
  -3   5   0   58.24    1.26
   2  -5   0   30.41    0.76
   2  -5   0   30.89    0.78
   2  -5   0   31.46    0.75
   2  -5   0   29.71    0.76
   2  -5   0   31.56    0.74
   2  -5   0   32.10    0.78
  -2   5   0   31.00    0.72
  -2   5   0   30.60    0.72
  -2   5   0   30.77    0.72
   1  -5   0    0.67    0.09
   1  -5   0    0.77    0.09
   1  -5   0    0.86    0.09
   1  -5   0    0.87    0.11
   1  -5   0    0.67    0.08
   1  -5   0    0.66    0.08
   1  -5   0    0.75    0.07
  -1   5   0    0.80    0.08
  -1   5   0    0.60    0.07
  -1   5   0    0.81    0.08
  -1   5   0    0.75    0.08
   0  -5   0   43.28    1.03
   0  -5   0   44.25    1.03
   0  -5   0   43.67    1.02
   0  -5   0   46.24    1.01
   0   5   0   44.29    1.03
   0   5   0   44.70    1.01
   0   5   0   44.18    1.02
   0   5   0   43.95    1.05
  -1  -5   0    6.37    0.20
  -1  -5   0    6.07    0.22
  -1  -5   0    6.26    0.23
  -1  -5   0    6.14    0.21
   1   5   0    6.36    0.21
   1   5   0    6.17    0.22
   1   5   0    6.58    0.22
   1   5   0    6.47    0.23
  -2  -5   0    0.40    0.07
  -2  -5   0    0.38    0.07
  -2  -5   0    0.43    0.07
  -2  -5   0    0.46    0.07
   2   5   0    0.64    0.07
   2   5   0    0.35    0.06
   2   5   0    0.40    0.07
   2   5   0    0.40    0.07
  -3  -5   0    0.72    0.09
  -3  -5   0    0.95    0.09
  -3  -5   0    0.79    0.09
  -3  -5   0    0.76    0.10
  -3  -5   0    0.91    0.09
  -3  -5   0    0.82    0.09
   3   5   0    1.34    0.11
   3   5   0    0.99    0.10
  -4  -5   0   73.18    1.64
  -4  -5   0   73.04    1.68
  -4  -5   0   75.87    1.66
  -4  -5   0   74.57    1.66
  -4  -5   0   71.65    1.62
  -4  -5   0   73.55    1.67
   4   5   0   74.99    1.65
   4   5   0   71.49    1.68
   4   5   0   72.92    1.67
  -5  -5   0   74.87    1.72
  -5  -5   0   74.61    1.70
  -5  -5   0   76.57    1.73
  -5  -5   0   74.46    1.75
  -5  -5   0   75.77    1.74
   5   5   0   79.38    1.74
   5   5   0   76.43    1.76
   5   5   0   76.70    1.71
  -6  -5   0    0.63    0.13
  -6  -5   0    0.67    0.11
  -6  -5   0    0.74    0.11
  -6  -5   0    0.69    0.11
   6   5   0    0.78    0.12
  -7  -5   0    7.08    0.29
  -7  -5   0    6.99    0.34
  -7  -5   0    7.10    0.30
  -8  -5   0    0.12    0.13
  -8  -5   0   -0.05    0.09
  -9  -5   0    2.90    0.24
  -9  -5   0    2.91    0.29
   8  -6   0    0.75    0.21
   8  -6   0    0.76    0.19
  -8   6   0    0.71    0.21
   7  -6   0   -0.01    0.13
   7  -6   0    0.02    0.14
  -7   6   0   -0.03    0.15
  -7   6   0    0.05    0.05
   6  -6   0    1.95    0.22
   6  -6   0    2.21    0.22
  -6   6   0    2.40    0.12
   5  -6   0    0.67    0.15
   5  -6   0    0.49    0.13
  -5   6   0    0.62    0.08
   4  -6   0   54.43    1.30
   4  -6   0   55.53    1.36
   4  -6   0   54.78    1.34
  -4   6   0   55.29    1.24
   3  -6   0   83.67    1.93
   3  -6   0   85.09    1.91
   3  -6   0   82.94    1.91
   3  -6   0   83.06    1.88
  -3   6   0   82.27    1.82
  -3   6   0   84.84    1.84
   2  -6   0   18.27    0.51
   2  -6   0   19.01    0.53
   2  -6   0   20.30    0.55
   2  -6   0   18.98    0.54
   2  -6   0   18.69    0.54
  -2   6   0   19.39    0.49
  -2   6   0   19.33    0.49
  -2   6   0   18.77    0.49
   1  -6   0   15.30    0.44
   1  -6   0   14.73    0.47
   1  -6   0   15.62    0.43
   1  -6   0   14.47    0.44
   1  -6   0   15.82    0.45
   1  -6   0   15.89    0.44
   1  -6   0   15.66    0.39
  -1   6   0   15.04    0.42
  -1   6   0   15.16    0.42
  -1   6   0   15.81    0.42
   0  -6   0   27.57    0.66
   0  -6   0   26.58    0.64
   0  -6   0   26.43    0.67
   0  -6   0   26.80    0.67
   0  -6   0   26.19    0.66
   0   6   0   26.32    0.66
   0   6   0   24.93    0.66
   0   6   0   26.64    0.65
   0   6   0   26.53    0.70
  -1  -6   0    0.60    0.08
  -1  -6   0    0.66    0.09
  -1  -6   0    0.80    0.08
  -1  -6   0    0.74    0.09
  -1  -6   0    0.82    0.10
   1   6   0    0.69    0.09
   1   6   0    0.68    0.09
   1   6   0    0.66    0.09
   1   6   0    0.50    0.08
  -2  -6   0    0.15    0.06
  -2  -6   0    0.23    0.07
  -2  -6   0    0.20    0.07
  -2  -6   0    0.26    0.05
  -2  -6   0    0.12    0.06
  -2  -6   0    0.20    0.07
   2   6   0    0.15    0.07
   2   6   0    0.18    0.07
   2   6   0    0.34    0.07
   2   6   0    0.16    0.06
  -3  -6   0    1.62    0.13
  -3  -6   0    1.73    0.12
  -3  -6   0    1.58    0.13
  -3  -6   0    1.57    0.12
  -3  -6   0    1.52    0.14
  -3  -6   0    1.52    0.12
   3   6   0    1.81    0.15
   3   6   0    1.72    0.13
   3   6   0    1.74    0.14
  -4  -6   0   26.14    0.65
  -4  -6   0   24.86    0.66
  -4  -6   0   26.64    0.69
  -4  -6   0   26.80    0.69
  -4  -6   0   27.07    0.71
  -4  -6   0   27.64    0.69
   4   6   0   25.63    0.68
   4   6   0   25.60    0.68
   4   6   0   25.57    0.71
  -5  -6   0   -0.02    0.07
  -5  -6   0    0.12    0.07
  -5  -6   0    0.00    0.08
  -5  -6   0   -0.04    0.07
  -5  -6   0   -0.01    0.07
   5   6   0    0.07    0.09
   5   6   0    0.08    0.07
  -6  -6   0   14.59    0.47
  -6  -6   0   15.10    0.50
  -6  -6   0   15.68    0.48
  -7  -6   0   18.01    0.55
  -7  -6   0   18.66    0.57
  -7  -6   0   17.92    0.60
  -8  -6   0   -0.12    0.11
  -8  -6   0    0.07    0.10
  -9  -6   0    2.40    0.27
  -9  -6   0    2.04    0.21
   7  -7   0    1.23    0.21
   7  -7   0    1.44    0.23
  -7   7   0    1.57    0.27
  -7   7   0    1.41    0.11
   6  -7   0    0.24    0.15
   6  -7   0    0.13    0.13
  -6   7   0    0.35    0.08
  -6   7   0    0.43    0.18
   5  -7   0    0.49    0.15
   5  -7   0    0.50    0.13
   5  -7   0    0.84    0.22
  -5   7   0    0.53    0.08
   4  -7   0    0.85    0.13
   4  -7   0    0.92    0.16
   4  -7   0    1.03    0.16
  -4   7   0    0.94    0.10
   3  -7   0    5.38    0.27
   3  -7   0    5.66    0.25
   3  -7   0    5.04    0.28
  -3   7   0    5.13    0.19
  -3   7   0    5.10    0.21
   2  -7   0   23.04    0.66
   2  -7   0   24.22    0.66
   2  -7   0   22.96    0.63
   2  -7   0   24.95    0.67
  -2   7   0   23.40    0.60
  -2   7   0   22.75    0.61
  -2   7   0   23.21    0.60
   1  -7   0   79.63    1.80
   1  -7   0   78.99    1.79
   1  -7   0   77.58    1.73
   1  -7   0   78.83    1.80
   1  -7   0   79.08    1.80
   1  -7   0   77.86    1.84
  -1   7   0   79.04    1.78
  -1   7   0   80.34    1.77
  -1   7   0   80.09    1.85
  -1   7   0   76.03    1.77
   0  -7   0    4.19    0.20
   0  -7   0    3.79    0.18
   0  -7   0    3.78    0.20
   0  -7   0    4.16    0.20
   0  -7   0    4.15    0.20
   0   7   0    4.04    0.22
   0   7   0    4.18    0.20
   0   7   0    3.81    0.19
   0   7   0    3.77    0.19
  -1  -7   0    1.36    0.11
  -1  -7   0    1.16    0.13
  -1  -7   0    1.36    0.12
  -1  -7   0    1.50    0.14
  -1  -7   0    1.21    0.12
   1   7   0    1.18    0.13
   1   7   0    1.21    0.12
   1   7   0    1.06    0.12
   1   7   0    1.46    0.13
  -2  -7   0   -0.01    0.06
  -2  -7   0    0.08    0.06
  -2  -7   0    0.05    0.07
  -2  -7   0    0.00    0.06
   2   7   0    0.11    0.08
   2   7   0    0.10    0.07
   2   7   0    0.04    0.08
  -3  -7   0   31.52    0.80
  -3  -7   0   32.11    0.80
  -3  -7   0   31.67    0.82
  -3  -7   0   33.50    0.85
   3   7   0   33.06    0.80
   3   7   0   31.86    0.85
   3   7   0   32.46    0.83
  -4  -7   0    6.57    0.29
  -4  -7   0    6.59    0.28
  -4  -7   0    6.38    0.26
  -4  -7   0    6.06    0.25
  -4  -7   0    6.28    0.25
   4   7   0    5.94    0.29
   4   7   0    6.61    0.28
   4   7   0    6.27    0.27
  -5  -7   0   15.76    0.50
  -5  -7   0   15.60    0.49
  -5  -7   0   16.23    0.47
  -5  -7   0   16.22    0.50
   5   7   0   15.19    0.56
   5   7   0   15.28    0.48
   5   7   0   15.52    0.50
  -6  -7   0   16.51    0.53
  -6  -7   0   17.60    0.56
  -6  -7   0   17.46    0.55
  -7  -7   0    0.68    0.13
  -7  -7   0    0.97    0.15
  -7  -7   0    0.58    0.15
  -8  -7   0   13.29    0.49
  -8  -7   0   11.63    0.51
  -8  -7   0   13.48    0.48
  -9  -7   0    1.07    0.21
  -9  -7   0    1.15    0.19
   7  -8   0    1.13    0.22
  -7   8   0    1.29    0.11
   6  -8   0    0.39    0.17
   6  -8   0    0.72    0.18
  -6   8   0    0.39    0.09
  -6   8   0    0.81    0.22
   5  -8   0    2.32    0.25
   5  -8   0    2.05    0.23
  -5   8   0    2.57    0.30
  -5   8   0    2.21    0.16
   4  -8   0    9.24    0.40
   4  -8   0    9.27    0.37
   4  -8   0    9.85    0.42
  -4   8   0    9.03    0.31
  -4   8   0    8.42    0.45
   3  -8   0   14.58    0.48
   3  -8   0   14.49    0.51
   3  -8   0   14.86    0.50
  -3   8   0   14.31    0.56
  -3   8   0   15.09    0.44
   2  -8   0   44.13    1.10
   2  -8   0   46.21    1.13
   2  -8   0   44.98    1.14
  -2   8   0   44.69    1.07
  -2   8   0   44.60    1.19
  -2   8   0   43.09    1.07
  -2   8   0   45.38    1.07
   1  -8   0   13.29    0.43
   1  -8   0   12.62    0.47
   1  -8   0   13.18    0.43
   1  -8   0   12.96    0.42
   1  -8   0   12.27    0.43
  -1   8   0   13.01    0.40
  -1   8   0   12.73    0.47
  -1   8   0   13.30    0.41
  -1   8   0   12.88    0.41
   0  -8   0    3.23    0.20
   0  -8   0    3.23    0.18
   0  -8   0    3.37    0.20
   0  -8   0    3.07    0.19
   0   8   0    3.41    0.20
   0   8   0    3.37    0.20
   0   8   0    3.48    0.19
   0   8   0    3.81    0.23
  -1  -8   0   31.51    0.80
  -1  -8   0   31.64    0.84
  -1  -8   0   32.35    0.82
  -1  -8   0   30.38    0.81
   1   8   0   31.49    0.82
   1   8   0   33.01    0.81
   1   8   0   30.71    0.83
   1   8   0   30.75    0.83
  -2  -8   0    6.91    0.28
  -2  -8   0    6.80    0.28
  -2  -8   0    6.38    0.29
  -2  -8   0    7.36    0.29
   2   8   0    6.96    0.30
   2   8   0    6.79    0.29
  -3  -8   0    2.00    0.17
  -3  -8   0    1.88    0.18
  -3  -8   0    2.05    0.16
  -3  -8   0    2.08    0.17
   3   8   0    2.02    0.19
   3   8   0    1.77    0.17
  -4  -8   0    1.31    0.14
  -4  -8   0    1.19    0.14
  -4  -8   0    1.13    0.14
   4   8   0    1.13    0.16
   4   8   0    1.19    0.15
  -5  -8   0    6.09    0.29
  -5  -8   0    5.77    0.29
  -5  -8   0    5.50    0.26
   5   8   0    5.50    0.30
   5   8   0    5.93    0.29
   5   8   0    5.27    0.28
  -6  -8   0   -0.01    0.11
  -6  -8   0    0.15    0.11
   6   8   0    0.07    0.10
  -7  -8   0   16.28    0.56
  -7  -8   0   15.56    0.57
  -8  -8   0   11.46    0.47
  -8  -8   0   12.36    0.52
  -8  -8   0   13.47    0.51
   6  -9   0    6.27    0.41
  -6   9   0    6.64    0.48
  -6   9   0    6.49    0.26
   5  -9   0    0.23    0.16
   5  -9   0    0.05    0.14
  -5   9   0    0.14    0.17
  -5   9   0    0.15    0.09
   4  -9   0    0.89    0.18
   4  -9   0    0.89    0.19
   4  -9   0    1.13    0.17
  -4   9   0    0.98    0.21
  -4   9   0    1.02    0.13
   3  -9   0    6.91    0.36
   3  -9   0    6.40    0.32
   3  -9   0    6.68    0.34
  -3   9   0    6.19    0.39
  -3   9   0    6.35    0.27
   2  -9   0    9.59    0.40
   2  -9   0    9.93    0.38
   2  -9   0    9.95    0.40
  -2   9   0    9.39    0.34
  -2   9   0    9.74    0.45
   1  -9   0    1.05    0.15
   1  -9   0    1.01    0.15
   1  -9   0    1.23    0.16
  -1   9   0    1.15    0.15
  -1   9   0    1.08    0.13
  -1   9   0    1.03    0.17
   0  -9   0   31.18    0.79
   0  -9   0   31.32    0.89
   0  -9   0   30.75    0.82
   0  -9   0   31.22    0.83
   0  -9   0   30.99    0.84
   0   9   0   31.31    0.82
   0   9   0   29.80    0.87
   0   9   0   31.92    0.83
  -1  -9   0    1.70    0.17
  -1  -9   0    1.58    0.18
  -1  -9   0    1.43    0.16
  -1  -9   0    1.41    0.14
   1   9   0    1.04    0.14
   1   9   0    1.57    0.16
  -2  -9   0    7.48    0.34
  -2  -9   0    7.81    0.32
  -2  -9   0    6.78    0.31
  -2  -9   0    8.07    0.33
   2   9   0    8.04    0.34
  -3  -9   0   12.49    0.45
  -3  -9   0   12.98    0.44
  -3  -9   0   13.49    0.45
   3   9   0   13.89    0.47
  -4  -9   0    0.40    0.11
  -4  -9   0    0.46    0.12
  -4  -9   0    0.60    0.12
   4   9   0    0.15    0.11
  -5  -9   0    0.75    0.13
  -5  -9   0    0.45    0.13
   5   9   0    0.36    0.12
  -6  -9   0    5.01    0.36
  -6  -9   0    4.78    0.31
   6   9   0    4.89    0.29
  -7  -9   0   16.31    0.70
  -7  -9   0   17.54    0.61
  -8  -9   0    0.13    0.15
  -8  -9   0    0.14    0.15
   5 -10   0    1.97    0.26
  -5  10   0    1.80    0.17
  -5  10   0    1.68    0.29
   4 -10   0    0.77    0.19
   4 -10   0    0.48    0.16
   4 -10   0    0.63    0.19
  -4  10   0    0.99    0.14
  -4  10   0    0.83    0.21
   3 -10   0    1.99    0.22
   3 -10   0    2.15    0.23
   3 -10   0    1.88    0.23
  -3  10   0    2.26    0.19
  -3  10   0    2.34    0.28
   2 -10   0    2.01    0.21
   2 -10   0    2.51    0.24
  -2  10   0    2.09    0.25
  -2  10   0    2.87    0.22
   1 -10   0   11.78    0.44
   1 -10   0   10.93    0.43
  -1  10   0   11.63    0.43
  -1  10   0   10.22    0.47
  -1  10   0   10.90    0.40
   0 -10   0    8.95    0.39
   0 -10   0    8.71    0.38
   0  10   0    8.75    0.37
   0  10   0    8.61    0.36
   0  10   0    8.65    0.40
  -1 -10   0    6.77    0.33
  -1 -10   0    6.81    0.33
  -1 -10   0    6.97    0.30
   1  10   0    6.80    0.33
  -2 -10   0   40.59    1.05
  -2 -10   0   39.52    1.03
  -2 -10   0   41.25    1.05
   2  10   0   40.12    1.06
  -3 -10   0   13.54    0.48
  -3 -10   0   14.41    0.49
  -3 -10   0   14.40    0.49
   3  10   0   13.15    0.49
  -4 -10   0    2.91    0.23
  -4 -10   0    2.57    0.23
  -4 -10   0    3.29    0.25
   4  10   0    2.92    0.25
  -5 -10   0    3.21    0.27
  -5 -10   0    2.60    0.22
   5  10   0    2.51    0.23
  -6 -10   0    0.06    0.12
  -6 -10   0    0.07    0.13
   6  10   0    0.02    0.12
  -7 -10   0   -0.15    0.13
   4 -11   0    0.55    0.20
   4 -11   0    0.56    0.18
  -4  11   0    0.71    0.35
  -4  11   0    0.67    0.14
   3 -11   0    2.54    0.26
   3 -11   0    3.25    0.30
  -3  11   0    2.58    0.22
  -3  11   0    3.15    0.33
   2 -11   0    0.28    0.15
   2 -11   0    0.22    0.15
  -2  11   0    0.28    0.12
  -2  11   0    0.31    0.17
   1 -11   0    0.71    0.17
  -1  11   0    0.66    0.18
  -1  11   0    0.78    0.16
  -1  11   0    0.69    0.14
   0 -11   0    0.86    0.17
   0 -11   0    0.63    0.16
   0  11   0    0.74    0.14
   0  11   0    1.35    0.18
  -1 -11   0   17.33    0.58
  -1 -11   0   16.31    0.58
   1  11   0   17.12    0.58
  -2 -11   0    9.58    0.41
  -2 -11   0    9.16    0.40
  -2 -11   0    8.24    0.37
   2  11   0    8.58    0.40
  -3 -11   0    0.08    0.12
  -3 -11   0    0.10    0.13
  -3 -11   0    0.00    0.11
   3  11   0    0.01    0.12
  -4 -11   0    7.82    0.38
  -4 -11   0    8.31    0.39
   4  11   0    7.20    0.39
  -5 -11   0    0.37    0.15
  -5 -11   0    0.48    0.15
   5  11   0    0.43    0.15
  -6 -11   0    1.65    0.23
  -6 -11   0    1.24    0.19
   6  11   0    1.57    0.22
   3 -12   0    2.79    0.29
   2 -12   0    0.24    0.16
  -2  12   0    0.19    0.13
  -2  12   0    0.18    0.18
   1 -12   0   -0.11    0.14
  -1  12   0    0.08    0.12
  -1  12   0   -0.09    0.12
   0 -12   0    4.15    0.31
   0  12   0    3.88    0.31
  -1 -12   0    8.11    0.42
  -1 -12   0    8.34    0.42
   1  12   0    8.52    0.42
  -2 -12   0    0.14    0.13
  -2 -12   0   -0.06    0.12
  -2 -12   0    0.23    0.15
   2  12   0   -0.06    0.14
  -3 -12   0   15.94    0.57
  -3 -12   0   15.78    0.57
  -3 -12   0   15.06    0.56
   3  12   0   15.62    0.59
  -4 -12   0   14.04    0.54
  -4 -12   0   13.52    0.53
   4  12   0   13.52    0.56
  -5 -12   0    0.41    0.17
  -5 -12   0    0.40    0.16
   5  12   0    0.34    0.16
   0 -13   0    1.21    0.23
   0  13   0    0.84    0.20
  -1 -13   0    0.00    0.16
   1  13   0    0.05    0.15
  -2 -13   0    5.79    0.39
   2  13   0    6.34    0.41
   2  13  -1    0.84    0.21
  -2 -13   1    0.89    0.21
   1  13  -1    0.47    0.19
  -1 -13   1    1.01    0.21
   5  12  -1    7.06    0.42
  -5 -12   1    7.85    0.40
  -5 -12   1    8.50    0.44
   4  12  -1    0.13    0.15
  -4 -12   1    0.20    0.15
  -4 -12   1   -0.11    0.13
   3  12  -1    4.46    0.35
  -3 -12   1    5.00    0.33
  -3 -12   1    4.54    0.33
  -3 -12   1    4.41    0.31
   2  12  -1   12.04    0.51
  -2 -12   1   11.67    0.50
   1  12  -1    0.19    0.15
  -1 -12   1    0.45    0.17
   0  12  -1    0.15    0.14
   0 -12   1    0.11    0.15
  -1  12  -1    5.25    0.34
   1 -12   1    4.73    0.33
  -2  12  -1    7.37    0.47
   2 -12   1    8.12    0.44
   6  11  -1    3.94    0.32
  -6 -11   1    4.07    0.33
   5  11  -1    3.62    0.31
  -5 -11   1    3.36    0.27
  -5 -11   1    3.49    0.30
   4  11  -1    3.75    0.31
  -4 -11   1    3.94    0.28
  -4 -11   1    3.75    0.29
   3  11  -1   26.74    0.80
  -3 -11   1   26.13    0.77
  -3 -11   1   26.14    0.77
  -3 -11   1   25.46    0.77
   2  11  -1    0.77    0.17
  -2 -11   1    0.88    0.17
  -2 -11   1    0.95    0.17
  -2 -11   1    0.88    0.16
   1  11  -1    0.43    0.14
  -1 -11   1    0.36    0.14
  -1 -11   1    0.40    0.18
  -1 -11   1    0.39    0.15
   0  11  -1    1.18    0.18
   0  11  -1    1.00    0.16
   0 -11   1    1.13    0.18
  -1  11  -1    4.86    0.30
  -1  11  -1    3.97    0.34
  -1  11  -1    4.04    0.27
   1 -11   1    4.54    0.30
  -2  11  -1    0.09    0.11
  -2  11  -1    0.06    0.15
   2 -11   1   -0.02    0.13
   2 -11   1   -0.07    0.12
  -3  11  -1    5.08    0.29
  -3  11  -1    5.40    0.41
   3 -11   1    5.45    0.36
   3 -11   1    5.85    0.37
  -4  11  -1    7.32    0.33
   4 -11   1    6.71    0.40
  -7 -10   1    0.59    0.18
   6  10  -1    1.04    0.19
  -6 -10   1    1.28    0.20
   5  10  -1    7.14    0.37
  -5 -10   1    7.41    0.38
  -5 -10   1    6.64    0.33
   4  10  -1   17.95    0.59
  -4 -10   1   17.69    0.56
  -4 -10   1   16.19    0.57
   3  10  -1    5.36    0.31
  -3 -10   1    5.02    0.29
  -3 -10   1    4.60    0.28
  -3 -10   1    5.01    0.28
   2  10  -1   13.52    0.49
  -2 -10   1   14.04    0.48
  -2 -10   1   14.02    0.48
  -2 -10   1   13.62    0.47
   1  10  -1   10.43    0.42
  -1 -10   1   10.93    0.39
  -1 -10   1   10.76    0.42
  -1 -10   1   10.42    0.41
   0  10  -1   -0.10    0.08
   0  10  -1   -0.16    0.10
   0  10  -1    0.04    0.11
   0 -10   1    0.06    0.12
   0 -10   1   -0.01    0.11
  -1  10  -1    0.13    0.13
  -1  10  -1    0.23    0.12
  -1  10  -1    0.12    0.10
   1 -10   1    0.06    0.12
   1 -10   1    0.10    0.11
  -2  10  -1   -0.02    0.09
  -2  10  -1   -0.12    0.12
   2 -10   1    0.05    0.12
   2 -10   1    0.04    0.12
  -3  10  -1    3.01    0.32
  -3  10  -1    3.48    0.23
   3 -10   1    3.04    0.27
   3 -10   1    3.62    0.30
   3 -10   1    3.47    0.28
  -4  10  -1    0.38    0.18
  -4  10  -1    0.17    0.10
   4 -10   1    0.25    0.16
   4 -10   1    0.18    0.14
   4 -10   1    0.13    0.16
  -5  10  -1   13.09    0.67
  -5  10  -1   13.79    0.43
   5 -10   1   12.18    0.56
   5 -10   1   11.87    0.52
  -8  -9   1    0.03    0.14
  -8  -9   1    0.07    0.15
  -7  -9   1    1.15    0.19
  -7  -9   1    1.01    0.19
   6   9  -1    0.05    0.11
  -6  -9   1    0.11    0.12
   5   9  -1    0.76    0.15
  -5  -9   1    0.65    0.14
  -5  -9   1    0.90    0.14
   4   9  -1    7.20    0.34
  -4  -9   1    7.13    0.31
  -4  -9   1    6.61    0.33
   3   9  -1    3.18    0.23
  -3  -9   1    2.89    0.22
  -3  -9   1    3.18    0.21
  -3  -9   1    3.42    0.21
   2   9  -1   69.70    1.66
  -2  -9   1   70.41    1.64
  -2  -9   1   68.77    1.64
  -2  -9   1   69.20    1.64
  -2  -9   1   70.58    1.69
   1   9  -1   18.52    0.55
   1   9  -1   19.00    0.57
   1   9  -1   18.18    0.76
  -1  -9   1   17.81    0.55
  -1  -9   1   19.24    0.57
  -1  -9   1   18.19    0.54
   0   9  -1   10.42    0.38
   0   9  -1    9.65    0.41
   0   9  -1    9.63    0.36
   0  -9   1   10.28    0.37
   0  -9   1   10.44    0.39
   0  -9   1   10.23    0.44
   0  -9   1    9.78    0.39
   0  -9   1   10.58    0.40
  -1   9  -1   20.99    0.61
  -1   9  -1   22.14    0.62
  -1   9  -1   21.11    0.69
   1  -9   1   21.10    0.70
   1  -9   1   22.27    0.64
   1  -9   1   21.74    0.65
  -2   9  -1    0.11    0.08
  -2   9  -1    0.13    0.09
  -2   9  -1   -0.05    0.11
   2  -9   1    0.16    0.11
   2  -9   1   -0.07    0.10
  -3   9  -1    0.51    0.16
  -3   9  -1    0.39    0.10
   3  -9   1    0.48    0.15
   3  -9   1    0.67    0.14
   3  -9   1    0.63    0.15
  -4   9  -1    3.06    0.20
  -4   9  -1    3.18    0.33
   4  -9   1    3.19    0.27
   4  -9   1    3.17    0.29
   4  -9   1    3.34    0.26
  -5   9  -1    7.72    0.48
  -5   9  -1    9.13    0.31
   5  -9   1    8.62    0.41
   5  -9   1    8.99    0.44
   5  -9   1    8.03    0.45
  -6   9  -1    0.35    0.09
  -6   9  -1    0.27    0.20
   6  -9   1    0.43    0.18
  -8  -8   1    0.09    0.13
  -8  -8   1    0.04    0.14
  -7  -8   1    6.62    0.34
  -7  -8   1    5.87    0.34
   6   8  -1    0.54    0.13
  -6  -8   1    0.46    0.13
  -6  -8   1    1.01    0.16
   5   8  -1    2.59    0.23
   5   8  -1    2.57    0.21
  -5  -8   1    2.48    0.20
  -5  -8   1    2.10    0.18
  -5  -8   1    2.64    0.22
   4   8  -1    0.95    0.15
   4   8  -1    0.73    0.13
  -4  -8   1    1.10    0.13
  -4  -8   1    1.15    0.15
   3   8  -1   22.32    0.66
   3   8  -1   21.63    0.63
  -3  -8   1   22.22    0.61
  -3  -8   1   21.10    0.62
  -3  -8   1   21.52    0.65
  -3  -8   1   23.12    0.61
   2   8  -1    5.27    0.26
   2   8  -1    4.92    0.26
  -2  -8   1    5.45    0.25
  -2  -8   1    5.86    0.25
  -2  -8   1    4.80    0.26
  -2  -8   1    5.47    0.25
   1   8  -1   22.89    0.63
   1   8  -1   22.41    0.65
   1   8  -1   24.06    0.64
   1   8  -1   23.12    0.66
  -1  -8   1   23.72    0.64
  -1  -8   1   22.15    0.65
  -1  -8   1   21.95    0.63
  -1  -8   1   23.51    0.62
   0   8  -1   42.70    1.10
   0   8  -1   42.89    1.05
   0   8  -1   42.47    1.06
   0   8  -1   43.17    1.04
   0  -8   1   42.16    1.05
   0  -8   1   44.15    1.02
   0  -8   1   41.77    1.12
   0  -8   1   43.39    1.07
   0  -8   1   42.79    1.05
  -1   8  -1   12.86    0.40
  -1   8  -1   13.02    0.40
  -1   8  -1   12.44    0.47
  -1   8  -1   12.77    0.40
   1  -8   1   11.85    0.41
   1  -8   1   12.36    0.42
   1  -8   1   12.29    0.48
  -2   8  -1    3.32    0.26
  -2   8  -1    3.63    0.18
  -2   8  -1    3.64    0.19
  -2   8  -1    3.43    0.23
   2  -8   1    3.27    0.24
   2  -8   1    3.55    0.24
   2  -8   1    3.13    0.21
   2  -8   1    2.97    0.24
  -3   8  -1    1.68    0.22
  -3   8  -1    1.51    0.14
   3  -8   1    1.53    0.18
   3  -8   1    1.56    0.17
   3  -8   1    1.72    0.20
  -4   8  -1    0.17    0.07
  -4   8  -1   -0.01    0.13
   4  -8   1    0.00    0.12
   4  -8   1    0.10    0.10
   4  -8   1    0.26    0.13
  -5   8  -1    4.82    0.38
  -5   8  -1    5.07    0.21
   5  -8   1    4.33    0.30
   5  -8   1    4.77    0.30
   5  -8   1    4.85    0.33
  -6   8  -1   10.32    0.31
  -6   8  -1    9.67    0.52
   6  -8   1    9.37    0.48
   6  -8   1    8.74    0.45
  -7   8  -1   13.01    0.80
   7  -8   1   12.35    0.55
  -9  -7   1    1.66    0.21
  -9  -7   1    1.85    0.26
  -8  -7   1    4.72    0.31
  -8  -7   1    4.51    0.30
  -8  -7   1    4.61    0.33
  -7  -7   1   11.60    0.44
  -7  -7   1   11.81    0.45
  -7  -7   1   12.16    0.48
   6   7  -1   -0.04    0.09
  -6  -7   1    0.06    0.10
  -6  -7   1    0.02    0.09
  -6  -7   1    0.04    0.09
   5   7  -1    5.89    0.28
   5   7  -1    6.51    0.31
  -5  -7   1    7.13    0.36
  -5  -7   1    6.28    0.26
  -5  -7   1    5.94    0.29
  -5  -7   1    6.26    0.29
   4   7  -1    1.65    0.15
   4   7  -1    1.49    0.16
   4   7  -1    1.51    0.15
  -4  -7   1    1.57    0.15
  -4  -7   1    1.68    0.15
  -4  -7   1    1.57    0.14
  -4  -7   1    1.53    0.13
  -4  -7   1    1.45    0.16
   3   7  -1   11.68    0.41
   3   7  -1   12.32    0.40
  -3  -7   1   12.22    0.37
  -3  -7   1   12.07    0.37
  -3  -7   1   11.81    0.39
  -3  -7   1   11.37    0.36
  -3  -7   1   11.87    0.41
   2   7  -1    1.14    0.13
   2   7  -1    1.26    0.13
   2   7  -1    1.08    0.13
   2   7  -1    1.19    0.13
  -2  -7   1    1.00    0.11
  -2  -7   1    1.08    0.12
  -2  -7   1    1.28    0.12
  -2  -7   1    1.22    0.14
   1   7  -1   77.46    1.77
   1   7  -1   77.36    1.77
   1   7  -1   76.36    1.75
   1   7  -1   76.88    1.74
  -1  -7   1   77.09    1.74
  -1  -7   1   79.03    1.73
  -1  -7   1   75.20    1.72
  -1  -7   1   78.11    1.75
  -1  -7   1   74.53    1.76
   0   7  -1   40.58    1.03
   0   7  -1   41.66    0.98
   0   7  -1   41.10    1.00
   0   7  -1   40.44    0.99
   0  -7   1   42.29    0.97
   0  -7   1   41.05    0.99
   0  -7   1   40.90    1.00
   0  -7   1   39.18    0.98
   0  -7   1   40.94    1.01
  -1   7  -1    6.86    0.31
  -1   7  -1    6.93    0.26
  -1   7  -1    7.10    0.26
  -1   7  -1    6.86    0.25
   1  -7   1    6.68    0.32
   1  -7   1    7.18    0.29
   1  -7   1    6.35    0.26
   1  -7   1    7.30    0.29
  -2   7  -1   23.20    0.59
  -2   7  -1   22.73    0.59
  -2   7  -1   23.26    0.70
  -2   7  -1   23.46    0.60
   2  -7   1   23.63    0.69
   2  -7   1   23.68    0.66
   2  -7   1   22.20    0.64
   2  -7   1   23.84    0.63
  -3   7  -1    8.99    0.41
  -3   7  -1    9.44    0.30
   3  -7   1    9.59    0.35
   3  -7   1    9.80    0.37
   3  -7   1    9.67    0.39
   3  -7   1   10.54    0.39
  -4   7  -1    7.02    0.24
  -4   7  -1    6.03    0.36
   4  -7   1    6.88    0.34
   4  -7   1    6.73    0.30
   4  -7   1    7.04    0.32
  -5   7  -1    3.00    0.29
  -5   7  -1    3.08    0.15
   5  -7   1    3.16    0.28
   5  -7   1    3.04    0.24
   5  -7   1    2.94    0.23
  -6   7  -1    4.88    0.19
  -6   7  -1    5.46    0.39
   6  -7   1    5.02    0.32
   6  -7   1    5.20    0.35
  -7   7  -1    0.85    0.22
   7  -7   1    0.75    0.18
   7  -7   1    0.83    0.20
  -9  -6   1    5.52    0.38
  -9  -6   1    4.98    0.32
  -8  -6   1   10.90    0.48
  -8  -6   1   10.54    0.47
  -8  -6   1   10.25    0.41
  -7  -6   1    0.56    0.13
  -7  -6   1    0.79    0.16
  -7  -6   1    0.43    0.12
   6   6  -1   23.04    0.65
  -6  -6   1   22.21    0.64
  -6  -6   1   21.96    0.63
  -6  -6   1   22.09    0.66
   5   6  -1   13.20    0.42
   5   6  -1   12.62    0.48
  -5  -6   1   13.29    0.44
  -5  -6   1   13.27    0.44
  -5  -6   1   14.18    0.44
  -5  -6   1   13.72    0.40
  -5  -6   1   13.26    0.42
   4   6  -1    0.16    0.08
   4   6  -1    0.13    0.07
   4   6  -1    0.10    0.08
  -4  -6   1    0.08    0.07
  -4  -6   1    0.13    0.08
  -4  -6   1    0.18    0.08
  -4  -6   1    0.09    0.07
  -4  -6   1    0.19    0.06
  -4  -6   1    0.15    0.07
   3   6  -1    5.53    0.24
   3   6  -1    5.34    0.24
  -3  -6   1    5.45    0.22
  -3  -6   1    5.44    0.24
  -3  -6   1    5.57    0.23
  -3  -6   1    5.47    0.22
  -3  -6   1    5.27    0.21
  -3  -6   1    5.49    0.21
   2   6  -1   52.53    1.20
   2   6  -1   52.23    1.21
   2   6  -1   52.81    1.22
   2   6  -1   50.97    1.23
  -2  -6   1   52.25    1.18
  -2  -6   1   51.75    1.20
  -2  -6   1   52.75    1.21
  -2  -6   1   51.40    1.23
  -2  -6   1   50.96    1.19
   1   6  -1    8.45    0.28
   1   6  -1    8.69    0.28
   1   6  -1    8.32    0.29
   1   6  -1    8.14    0.29
  -1  -6   1    8.38    0.26
  -1  -6   1    8.70    0.28
  -1  -6   1    8.25    0.28
  -1  -6   1    7.79    0.29
  -1  -6   1    8.17    0.28
   0   6  -1    4.59    0.22
   0   6  -1    5.27    0.20
   0   6  -1    5.13    0.20
   0   6  -1    5.40    0.21
   0  -6   1    5.09    0.21
   0  -6   1    5.26    0.21
   0  -6   1    5.49    0.21
   0  -6   1    5.06    0.19
   0  -6   1    5.30    0.21
  -1   6  -1   39.60    0.94
  -1   6  -1   39.75    1.00
  -1   6  -1   39.18    0.93
  -1   6  -1   39.80    0.92
   1  -6   1   39.99    0.90
   1  -6   1   40.31    0.97
   1  -6   1   40.16    0.95
   1  -6   1   38.36    1.01
   1  -6   1   39.83    0.95
   1  -6   1   39.33    0.96
   1  -6   1   39.63    0.96
  -2   6  -1   23.34    0.68
  -2   6  -1   23.15    0.58
  -2   6  -1   23.59    0.59
  -2   6  -1   24.54    0.58
   2  -6   1   23.82    0.65
   2  -6   1   23.10    0.66
   2  -6   1   22.61    0.61
   2  -6   1   23.67    0.64
  -3   6  -1    0.12    0.09
  -3   6  -1    0.25    0.06
   3  -6   1    0.32    0.08
   3  -6   1    0.33    0.09
   3  -6   1    0.23    0.09
   3  -6   1    0.33    0.10
  -4   6  -1   11.21    0.45
  -4   6  -1   10.76    0.30
   4  -6   1   10.84    0.39
   4  -6   1   10.84    0.41
   4  -6   1   10.55    0.38
   4  -6   1    9.83    0.36
  -5   6  -1    1.64    0.10
  -5   6  -1    1.68    0.22
   5  -6   1    1.40    0.16
   5  -6   1    1.44    0.18
   5  -6   1    1.48    0.16
  -6   6  -1    2.29    0.27
  -6   6  -1    2.22    0.11
   6  -6   1    2.39    0.24
   6  -6   1    2.00    0.20
  -7   6  -1    1.88    0.26
   7  -6   1    1.84    0.23
   7  -6   1    2.01    0.23
  -8   6  -1    9.52    0.52
   8  -6   1    9.31    0.46
   8  -6   1    8.62    0.47
  -9  -5   1    5.70    0.39
  -9  -5   1    5.63    0.32
  -8  -5   1    1.16    0.16
  -8  -5   1    1.16    0.19
   7   5  -1   21.99    0.70
  -7  -5   1   20.70    0.61
  -7  -5   1   21.60    0.67
  -7  -5   1   20.82    0.61
   6   5  -1   37.74    0.96
  -6  -5   1   36.94    0.93
  -6  -5   1   37.77    0.95
  -6  -5   1   37.10    0.98
  -6  -5   1   37.43    0.94
   5   5  -1    4.99    0.22
  -5  -5   1    5.03    0.22
  -5  -5   1    4.64    0.22
  -5  -5   1    4.79    0.24
  -5  -5   1    5.12    0.24
   4   5  -1    2.47    0.15
   4   5  -1    2.20    0.16
  -4  -5   1    2.01    0.15
  -4  -5   1    2.09    0.15
  -4  -5   1    2.05    0.15
  -4  -5   1    2.13    0.13
  -4  -5   1    2.11    0.14
  -4  -5   1    2.22    0.12
   3   5  -1    0.14    0.06
   3   5  -1    0.11    0.07
  -3  -5   1    0.08    0.06
  -3  -5   1    0.03    0.05
  -3  -5   1    0.14    0.06
  -3  -5   1    0.13    0.06
  -3  -5   1    0.12    0.05
  -3  -5   1    0.07    0.05
   2   5  -1    6.81    0.24
   2   5  -1    6.91    0.26
  -2  -5   1    6.85    0.26
  -2  -5   1    7.48    0.23
  -2  -5   1    7.32    0.24
  -2  -5   1    7.43    0.24
   1   5  -1    0.00    0.04
   1   5  -1    0.11    0.05
   1   5  -1    0.07    0.05
   1   5  -1    0.05    0.05
  -1  -5   1    0.06    0.04
  -1  -5   1    0.11    0.05
  -1  -5   1    0.03    0.05
  -1  -5   1    0.05    0.05
   0   5  -1   31.36    0.74
   0   5  -1   31.20    0.78
   0   5  -1   30.88    0.75
   0   5  -1   30.72    0.74
   0  -5   1   31.24    0.73
   0  -5   1   30.19    0.75
   0  -5   1   31.12    0.75
   0  -5   1   30.88    0.74
   0  -5   1   32.83    0.87
  -1   5  -1  151.21    3.19
  -1   5  -1  150.60    3.26
  -1   5  -1  146.71    3.18
  -1   5  -1  149.42    3.19
  -1   5  -1  150.22    3.19
   1  -5   1  146.24    3.26
   1  -5   1  146.09    3.22
   1  -5   1  144.28    3.21
   1  -5   1  144.73    3.16
   1  -5   1  150.66    3.14
   1  -5   1  151.76    3.22
   1  -5   1  149.51    3.20
   1  -5   1  146.60    3.20
  -2   5  -1    5.01    0.18
  -2   5  -1    5.12    0.17
  -2   5  -1    5.39    0.25
  -2   5  -1    5.11    0.18
   2  -5   1    5.32    0.20
   2  -5   1    4.99    0.23
   2  -5   1    4.89    0.22
   2  -5   1    5.46    0.22
   2  -5   1    5.44    0.21
   2  -5   1    5.40    0.16
  -3   5  -1   61.40    1.37
   3  -5   1   63.08    1.41
   3  -5   1   63.60    1.46
   3  -5   1   63.47    1.45
   3  -5   1   60.99    1.46
   3  -5   1   61.91    1.42
  -4   5  -1   13.01    0.33
   4  -5   1   12.86    0.42
   4  -5   1   13.74    0.43
   4  -5   1   12.65    0.44
   4  -5   1   13.17    0.40
  -5   5  -1    5.24    0.16
   5  -5   1    5.20    0.27
   5  -5   1    5.45    0.26
   5  -5   1    4.55    0.27
  -6   5  -1    1.13    0.19
   6  -5   1    0.88    0.16
   6  -5   1    1.20    0.17
  -7   5  -1    0.09    0.13
   7  -5   1   -0.07    0.12
   7  -5   1    0.18    0.12
  -8   5  -1   -0.14    0.14
   8  -5   1   -0.07    0.13
   8  -5   1    0.11    0.14
  -9  -4   1    2.07    0.25
  -9  -4   1    1.86    0.19
  -8  -4   1    2.27    0.23
  -8  -4   1    2.38    0.20
   7   4  -1   19.97    0.60
  -7  -4   1   20.40    0.57
  -7  -4   1   19.87    0.63
  -7  -4   1   19.12    0.56
   6   4  -1    4.13    0.22
  -6  -4   1    4.32    0.21
  -6  -4   1    3.79    0.24
  -6  -4   1    4.23    0.21
  -6  -4   1    3.50    0.20
   5   4  -1   43.92    1.02
   5   4  -1   41.23    0.97
  -5  -4   1   40.79    1.00
  -5  -4   1   40.77    0.99
  -5  -4   1   41.13    1.02
  -5  -4   1   41.09    0.98
   4   4  -1   80.39    1.79
   4   4  -1   79.62    1.82
  -4  -4   1   81.72    1.80
  -4  -4   1   80.67    1.82
  -4  -4   1   82.29    1.82
  -4  -4   1   79.57    1.80
  -4  -4   1   80.70    1.75
   3   4  -1   -0.03    0.04
   3   4  -1    0.01    0.05
  -3  -4   1   -0.04    0.04
  -3  -4   1   -0.01    0.04
  -3  -4   1    0.04    0.05
  -3  -4   1    0.05    0.04
  -3  -4   1    0.04    0.04
   2   4  -1   24.47    0.59
   2   4  -1   23.63    0.59
   2   4  -1   23.50    0.60
  -2  -4   1   24.04    0.61
  -2  -4   1   24.78    0.57
  -2  -4   1   24.53    0.59
   1   4  -1    3.46    0.14
   1   4  -1    3.59    0.14
   1   4  -1    3.60    0.15
   1   4  -1    3.33    0.15
  -1  -4   1    3.24    0.14
  -1  -4   1    3.51    0.14
  -1  -4   1    3.51    0.13
  -1  -4   1    3.31    0.15
   0   4  -1    0.78    0.07
   0   4  -1    0.60    0.08
   0   4  -1    0.73    0.07
   0   4  -1    0.71    0.07
   0   4  -1    0.79    0.08
   0  -4   1    0.79    0.07
   0  -4   1    0.65    0.07
   0  -4   1    0.82    0.07
   0  -4   1    0.77    0.08
  -1   4  -1    8.31    0.28
  -1   4  -1    8.24    0.23
  -1   4  -1    8.52    0.24
  -1   4  -1    8.57    0.24
  -1   4  -1    8.37    0.23
   1  -4   1    8.34    0.29
   1  -4   1    8.23    0.26
   1  -4   1    8.22    0.24
   1  -4   1    8.32    0.21
   1  -4   1    8.37    0.26
   1  -4   1    8.36    0.22
   1  -4   1    7.75    0.26
  -2   4  -1   57.24    1.27
  -2   4  -1   55.56    1.30
  -2   4  -1   60.30    1.27
  -2   4  -1   59.97    1.28
  -2   4  -1   59.28    1.28
   2  -4   1   58.58    1.35
   2  -4   1   57.40    1.34
   2  -4   1   58.95    1.29
   2  -4   1   58.20    1.33
   2  -4   1   58.83    1.28
  -3   4  -1   55.67    1.24
  -3   4  -1   56.73    1.24
   3  -4   1   56.45    1.33
   3  -4   1   57.82    1.32
   3  -4   1   56.94    1.31
   3  -4   1   56.80    1.26
   3  -4   1   57.54    1.29
  -4   4  -1    0.11    0.06
  -4   4  -1    0.10    0.03
  -4   4  -1    0.10    0.03
   4  -4   1    0.09    0.07
   4  -4   1    0.09    0.07
   4  -4   1    0.10    0.06
   4  -4   1    0.07    0.06
   4  -4   1    0.02    0.05
  -5   4  -1   47.20    1.16
  -5   4  -1   48.33    1.05
  -5   4  -1   46.52    1.05
   5  -4   1   49.00    1.18
   5  -4   1   46.78    1.19
   5  -4   1   50.51    1.18
   5  -4   1   48.98    1.13
  -6   4  -1    3.12    0.22
   6  -4   1    3.24    0.19
   6  -4   1    3.12    0.22
   6  -4   1    2.98    0.21
   6  -4   1    3.31    0.24
  -7   4  -1    0.30    0.13
  -7   4  -1    0.31    0.14
   7  -4   1    0.49    0.13
   7  -4   1    0.18    0.12
   7  -4   1    0.14    0.15
  -8   4  -1    0.05    0.16
  -8   4  -1    0.01    0.13
   8  -4   1    0.04    0.13
   8  -4   1    0.04    0.12
   9  -4   1    3.17    0.29
 -10  -3   1    1.90    0.26
 -10  -3   1    1.84    0.19
  -9  -3   1    2.22    0.19
  -9  -3   1    2.43    0.26
   8   3  -1    1.10    0.16
  -8  -3   1    1.28    0.19
  -8  -3   1    0.92    0.13
   7   3  -1    3.97    0.23
  -7  -3   1    3.87    0.21
  -7  -3   1    3.81    0.19
  -7  -3   1    3.89    0.25
   6   3  -1   37.00    0.92
  -6  -3   1   35.98    0.88
  -6  -3   1   35.41    0.93
  -6  -3   1   35.23    0.87
  -6  -3   1   36.47    0.87
   5   3  -1   69.72    1.58
  -5  -3   1   68.49    1.56
  -5  -3   1   69.75    1.55
  -5  -3   1   68.38    1.59
  -5  -3   1   68.58    1.55
   4   3  -1   29.93    0.73
   4   3  -1   29.70    0.70
   4   3  -1   29.89    0.67
   4   3  -1   29.95    0.73
  -4  -3   1   29.03    0.71
  -4  -3   1   29.62    0.74
  -4  -3   1   29.28    0.72
  -4  -3   1   29.79    0.71
  -4  -3   1   29.38    0.66
  -4  -3   1   28.93    0.72
   3   3  -1   37.67    0.88
   3   3  -1   36.91    0.86
  -3  -3   1   37.75    0.83
  -3  -3   1   37.23    0.86
  -3  -3   1   37.65    0.88
  -3  -3   1   37.46    0.88
  -3  -3   1   37.07    0.86
   2   3  -1   10.79    0.31
   2   3  -1   10.72    0.29
  -2  -3   1   10.83    0.29
  -2  -3   1   10.74    0.30
  -2  -3   1   10.74    0.27
  -2  -3   1   10.68    0.29
   1   3  -1    0.24    0.05
   1   3  -1    0.32    0.05
   1   3  -1    0.26    0.04
   1   3  -1    0.25    0.05
  -1  -3   1    0.22    0.04
  -1  -3   1    0.27    0.04
  -1  -3   1    0.17    0.04
   0   3  -1   25.82    0.59
   0   3  -1   24.72    0.59
   0   3  -1   25.93    0.60
   0   3  -1   26.52    0.61
   0   3  -1   25.07    0.58
   0  -3   1   24.89    0.59
   0  -3   1   26.14    0.60
   0  -3   1   25.13    0.58
   0  -3   1   25.16    0.59
  -1   3  -1    0.07    0.03
  -1   3  -1    0.04    0.03
  -1   3  -1    0.08    0.03
  -1   3  -1    0.02    0.02
  -1   3  -1    0.11    0.05
   1  -3   1    0.05    0.04
   1  -3   1    0.20    0.06
   1  -3   1    0.07    0.03
   1  -3   1    0.10    0.04
  -2   3  -1   49.84    1.06
  -2   3  -1   48.15    1.06
   2  -3   1   49.78    1.13
   2  -3   1   48.64    1.08
   2  -3   1   50.28    1.07
   2  -3   1   50.05    1.12
   2  -3   1   47.52    1.12
  -3   3  -1    8.03    0.20
  -3   3  -1    8.04    0.20
   3  -3   1    8.14    0.26
   3  -3   1    7.53    0.27
   3  -3   1    8.07    0.27
   3  -3   1    8.33    0.24
  -4   3  -1   40.96    0.87
   4  -3   1   40.26    0.97
   4  -3   1   39.41    0.93
   4  -3   1   40.23    0.97
   4  -3   1   40.01    0.98
  -5   3  -1   39.22    0.99
  -5   3  -1   39.49    0.96
   5  -3   1   40.60    1.01
   5  -3   1   40.13    0.99
   5  -3   1   41.20    0.96
   5  -3   1   41.44    1.00
  -6   3  -1    0.04    0.07
  -6   3  -1   -0.17    0.10
  -6   3  -1    0.11    0.08
   6  -3   1    0.18    0.10
   6  -3   1    0.02    0.09
   6  -3   1    0.03    0.08
   6  -3   1    0.01    0.08
  -7   3  -1    1.15    0.16
   7  -3   1    0.98    0.15
   7  -3   1    0.96    0.13
   7  -3   1    0.99    0.15
   7  -3   1    1.05    0.15
  -8   3  -1    0.00    0.13
   8  -3   1   -0.02    0.11
   8  -3   1    0.00    0.11
   8  -3   1    0.23    0.13
  -9   3  -1    1.82    0.25
   9  -3   1    1.22    0.19
   9  -3   1    1.55    0.21
 -10  -2   1    3.99    0.26
 -10  -2   1    5.02    0.40
 -10  -2   1    4.63    0.37
   9   2  -1    0.31    0.14
  -9  -2   1    0.23    0.10
  -9  -2   1    0.23    0.14
   8   2  -1    0.73    0.14
  -8  -2   1    0.53    0.10
  -8  -2   1    1.00    0.17
   7   2  -1    0.09    0.10
   7   2  -1   -0.08    0.08
  -7  -2   1    0.08    0.10
  -7  -2   1    0.09    0.07
   6   2  -1    0.16    0.08
   6   2  -1    0.23    0.09
  -6  -2   1    0.28    0.07
  -6  -2   1    0.20    0.07
  -6  -2   1    0.31    0.09
   5   2  -1    0.46    0.09
   5   2  -1    0.55    0.08
   5   2  -1    0.45    0.09
  -5  -2   1    0.41    0.07
  -5  -2   1    0.42    0.07
  -5  -2   1    0.61    0.07
  -5  -2   1    0.46    0.08
   4   2  -1   61.01    1.32
   4   2  -1   60.34    1.35
   4   2  -1   58.69    1.35
   4   2  -1   59.58    1.36
   4   2  -1   59.01    1.31
  -4  -2   1   60.70    1.33
  -4  -2   1   59.25    1.33
  -4  -2   1   59.20    1.33
  -4  -2   1   60.67    1.35
  -4  -2   1   59.89    1.29
   3   2  -1  159.11    3.41
   3   2  -1  154.76    3.41
   3   2  -1  163.07    3.37
   3   2  -1  156.78    3.40
   3   2  -1  155.93    3.39
  -3  -2   1  161.09    3.41
  -3  -2   1  163.47    3.35
  -3  -2   1  155.97    3.39
  -3  -2   1  158.07    3.41
  -3  -2   1  157.09    3.39
  -3  -2   1  161.78    3.40
   2   2  -1   22.04    0.53
   2   2  -1   22.10    0.52
  -2  -2   1   22.51    0.50
  -2  -2   1   22.17    0.52
  -2  -2   1   22.03    0.52
  -2  -2   1   23.01    0.53
  -2  -2   1   22.76    0.53
   1   2  -1    9.51    0.25
   1   2  -1    9.52    0.25
  -1  -2   1    9.70    0.25
  -1  -2   1    9.69    0.24
  -1  -2   1    9.50    0.23
   0   2  -1   87.97    1.87
   0   2  -1   87.63    1.89
   0   2  -1   88.89    1.87
   0  -2   1   84.90    1.87
   0  -2   1   86.65    1.87
   0  -2   1   88.28    1.87
  -1   2  -1   84.97    1.78
  -1   2  -1   82.23    1.82
  -1   2  -1   84.11    1.78
  -1   2  -1   84.57    1.78
   1  -2   1   82.66    1.80
   1  -2   1   83.36    1.81
   1  -2   1   86.52    1.78
   1  -2   1   84.21    1.78
   1  -2   1   80.89    1.82
  -2   2  -1    1.02    0.04
  -2   2  -1    1.02    0.04
   2  -2   1    0.99    0.07
   2  -2   1    0.99    0.08
   2  -2   1    1.10    0.09
   2  -2   1    0.90    0.07
   3  -2   1   63.35    1.46
   3  -2   1   66.95    1.47
   3  -2   1   64.76    1.45
   3  -2   1   65.49    1.43
   4  -2   1  152.04    3.29
   4  -2   1  152.57    3.27
   4  -2   1  149.94    3.25
   4  -2   1  149.74    3.28
  -5   2  -1    3.32    0.17
  -5   2  -1    3.07    0.16
   5  -2   1    3.39    0.19
   5  -2   1    3.42    0.17
   5  -2   1    3.34    0.18
   5  -2   1    3.55    0.19
  -6   2  -1   21.14    0.59
   6  -2   1   21.40    0.60
   6  -2   1   20.42    0.60
   6  -2   1   21.11    0.58
   6  -2   1   20.98    0.61
  -7   2  -1    8.37    0.34
   7  -2   1    9.24    0.34
   7  -2   1    8.50    0.36
   7  -2   1    8.63    0.36
   7  -2   1    9.32    0.37
  -8   2  -1    0.32    0.14
  -8   2  -1    0.46    0.13
   8  -2   1    0.49    0.14
   8  -2   1    0.27    0.13
   8  -2   1    0.44    0.14
  -9   2  -1    1.31    0.22
  -9   2  -1    1.02    0.27
   9  -2   1    0.94    0.19
   9  -2   1    0.88    0.17
 -10  -1   1    2.87    0.33
 -10  -1   1    2.89    0.31
   9   1  -1    0.13    0.13
  -9  -1   1    0.15    0.09
  -9  -1   1   -0.07    0.12
   8   1  -1    4.84    0.29
  -8  -1   1    4.38    0.22
  -8  -1   1    5.70    0.32
   7   1  -1    1.07    0.14
   7   1  -1    1.03    0.15
  -7  -1   1    1.09    0.15
  -7  -1   1    1.24    0.11
   6   1  -1   60.33    1.40
   6   1  -1   58.97    1.40
  -6  -1   1   61.44    1.34
  -6  -1   1   57.41    1.41
   5   1  -1   23.25    0.61
   5   1  -1   23.66    0.61
   5   1  -1   22.86    0.58
  -5  -1   1   23.44    0.56
  -5  -1   1   22.80    0.56
  -5  -1   1   23.29    0.56
  -5  -1   1   22.78    0.62
   4   1  -1   84.69    1.80
   4   1  -1   80.35    1.82
   4   1  -1   82.62    1.80
   4   1  -1   81.84    1.82
  -4  -1   1   83.11    1.78
  -4  -1   1   80.93    1.78
  -4  -1   1   83.66    1.75
  -4  -1   1   83.94    1.80
  -4  -1   1   78.01    1.82
  -4  -1   1   82.14    1.78
   3   1  -1   41.27    0.93
   3   1  -1   42.10    0.93
   3   1  -1   41.69    0.95
   3   1  -1   41.38    0.91
   3   1  -1   39.42    0.94
  -3  -1   1   42.05    0.93
  -3  -1   1   42.03    0.92
  -3  -1   1   42.69    0.94
  -3  -1   1   40.47    0.95
  -3  -1   1   42.02    0.92
   2   1  -1   46.34    1.01
   2   1  -1   44.49    0.99
   2   1  -1   44.36    0.99
   2   1  -1   44.69    0.98
   2   1  -1   44.16    0.98
   2   1  -1   45.98    0.99
  -2  -1   1   45.32    0.99
  -2  -1   1   44.20    0.98
  -2  -1   1   43.12    0.98
  -2  -1   1   45.03    0.99
   1   1  -1   90.20    1.95
   1   1  -1   90.40    1.97
  -1  -1   1   93.14    1.95
  -1  -1   1   91.29    1.95
   0   1  -1  103.85    2.16
   0   1  -1  100.98    2.16
   0  -1   1  103.79    2.16
   0  -1   1  100.15    2.17
  -1   1  -1   24.53    0.56
   1  -1   1   24.18    0.55
   1  -1   1   24.67    0.53
   2  -1   1    2.91    0.11
   2  -1   1    2.90    0.11
   2  -1   1    2.84    0.12
   2  -1   1    2.66    0.11
  -3   1  -1   31.84    0.73
   3  -1   1   31.48    0.75
   3  -1   1   31.43    0.74
   3  -1   1   31.52    0.73
   3  -1   1   31.32    0.73
  -4   1  -1    1.37    0.10
   4  -1   1    1.30    0.11
   4  -1   1    1.28    0.10
   4  -1   1    1.35    0.12
   4  -1   1    1.37    0.10
  -5   1  -1   50.51    1.17
  -5   1  -1   48.40    1.09
  -5   1  -1   50.31    1.19
  -5   1  -1   50.31    1.09
   5  -1   1   51.06    1.20
   5  -1   1   50.19    1.18
   5  -1   1   51.75    1.19
   5  -1   1   52.73    1.19
  -6   1  -1   24.33    0.57
  -6   1  -1   24.72    0.67
  -6   1  -1   25.02    0.56
   6  -1   1   25.17    0.69
   6  -1   1   25.45    0.67
   6  -1   1   25.08    0.67
   6  -1   1   23.93    0.66
  -7   1  -1    3.21    0.13
  -7   1  -1    3.21    0.22
   7  -1   1    3.31    0.22
   7  -1   1    3.30    0.21
   7  -1   1    2.75    0.20
   7  -1   1    2.95    0.22
  -8   1  -1    3.92    0.27
  -8   1  -1    3.70    0.15
   8  -1   1    3.99    0.26
   8  -1   1    3.38    0.25
   8  -1   1    3.91    0.28
  -9   1  -1    1.61    0.23
  -9   1  -1    1.48    0.21
   9  -1   1    1.81    0.21
   9  -1   1    1.56    0.20
 -10   1  -1    0.36    0.19
 -10   1  -1    0.38    0.17
  10  -1   1    0.35    0.17
  10   0  -1    0.58    0.18
 -10   0   1    0.42    0.11
 -10   0   1    0.63    0.21
 -10   0   1    0.56    0.19
   9   0  -1    4.66    0.32
  -9   0   1    4.81    0.23
  -9   0   1    4.92    0.33
  -9   0   1    5.01    0.37
   8   0  -1    7.35    0.35
   8   0  -1    7.88    0.36
  -8   0   1    7.66    0.37
  -8   0   1    8.29    0.28
   7   0  -1    0.80    0.14
   7   0  -1    0.89    0.14
  -7   0   1    1.18    0.10
  -7   0   1    0.91    0.14
   6   0  -1    0.13    0.07
   6   0  -1   -0.06    0.08
   6   0  -1    0.16    0.08
  -6   0   1    0.00    0.04
  -6   0   1    0.04    0.07
   5   0  -1    0.08    0.06
   5   0  -1    0.15    0.06
   5   0  -1    0.23    0.07
   5   0  -1    0.26    0.07
  -5   0   1    0.21    0.07
  -5   0   1    0.10    0.04
   4   0  -1    1.55    0.11
   4   0  -1    1.52    0.11
   4   0  -1    1.52    0.11
   4   0  -1    1.51    0.11
   4   0  -1    1.66    0.09
  -4   0   1    1.49    0.08
  -4   0   1    1.62    0.08
  -4   0   1    1.49    0.08
  -4   0   1    1.43    0.11
  -4   0   1    1.44    0.08
  -4   0   1    1.45    0.07
  -4   0   1    1.48    0.08
   3   0  -1   30.40    0.71
   3   0  -1   29.62    0.70
   3   0  -1   30.43    0.68
   3   0  -1   30.28    0.70
  -3   0   1   30.03    0.67
  -3   0   1   29.79    0.67
  -3   0   1   30.36    0.67
  -3   0   1   30.95    0.68
   2   0  -1  409.01    8.31
   2   0  -1  395.91    8.30
   2   0  -1  399.63    8.32
   2   0  -1  385.56    8.33
   2   0  -1  391.02    8.35
   2   0  -1  397.66    8.32
  -2   0   1  385.37    8.30
  -2   0   1  387.87    8.33
  -2   0   1  390.83    8.30
   1   0  -1   99.80    2.17
   1   0  -1  102.82    2.15
  -1   0   1  102.33    2.15
  -1   0   1  100.86    2.15
   0   0  -1   16.18    0.36
   0   0  -1   15.92    0.36
  -1   0  -1  114.69    2.39
  -1   0  -1  111.93    2.41
  -1   0  -1  111.23    2.40
   1   0   1  115.11    2.40
   1   0   1  116.14    2.39
  -2   0  -1   35.64    0.77
  -2   0  -1   36.32    0.80
   2   0   1   37.24    0.82
   2   0   1   36.03    0.80
   2   0   1   36.60    0.80
   2   0   1   35.39    0.80
  -3   0  -1   15.62    0.36
  -3   0  -1   15.29    0.36
  -3   0  -1   15.22    0.40
   3   0   1   15.50    0.40
   3   0   1   16.21    0.36
   3   0   1   15.63    0.42
   3   0   1   16.01    0.40
   3   0   1   17.34    0.41
   3   0   1   16.50    0.36
  -4   0  -1    0.41    0.04
  -4   0  -1    0.52    0.07
  -4   0  -1    0.38    0.04
   4   0   1    0.51    0.07
   4   0   1    0.37    0.06
   4   0   1    0.42    0.06
   4   0   1    0.41    0.08
   4   0   1    0.43    0.04
  -5   0  -1   32.41    0.80
  -5   0  -1   33.81    0.75
  -5   0  -1   34.38    0.75
  -5   0  -1   34.14    0.84
   5   0   1   34.04    0.82
   5   0   1   34.28    0.85
   5   0   1   34.12    0.82
   5   0   1   34.35    0.83
  -6   0  -1    0.41    0.06
  -6   0  -1    0.30    0.09
   6   0   1    0.40    0.09
   6   0   1    0.40    0.09
   6   0   1    0.50    0.11
   6   0   1    0.36    0.08
  -7   0  -1   34.02    0.90
  -7   0  -1   33.83    0.78
   7   0   1   34.71    0.92
   7   0   1   32.41    0.87
   7   0   1   34.45    0.88
  -8   0  -1   30.63    0.85
  -8   0  -1   29.28    0.70
   8   0   1   28.03    0.85
   8   0   1   29.05    0.80
   8   0   1   29.56    0.83
  -9   0  -1    0.24    0.08
  -9   0  -1    0.21    0.14
   9   0   1    0.15    0.13
 -10   0  -1    0.55    0.18
 -10   0  -1    0.23    0.18
 -10   0  -1    0.37    0.08
  10   0   1    0.42    0.17
   9  -1  -1   12.83    0.52
  -9   1   1   13.94    0.57
  -9   1   1   13.10    0.52
  -9   1   1   13.10    0.39
   8  -1  -1    0.16    0.12
   8  -1  -1    0.21    0.12
  -8   1   1   -0.01    0.06
  -8   1   1    0.11    0.12
  -8   1   1    0.04    0.11
   7  -1  -1   21.65    0.65
   7  -1  -1   21.86    0.63
   7  -1  -1   21.95    0.64
   7  -1  -1   22.51    0.65
  -7   1   1   21.95    0.65
  -7   1   1   22.68    0.69
  -7   1   1   21.89    0.56
   6  -1  -1    0.25    0.09
   6  -1  -1    0.44    0.10
   6  -1  -1    0.32    0.10
   6  -1  -1    0.29    0.09
  -6   1   1    0.46    0.07
  -6   1   1    0.29    0.09
   5  -1  -1    3.10    0.17
   5  -1  -1    3.04    0.17
   5  -1  -1    3.07    0.17
   5  -1  -1    2.90    0.16
  -5   1   1    3.11    0.17
  -5   1   1    2.99    0.12
   4  -1  -1    0.41    0.07
   4  -1  -1    0.38    0.07
   4  -1  -1    0.43    0.05
   4  -1  -1    0.38    0.07
   4  -1  -1    0.45    0.07
  -4   1   1    0.35    0.05
  -4   1   1    0.38    0.05
  -4   1   1    0.39    0.06
   3  -1  -1  140.39    3.09
   3  -1  -1  149.84    3.12
   3  -1  -1  147.69    3.08
   3  -1  -1  147.90    3.12
   3  -1  -1  142.14    3.10
  -3   1   1  144.63    3.07
  -3   1   1  139.96    3.07
   2  -1  -1   36.45    0.80
   2  -1  -1   36.18    0.82
   2  -1  -1   34.92    0.82
   2  -1  -1   36.77    0.80
   2  -1  -1   37.90    0.80
  -2   1   1   35.83    0.79
  -2   1   1   35.93    0.79
  -2   1   1   36.15    0.79
   1  -1  -1    0.43    0.04
   1  -1  -1    0.43    0.05
   1  -1  -1    0.41    0.04
   1  -1  -1    0.48    0.05
  -1   1   1    0.35    0.05
  -1   1   1    0.38    0.04
   0  -1  -1  147.73    3.13
   0  -1  -1  147.37    3.12
   0  -1  -1  148.50    3.14
   0   1   1  148.37    3.14
  -1  -1  -1  153.46    3.26
  -1  -1  -1  155.26    3.27
  -1  -1  -1  154.77    3.26
   1   1   1  154.25    3.26
  -2  -1  -1   91.00    1.94
  -2  -1  -1   88.80    1.93
  -2  -1  -1   92.26    1.94
  -2  -1  -1   88.94    1.94
   2   1   1   89.83    1.95
   2   1   1   90.82    1.97
   2   1   1   93.11    1.94
   2   1   1   92.32    1.94
  -3  -1  -1    5.59    0.16
  -3  -1  -1    5.49    0.15
  -3  -1  -1    5.54    0.17
  -3  -1  -1    5.84    0.16
   3   1   1    5.59    0.17
   3   1   1    5.67    0.20
   3   1   1    5.40    0.18
   3   1   1    5.69    0.16
   3   1   1    5.69    0.16
  -4  -1  -1    0.30    0.04
  -4  -1  -1    0.31    0.05
  -4  -1  -1    0.27    0.04
  -4  -1  -1    0.23    0.04
  -4  -1  -1    0.19    0.03
  -4  -1  -1    0.18    0.06
  -4  -1  -1    0.28    0.04
   4   1   1    0.19    0.05
   4   1   1    0.25    0.06
   4   1   1    0.24    0.04
   4   1   1    0.29    0.05
   4   1   1    0.29    0.07
  -5  -1  -1    2.67    0.11
  -5  -1  -1    2.73    0.13
  -5  -1  -1    2.42    0.16
   5   1   1    3.07    0.14
   5   1   1    2.66    0.18
   5   1   1    2.72    0.14
   5   1   1    2.54    0.16
  -6  -1  -1    6.42    0.28
  -6  -1  -1    6.44    0.21
   6   1   1    6.38    0.27
   6   1   1    6.51    0.29
   6   1   1    6.53    0.25
  -7  -1  -1    8.74    0.36
  -7  -1  -1    9.02    0.27
   7   1   1    8.60    0.37
   7   1   1    9.40    0.34
   7   1   1    9.15    0.35
  -8  -1  -1    2.48    0.15
  -8  -1  -1    2.32    0.22
   8   1   1    1.95    0.19
   8   1   1    2.51    0.22
  -9  -1  -1    2.77    0.17
  -9  -1  -1    2.55    0.26
   9   1   1    2.87    0.26
 -10  -1  -1    7.03    0.43
 -10  -1  -1    7.22    0.28
  10   1   1    7.30    0.42
   9  -2  -1    0.55    0.17
  -9   2   1    0.53    0.19
   8  -2  -1    9.99    0.41
   8  -2  -1    9.57    0.42
  -8   2   1   10.08    0.30
  -8   2   1   10.13    0.46
  -8   2   1   10.85    0.42
   7  -2  -1   27.96    0.79
   7  -2  -1   28.42    0.76
   7  -2  -1   27.84    0.79
  -7   2   1   27.49    0.67
  -7   2   1   28.36    0.82
  -7   2   1   28.15    0.77
   6  -2  -1    1.15    0.13
   6  -2  -1    1.38    0.15
   6  -2  -1    1.29    0.15
   6  -2  -1    1.06    0.12
  -6   2   1    1.30    0.14
  -6   2   1    1.12    0.09
  -6   2   1    1.27    0.15
   5  -2  -1    5.59    0.25
   5  -2  -1    5.59    0.22
   5  -2  -1    5.70    0.23
  -5   2   1    5.24    0.18
  -5   2   1    5.59    0.22
  -5   2   1    5.98    0.25
   4  -2  -1    7.45    0.24
   4  -2  -1    7.25    0.26
   4  -2  -1    7.36    0.24
   4  -2  -1    7.16    0.26
  -4   2   1    7.27    0.27
  -4   2   1    7.48    0.21
  -4   2   1    7.02    0.20
  -4   2   1    7.67    0.24
   3  -2  -1    0.49    0.05
   3  -2  -1    0.42    0.05
   3  -2  -1    0.42    0.07
   3  -2  -1    0.44    0.06
   3  -2  -1    0.39    0.07
  -3   2   1    0.62    0.05
  -3   2   1    0.49    0.05
   2  -2  -1    0.10    0.03
   2  -2  -1    0.10    0.04
   2  -2  -1    0.10    0.04
   2  -2  -1    0.12    0.04
   2  -2  -1    0.12    0.03
   2  -2  -1    0.13    0.03
  -2   2   1    0.14    0.03
  -2   2   1    0.13    0.03
  -2   2   1    0.09    0.03
   1  -2  -1  133.95    2.82
   1  -2  -1  129.95    2.82
   1  -2  -1  132.18    2.83
   1  -2  -1  137.14    2.82
   1  -2  -1  128.21    2.84
  -1   2   1  137.12    2.82
  -1   2   1  132.49    2.81
  -1   2   1  131.75    2.82
   0  -2  -1  131.43    2.70
   0  -2  -1  122.82    2.69
   0  -2  -1  128.36    2.70
   0  -2  -1  125.81    2.71
   0  -2  -1  125.39    2.69
   0   2   1  126.29    2.69
   0   2   1  126.33    2.69
  -1  -2  -1   13.08    0.32
  -1  -2  -1   13.16    0.33
  -1  -2  -1   12.97    0.32
   1   2   1   13.39    0.32
   1   2   1   12.92    0.32
  -2  -2  -1  110.01    2.35
  -2  -2  -1  108.32    2.34
  -2  -2  -1  109.45    2.35
  -2  -2  -1  107.67    2.34
  -2  -2  -1  107.71    2.34
   2   2   1  112.64    2.35
   2   2   1  109.86    2.35
   2   2   1  112.37    2.34
  -3  -2  -1    0.23    0.05
  -3  -2  -1    0.22    0.04
  -3  -2  -1    0.35    0.05
  -3  -2  -1    0.30    0.04
  -3  -2  -1    0.30    0.05
  -3  -2  -1    0.21    0.04
   3   2   1    0.38    0.05
   3   2   1    0.32    0.04
   3   2   1    0.24    0.04
   3   2   1    0.57    0.07
   3   2   1    0.24    0.05
  -4  -2  -1   20.93    0.51
  -4  -2  -1   21.29    0.51
  -4  -2  -1   20.41    0.55
  -4  -2  -1   21.80    0.51
  -4  -2  -1   21.13    0.51
  -4  -2  -1   21.26    0.51
   4   2   1   20.93    0.54
   4   2   1   21.46    0.49
   4   2   1   21.95    0.52
   4   2   1   21.04    0.56
   4   2   1   20.80    0.55
   4   2   1   20.62    0.52
  -5  -2  -1    0.14    0.04
  -5  -2  -1    0.03    0.04
  -5  -2  -1    0.07    0.05
  -5  -2  -1    0.08    0.06
  -5  -2  -1   -0.03    0.04
   5   2   1    0.02    0.07
   5   2   1    0.09    0.05
   5   2   1    0.14    0.06
  -6  -2  -1   19.12    0.56
  -6  -2  -1   19.17    0.49
   6   2   1   18.56    0.52
   6   2   1   18.96    0.54
  -7  -2  -1    2.87    0.23
  -7  -2  -1    3.39    0.16
   7   2   1    3.07    0.23
   7   2   1    2.91    0.19
  -8  -2  -1    6.69    0.26
  -8  -2  -1    6.87    0.35
   8   2   1    6.53    0.34
  -9  -2  -1   23.89    0.76
  -9  -2  -1   23.51    0.63
   9   2   1   22.46    0.73
 -10  -2  -1    1.43    0.24
 -10  -2  -1    1.22    0.15
  10   2   1    1.12    0.22
   9  -3  -1    2.03    0.25
  -9   3   1    2.70    0.29
   8  -3  -1   12.26    0.46
   8  -3  -1   12.15    0.49
   8  -3  -1   11.67    0.49
  -8   3   1   12.77    0.52
  -8   3   1   12.46    0.33
   7  -3  -1    1.15    0.17
   7  -3  -1    0.95    0.14
   7  -3  -1    0.80    0.15
  -7   3   1    0.87    0.08
  -7   3   1    0.91    0.16
   6  -3  -1   10.53    0.35
   6  -3  -1   10.31    0.39
   6  -3  -1    9.67    0.38
  -6   3   1    9.84    0.28
  -6   3   1    9.81    0.39
  -6   3   1   10.23    0.36
   5  -3  -1   12.21    0.36
   5  -3  -1   11.84    0.41
   5  -3  -1   11.97    0.40
   5  -3  -1   12.72    0.38
  -5   3   1   11.96    0.41
  -5   3   1   12.03    0.36
  -5   3   1   12.63    0.32
   4  -3  -1   13.59    0.38
   4  -3  -1   12.52    0.41
   4  -3  -1   13.14    0.36
   4  -3  -1   13.63    0.40
  -4   3   1   13.46    0.36
  -4   3   1   12.96    0.33
  -4   3   1   13.10    0.40
  -4   3   1   13.18    0.33
   3  -3  -1   14.53    0.38
   3  -3  -1   14.77    0.37
   3  -3  -1   14.29    0.41
   3  -3  -1   14.70    0.42
   3  -3  -1   14.52    0.37
  -3   3   1   14.85    0.36
  -3   3   1   14.88    0.35
   2  -3  -1   24.88    0.57
   2  -3  -1   24.48    0.55
   2  -3  -1   23.33    0.58
   2  -3  -1   23.72    0.60
   2  -3  -1   23.80    0.59
   2  -3  -1   25.71    0.57
  -2   3   1   24.29    0.56
  -2   3   1   24.52    0.57
  -2   3   1   23.81    0.55
   1  -3  -1    1.06    0.08
   1  -3  -1    1.21    0.06
   1  -3  -1    1.31    0.08
   1  -3  -1    1.11    0.08
   1  -3  -1    1.26    0.08
  -1   3   1    1.16    0.07
  -1   3   1    1.09    0.07
  -1   3   1    1.07    0.07
   0  -3  -1    0.07    0.03
   0  -3  -1    0.01    0.03
   0  -3  -1    0.09    0.03
   0  -3  -1    0.07    0.03
   0  -3  -1    0.04    0.03
   0   3   1    0.08    0.03
   0   3   1    0.11    0.04
   0   3   1    0.10    0.03
  -1  -3  -1  384.19    8.06
  -1  -3  -1  377.64    8.06
  -1  -3  -1  382.35    8.01
   1   3   1  387.04    8.07
   1   3   1  372.79    8.05
  -2  -3  -1  151.20    3.26
  -2  -3  -1  153.32    3.26
  -2  -3  -1  151.45    3.27
  -2  -3  -1  152.37    3.26
  -2  -3  -1  152.60    3.27
   2   3   1  156.69    3.25
   2   3   1  151.63    3.27
   2   3   1  152.75    3.26
  -3  -3  -1   31.70    0.75
  -3  -3  -1   33.79    0.76
  -3  -3  -1   32.96    0.78
  -3  -3  -1   32.52    0.77
  -3  -3  -1   33.27    0.76
  -3  -3  -1   33.11    0.77
   3   3   1   32.53    0.76
   3   3   1   32.79    0.78
   3   3   1   33.47    0.76
  -4  -3  -1   14.91    0.41
  -4  -3  -1   14.94    0.39
  -4  -3  -1   15.62    0.40
  -4  -3  -1   15.14    0.43
  -4  -3  -1   14.87    0.40
  -4  -3  -1   15.51    0.40
   4   3   1   14.79    0.41
   4   3   1   15.28    0.38
   4   3   1   15.09    0.40
   4   3   1   15.33    0.43
   4   3   1   15.05    0.41
  -5  -3  -1    0.02    0.05
  -5  -3  -1   -0.01    0.06
  -5  -3  -1    0.02    0.04
  -5  -3  -1   -0.02    0.05
  -5  -3  -1   -0.06    0.04
   5   3   1   -0.01    0.06
   5   3   1    0.02    0.05
   5   3   1    0.01    0.06
  -6  -3  -1    5.32    0.26
  -6  -3  -1    5.24    0.21
  -6  -3  -1    5.24    0.20
   6   3   1    4.72    0.24
   6   3   1    5.38    0.22
  -7  -3  -1    2.90    0.23
  -7  -3  -1    2.84    0.17
   7   3   1    2.71    0.22
  -8  -3  -1    8.79    0.32
  -8  -3  -1    9.12    0.41
   8   3   1    9.20    0.40
  -9  -3  -1    5.37    0.27
  -9  -3  -1    6.32    0.37
   9   3   1    7.04    0.38
 -10  -3  -1    2.28    0.28
 -10  -3  -1    1.99    0.19
   9  -4  -1    2.01    0.26
   9  -4  -1    2.26    0.29
  -9   4   1    3.09    0.32
   8  -4  -1    0.24    0.14
   8  -4  -1    0.11    0.15
  -8   4   1    0.13    0.14
   7  -4  -1   15.64    0.57
   7  -4  -1   16.78    0.56
  -7   4   1   15.96    0.40
  -7   4   1   15.51    0.56
   6  -4  -1   27.57    0.78
   6  -4  -1   27.55    0.80
  -6   4   1   28.34    0.65
  -6   4   1   27.71    0.79
   5  -4  -1    0.74    0.09
   5  -4  -1    0.72    0.12
   5  -4  -1    0.56    0.12
  -5   4   1    1.05    0.08
  -5   4   1    0.99    0.13
   4  -4  -1    3.34    0.15
   4  -4  -1    3.13    0.16
   4  -4  -1    3.12    0.20
   4  -4  -1    3.11    0.18
  -4   4   1    3.40    0.13
  -4   4   1    3.60    0.19
   3  -4  -1   30.51    0.77
   3  -4  -1   30.24    0.75
   3  -4  -1   31.21    0.72
   3  -4  -1   29.70    0.69
  -3   4   1   29.93    0.70
  -3   4   1   30.13    0.70
  -3   4   1   29.75    0.69
  -3   4   1   30.69    0.68
   2  -4  -1    5.84    0.19
   2  -4  -1    5.71    0.21
   2  -4  -1    5.37    0.20
   2  -4  -1    5.48    0.22
   2  -4  -1    6.00    0.16
   2  -4  -1    5.68    0.19
  -2   4   1    5.63    0.18
  -2   4   1    5.70    0.18
  -2   4   1    5.75    0.18
  -2   4   1    5.72    0.18
   1  -4  -1    0.02    0.03
   1  -4  -1    0.06    0.04
   1  -4  -1    0.02    0.04
   1  -4  -1    0.04    0.05
   1  -4  -1    0.04    0.05
   1  -4  -1    0.04    0.05
  -1   4   1    0.08    0.04
  -1   4   1   -0.02    0.03
  -1   4   1    0.16    0.04
  -1   4   1    0.03    0.04
   0  -4  -1  112.47    2.41
   0  -4  -1  108.56    2.39
   0  -4  -1  108.96    2.40
   0  -4  -1  110.47    2.38
   0  -4  -1  112.26    2.39
   0   4   1  109.51    2.39
   0   4   1  111.33    2.39
   0   4   1  108.51    2.40
   0   4   1  115.58    2.40
  -1  -4  -1  133.60    2.87
  -1  -4  -1  130.47    2.87
  -1  -4  -1  137.73    2.84
  -1  -4  -1  135.41    2.88
   1   4   1  128.51    2.88
   1   4   1  131.31    2.87
   1   4   1  136.90    2.87
  -2  -4  -1   25.30    0.61
  -2  -4  -1   24.75    0.61
  -2  -4  -1   25.13    0.61
  -2  -4  -1   24.90    0.63
   2   4   1   25.96    0.58
   2   4   1   25.06    0.63
   2   4   1   25.77    0.58
   2   4   1   26.07    0.61
  -3  -4  -1  108.43    2.27
  -3  -4  -1  101.49    2.26
  -3  -4  -1  104.56    2.29
  -3  -4  -1  101.45    2.27
  -3  -4  -1  107.49    2.28
   3   4   1  105.92    2.30
   3   4   1  101.34    2.27
   3   4   1  104.22    2.26
  -4  -4  -1   29.97    0.75
  -4  -4  -1   30.71    0.81
  -4  -4  -1   30.12    0.73
  -4  -4  -1   30.14    0.71
  -4  -4  -1   29.36    0.73
  -4  -4  -1   30.24    0.75
   4   4   1   29.90    0.76
   4   4   1   30.61    0.73
   4   4   1   30.90    0.72
   4   4   1   30.69    0.75
   4   4   1   29.70    0.72
  -5  -4  -1    4.38    0.19
  -5  -4  -1    4.26    0.19
  -5  -4  -1    4.63    0.19
  -5  -4  -1    4.25    0.21
  -5  -4  -1    4.56    0.19
  -5  -4  -1    4.07    0.17
   5   4   1    4.27    0.17
   5   4   1    4.09    0.22
   5   4   1    4.04    0.20
   5   4   1    4.42    0.19
  -6  -4  -1    0.95    0.11
  -6  -4  -1    1.10    0.12
  -6  -4  -1    1.09    0.12
  -6  -4  -1    1.07    0.14
   6   4   1    0.95    0.13
  -7  -4  -1    0.03    0.10
  -7  -4  -1    0.03    0.08
  -7  -4  -1    0.06    0.07
   7   4   1    0.03    0.10
  -8  -4  -1    7.91    0.32
  -8  -4  -1    8.29    0.39
   8   4   1    8.14    0.38
  -9  -4  -1    1.50    0.22
  -9  -4  -1    1.64    0.17
   9   4   1    1.64    0.23
 -10  -4  -1    7.89    0.46
 -10  -4  -1    7.93    0.35
   8  -5  -1    0.47    0.16
   8  -5  -1    0.73    0.18
  -8   5   1    0.59    0.18
   7  -5  -1   11.96    0.48
   7  -5  -1   11.02    0.48
  -7   5   1   11.75    0.48
  -7   5   1   11.98    0.32
   6  -5  -1    4.60    0.28
   6  -5  -1    5.12    0.30
  -6   5   1    4.82    0.29
  -6   5   1    4.43    0.17
   5  -5  -1   20.50    0.63
   5  -5  -1   19.06    0.60
  -5   5   1   21.02    0.50
  -5   5   1   20.63    0.61
   4  -5  -1   29.07    0.80
   4  -5  -1   29.67    0.78
   4  -5  -1   30.16    0.74
  -4   5   1   28.77    0.77
  -4   5   1   29.66    0.69
   3  -5  -1   15.12    0.41
   3  -5  -1   14.55    0.46
   3  -5  -1   14.50    0.41
   3  -5  -1   14.66    0.44
  -3   5   1   15.46    0.37
  -3   5   1   14.78    0.39
  -3   5   1   15.04    0.45
   2  -5  -1    4.89    0.19
   2  -5  -1    4.83    0.19
   2  -5  -1    5.01    0.22
   2  -5  -1    4.92    0.19
   2  -5  -1    5.10    0.20
   2  -5  -1    4.54    0.20
  -2   5   1    4.54    0.17
  -2   5   1    5.12    0.18
  -2   5   1    5.08    0.18
   1  -5  -1    5.21    0.16
   1  -5  -1    4.59    0.20
   1  -5  -1    4.77    0.20
   1  -5  -1    4.73    0.19
   1  -5  -1    5.02    0.19
   1  -5  -1    4.85    0.19
  -1   5   1    4.96    0.18
  -1   5   1    5.03    0.18
  -1   5   1    4.85    0.18
  -1   5   1    4.74    0.18
   0  -5  -1    2.22    0.12
   0  -5  -1    2.31    0.12
   0  -5  -1    2.36    0.13
   0  -5  -1    2.08    0.11
   0  -5  -1    2.33    0.13
   0   5   1    2.19    0.12
   0   5   1    2.22    0.12
   0   5   1    2.31    0.13
  -1  -5  -1    2.77    0.12
  -1  -5  -1    2.80    0.14
  -1  -5  -1    2.84    0.15
  -1  -5  -1    2.82    0.13
   1   5   1    2.98    0.14
   1   5   1    2.82    0.15
   1   5   1    2.95    0.14
  -2  -5  -1   94.49    2.08
  -2  -5  -1   93.99    2.08
  -2  -5  -1   96.01    2.08
  -2  -5  -1   93.96    2.11
  -2  -5  -1   92.77    2.03
  -2  -5  -1   95.99    2.09
   2   5   1   95.12    2.11
   2   5   1   94.34    2.09
   2   5   1   97.55    2.06
   2   5   1   96.08    2.08
  -3  -5  -1  118.09    2.58
  -3  -5  -1  114.85    2.56
  -3  -5  -1  120.48    2.58
  -3  -5  -1  119.15    2.57
  -3  -5  -1  120.77    2.57
  -3  -5  -1  119.53    2.60
   3   5   1  116.09    2.63
   3   5   1  116.65    2.60
   3   5   1  117.69    2.58
   3   5   1  116.38    2.55
  -4  -5  -1    1.38    0.12
  -4  -5  -1    1.66    0.13
  -4  -5  -1    1.65    0.12
  -4  -5  -1    1.50    0.13
  -4  -5  -1    1.60    0.12
  -4  -5  -1    1.48    0.13
   4   5   1    1.51    0.12
   4   5   1    1.70    0.13
   4   5   1    1.39    0.13
   4   5   1    1.50    0.14
  -5  -5  -1   28.55    0.71
  -5  -5  -1   29.23    0.75
  -5  -5  -1   28.29    0.70
  -5  -5  -1   29.26    0.73
  -5  -5  -1   28.01    0.73
  -5  -5  -1   29.05    0.76
   5   5   1   28.59    0.76
   5   5   1   28.79    0.73
   5   5   1   28.51    0.71
   5   5   1   29.91    0.76
  -6  -5  -1    0.19    0.08
  -6  -5  -1    0.05    0.07
  -6  -5  -1    0.04    0.09
  -6  -5  -1    0.03    0.07
  -6  -5  -1    0.06    0.07
   6   5   1    0.13    0.10
   6   5   1    0.03    0.08
  -7  -5  -1    3.37    0.21
  -7  -5  -1    2.99    0.20
  -7  -5  -1    3.00    0.24
   7   5   1    2.72    0.22
  -8  -5  -1    1.16    0.15
  -8  -5  -1    1.09    0.18
   8   5   1    1.23    0.19
  -9  -5  -1    2.28    0.26
  -9  -5  -1    2.60    0.22
   8  -6  -1    0.64    0.24
   8  -6  -1    0.83    0.19
   7  -6  -1    1.11    0.19
   7  -6  -1    1.38    0.22
  -7   6   1    1.35    0.10
   6  -6  -1   10.44    0.46
   6  -6  -1   11.04    0.44
  -6   6   1   11.03    0.32
   5  -6  -1   17.77    0.59
   5  -6  -1   18.23    0.58
  -5   6   1   17.88    0.47
   4  -6  -1    6.56    0.30
   4  -6  -1    6.80    0.27
   4  -6  -1    6.68    0.32
  -4   6   1    6.85    0.23
  -4   6   1    6.77    0.38
   3  -6  -1   39.37    1.00
   3  -6  -1   39.40    0.94
   3  -6  -1   38.30    0.98
  -3   6   1   38.36    0.98
  -3   6   1   39.25    0.91
  -3   6   1   39.60    0.90
   2  -6  -1   23.28    0.62
   2  -6  -1   22.93    0.64
   2  -6  -1   23.31    0.62
   2  -6  -1   23.90    0.61
   2  -6  -1   23.18    0.62
  -2   6   1   23.55    0.59
  -2   6   1   23.57    0.59
  -2   6   1   23.62    0.59
   1  -6  -1    2.31    0.12
   1  -6  -1    2.53    0.15
   1  -6  -1    2.38    0.15
   1  -6  -1    2.20    0.14
   1  -6  -1    2.53    0.16
   1  -6  -1    2.35    0.15
   1  -6  -1    2.41    0.16
  -1   6   1    2.28    0.14
  -1   6   1    2.52    0.14
  -1   6   1    2.38    0.14
   0  -6  -1   12.11    0.37
   0  -6  -1   12.69    0.36
   0  -6  -1   12.43    0.37
   0  -6  -1   12.26    0.34
   0  -6  -1   11.73    0.36
   0  -6  -1   12.15    0.36
   0   6   1   12.07    0.37
   0   6   1   12.49    0.36
   0   6   1   12.15    0.36
  -1  -6  -1    1.17    0.10
  -1  -6  -1    1.27    0.09
  -1  -6  -1    1.23    0.11
  -1  -6  -1    1.51    0.12
  -1  -6  -1    1.03    0.11
   1   6   1    1.50    0.11
   1   6   1    1.29    0.12
   1   6   1    1.58    0.12
   1   6   1    1.46    0.12
  -2  -6  -1   37.89    0.91
  -2  -6  -1   37.31    0.94
  -2  -6  -1   37.96    0.91
  -2  -6  -1   38.58    0.91
  -2  -6  -1   37.83    0.91
   2   6   1   38.72    0.91
   2   6   1   38.43    0.94
   2   6   1   38.39    0.92
   2   6   1   37.63    0.89
  -3  -6  -1   11.76    0.36
  -3  -6  -1   11.39    0.36
  -3  -6  -1   11.46    0.35
  -3  -6  -1   11.64    0.34
  -3  -6  -1   10.76    0.37
  -3  -6  -1   11.63    0.35
   3   6   1   11.66    0.38
   3   6   1   11.35    0.36
   3   6   1   11.67    0.36
  -4  -6  -1   24.58    0.64
  -4  -6  -1   23.47    0.66
  -4  -6  -1   24.37    0.63
  -4  -6  -1   24.28    0.62
  -4  -6  -1   23.64    0.64
  -4  -6  -1   24.31    0.64
   4   6   1   24.00    0.67
   4   6   1   24.23    0.64
   4   6   1   24.40    0.65
  -5  -6  -1   50.93    1.21
  -5  -6  -1   50.59    1.20
  -5  -6  -1   51.57    1.20
  -5  -6  -1   48.83    1.17
  -5  -6  -1   50.99    1.22
  -5  -6  -1   47.74    1.19
   5   6   1   49.30    1.22
   5   6   1   49.16    1.18
  -6  -6  -1    2.59    0.20
  -6  -6  -1    3.04    0.22
  -6  -6  -1    3.11    0.21
  -6  -6  -1    2.72    0.18
   6   6   1    2.76    0.22
  -7  -6  -1    5.11    0.27
  -7  -6  -1    5.30    0.27
  -7  -6  -1    5.21    0.30
  -8  -6  -1    0.29    0.11
  -8  -6  -1    0.59    0.16
  -9  -6  -1    0.63    0.15
  -9  -6  -1    0.81    0.19
   7  -7  -1    0.04    0.14
   7  -7  -1    0.29    0.16
  -7   7   1    0.17    0.07
   6  -7  -1    7.30    0.39
   6  -7  -1    9.15    0.44
  -6   7   1    8.52    0.28
   5  -7  -1    3.65    0.27
   5  -7  -1    4.32    0.30
  -5   7   1    4.03    0.19
   4  -7  -1    0.08    0.11
   4  -7  -1    0.09    0.10
   4  -7  -1    0.15    0.09
  -4   7   1    0.17    0.07
   3  -7  -1   42.67    1.09
   3  -7  -1   43.21    1.04
   3  -7  -1   42.31    1.07
  -3   7   1   42.80    0.99
  -3   7   1   41.94    1.00
   2  -7  -1   12.77    0.42
   2  -7  -1   13.28    0.41
   2  -7  -1   13.51    0.44
   2  -7  -1   13.10    0.42
  -2   7   1   12.85    0.38
  -2   7   1   12.08    0.38
  -2   7   1   12.71    0.38
   1  -7  -1    7.46    0.24
   1  -7  -1    7.32    0.29
   1  -7  -1    7.10    0.30
   1  -7  -1    7.33    0.27
   1  -7  -1    7.02    0.28
   1  -7  -1    7.22    0.29
  -1   7   1    7.23    0.27
  -1   7   1    7.30    0.26
  -1   7   1    7.04    0.27
   0  -7  -1    6.35    0.25
   0  -7  -1    6.49    0.26
   0  -7  -1    6.66    0.25
   0  -7  -1    6.59    0.23
   0  -7  -1    5.98    0.25
   0   7   1    6.31    0.25
   0   7   1    6.53    0.25
   0   7   1    6.14    0.24
  -1  -7  -1    2.03    0.13
  -1  -7  -1    2.31    0.15
  -1  -7  -1    1.90    0.15
  -1  -7  -1    2.03    0.16
  -1  -7  -1    1.89    0.14
   1   7   1    2.00    0.15
   1   7   1    2.43    0.16
   1   7   1    2.05    0.15
   1   7   1    1.96    0.14
  -2  -7  -1    6.84    0.26
  -2  -7  -1    6.53    0.28
  -2  -7  -1    7.03    0.27
  -2  -7  -1    7.57    0.28
   2   7   1    7.17    0.26
   2   7   1    6.57    0.28
   2   7   1    6.77    0.27
  -3  -7  -1    6.36    0.27
  -3  -7  -1    5.68    0.24
  -3  -7  -1    5.97    0.25
  -3  -7  -1    5.69    0.24
   3   7   1    5.82    0.26
   3   7   1    5.84    0.27
   3   7   1    5.67    0.24
  -4  -7  -1   23.69    0.67
  -4  -7  -1   23.26    0.63
  -4  -7  -1   23.74    0.65
  -4  -7  -1   23.82    0.63
  -4  -7  -1   23.61    0.63
  -4  -7  -1   23.55    0.65
   4   7   1   23.84    0.65
   4   7   1   23.58    0.65
   4   7   1   23.25    0.67
  -5  -7  -1    0.78    0.12
  -5  -7  -1    0.97    0.12
  -5  -7  -1    0.78    0.13
  -5  -7  -1    0.77    0.12
  -5  -7  -1    0.71    0.16
   5   7   1    0.79    0.13
   5   7   1    0.88    0.12
  -6  -7  -1   24.60    0.71
  -6  -7  -1   24.56    0.69
  -6  -7  -1   24.70    0.69
  -6  -7  -1   23.08    0.65
   6   7   1   23.44    0.71
  -7  -7  -1   16.44    0.58
  -7  -7  -1   16.73    0.54
  -7  -7  -1   17.19    0.56
  -8  -7  -1    0.27    0.15
  -8  -7  -1    0.09    0.11
  -8  -7  -1    0.02    0.11
  -9  -7  -1    0.23    0.13
  -9  -7  -1    0.09    0.16
   7  -8  -1    0.14    0.17
  -7   8   1    0.22    0.08
   6  -8  -1    0.06    0.15
   6  -8  -1   -0.07    0.13
  -6   8   1    0.13    0.08
   5  -8  -1    3.54    0.31
   5  -8  -1    3.36    0.28
  -5   8   1    3.47    0.19
   4  -8  -1   25.35    0.77
   4  -8  -1   24.84    0.75
   4  -8  -1   24.90    0.71
  -4   8   1   24.98    0.66
   3  -8  -1    9.51    0.37
   3  -8  -1   10.09    0.41
   3  -8  -1   11.26    0.41
  -3   8   1   10.10    0.35
  -3   8   1    9.49    0.33
   2  -8  -1    3.16    0.22
   2  -8  -1    3.40    0.23
   2  -8  -1    3.32    0.21
   2  -8  -1    3.38    0.23
  -2   8   1    3.32    0.18
  -2   8   1    3.03    0.19
  -2   8   1    3.13    0.19
   1  -8  -1   23.01    0.66
   1  -8  -1   24.83    0.67
   1  -8  -1   24.83    0.67
   1  -8  -1   23.85    0.65
  -1   8   1   22.28    0.63
  -1   8   1   23.85    0.64
  -1   8   1   23.12    0.64
   0  -8  -1    1.84    0.20
   0  -8  -1    2.06    0.18
   0  -8  -1    2.00    0.16
   0  -8  -1    1.98    0.14
   0  -8  -1    1.94    0.16
   0   8   1    2.20    0.16
   0   8   1    1.98    0.17
   0   8   1    2.15    0.16
   0   8   1    1.97    0.19
  -1  -8  -1   29.61    0.79
  -1  -8  -1   28.44    0.75
  -1  -8  -1   29.77    0.77
  -1  -8  -1   28.77    0.76
   1   8   1   28.29    0.78
   1   8   1   29.13    0.77
   1   8   1   29.29    0.78
   1   8   1   30.49    0.76
  -2  -8  -1    2.77    0.18
  -2  -8  -1    2.51    0.19
  -2  -8  -1    2.53    0.18
  -2  -8  -1    2.67    0.18
   2   8   1    2.41    0.18
   2   8   1    2.76    0.20
  -3  -8  -1    1.41    0.14
  -3  -8  -1    1.41    0.16
  -3  -8  -1    1.69    0.15
  -3  -8  -1    1.64    0.16
   3   8   1    1.58    0.17
   3   8   1    1.29    0.15
  -4  -8  -1    0.30    0.12
  -4  -8  -1    0.29    0.10
  -4  -8  -1    0.28    0.09
  -4  -8  -1    0.31    0.10
   4   8   1    0.29    0.11
   4   8   1    0.40    0.10
   4   8   1    0.37    0.11
  -5  -8  -1   29.96    0.82
  -5  -8  -1   29.55    0.79
  -5  -8  -1   30.22    0.97
   5   8   1   29.47    1.09
   5   8   1   29.31    0.81
   5   8   1   30.71    0.81
  -6  -8  -1   29.81    0.80
  -6  -8  -1   31.02    0.84
  -6  -8  -1   30.01    0.84
   6   8   1   31.11    0.86
   6   8   1   28.82    0.85
  -7  -8  -1    3.87    0.28
  -7  -8  -1    4.40    0.30
  -7  -8  -1    4.16    0.29
  -8  -8  -1    0.69    0.17
  -8  -8  -1    0.67    0.18
  -8  -8  -1    0.51    0.14
   6  -9  -1    0.11    0.15
  -6   9   1    0.20    0.21
  -6   9   1    0.11    0.09
   5  -9  -1    2.50    0.27
   5  -9  -1    2.02    0.26
  -5   9   1    2.42    0.30
  -5   9   1    2.33    0.18
   4  -9  -1    5.74    0.33
   4  -9  -1    5.28    0.35
   4  -9  -1    5.95    0.32
  -4   9   1    5.35    0.26
   3  -9  -1    0.70    0.16
   3  -9  -1    0.75    0.15
   3  -9  -1    0.97    0.15
  -3   9   1    0.66    0.12
   2  -9  -1   49.32    1.22
   2  -9  -1   47.85    1.24
   2  -9  -1   50.34    1.25
   2  -9  -1   49.85    1.24
  -2   9   1   47.13    1.30
  -2   9   1   48.27    1.19
  -2   9   1   48.70    1.18
   1  -9  -1   18.66    0.59
   1  -9  -1   19.28    0.59
   1  -9  -1   19.70    0.58
  -1   9   1   19.19    0.57
  -1   9   1   18.96    0.64
  -1   9   1   18.73    0.56
   0  -9  -1    0.37    0.12
   0  -9  -1    0.22    0.09
   0  -9  -1    0.39    0.11
   0  -9  -1    0.31    0.10
   0   9   1    0.29    0.10
   0   9   1    0.34    0.11
   0   9   1    0.33    0.12
  -1  -9  -1   11.97    0.42
  -1  -9  -1   12.10    0.40
  -1  -9  -1   12.05    0.44
  -1  -9  -1   12.05    0.43
   1   9   1   12.37    0.42
   1   9   1   11.95    0.43
  -2  -9  -1    3.84    0.25
  -2  -9  -1    4.00    0.23
  -2  -9  -1    4.32    0.24
  -2  -9  -1    4.37    0.25
   2   9   1    4.22    0.25
  -3  -9  -1    1.69    0.17
  -3  -9  -1    1.31    0.16
  -3  -9  -1    1.56    0.16
   3   9   1    1.46    0.17
  -4  -9  -1    0.11    0.09
  -4  -9  -1   -0.04    0.09
  -4  -9  -1    0.17    0.10
   4   9   1    0.16    0.10
  -5  -9  -1   10.82    0.43
  -5  -9  -1   10.59    0.40
   5   9   1   10.90    0.42
  -6  -9  -1    2.10    0.20
  -6  -9  -1    2.77    0.25
   6   9   1    2.51    0.22
   6   9   1    2.54    0.25
  -7  -9  -1   10.19    0.45
  -8  -9  -1    9.09    0.43
  -8  -9  -1    8.66    0.44
   5 -10  -1    0.16    0.16
  -5  10   1    0.22    0.10
  -5  10   1    0.22    0.19
   4 -10  -1    0.28    0.15
   4 -10  -1    0.18    0.15
   4 -10  -1    0.38    0.17
  -4  10   1    0.10    0.10
  -4  10   1    0.04    0.16
   3 -10  -1    3.64    0.29
   3 -10  -1    2.95    0.27
   3 -10  -1    2.91    0.25
  -3  10   1    3.00    0.31
  -3  10   1    2.88    0.22
   2 -10  -1    6.75    0.35
   2 -10  -1    6.85    0.36
   2 -10  -1    7.18    0.36
  -2  10   1    7.22    0.41
  -2  10   1    7.30    0.32
   1 -10  -1   10.34    0.42
   1 -10  -1   10.32    0.42
   1 -10  -1   10.66    0.43
  -1  10   1   10.23    0.40
  -1  10   1    9.71    0.45
  -1  10   1    9.78    0.38
   0 -10  -1   35.55    0.97
   0 -10  -1   36.75    0.96
   0  10   1   35.56    1.01
   0  10   1   36.83    0.97
   0  10   1   35.86    0.95
  -1 -10  -1   11.31    0.43
  -1 -10  -1   11.46    0.40
  -1 -10  -1   11.41    0.44
   1  10   1   11.96    0.44
  -2 -10  -1    1.42    0.18
  -2 -10  -1    1.32    0.17
  -2 -10  -1    1.62    0.17
   2  10   1    1.73    0.19
  -3 -10  -1    2.15    0.21
  -3 -10  -1    2.33    0.21
  -3 -10  -1    1.70    0.19
   3  10   1    1.99    0.21
  -4 -10  -1    1.42    0.17
  -4 -10  -1    1.44    0.19
  -4 -10  -1    1.48    0.18
   4  10   1    1.54    0.19
  -5 -10  -1    1.79    0.21
  -5 -10  -1    1.74    0.20
   5  10   1    1.30    0.18
  -6 -10  -1    1.11    0.19
  -6 -10  -1    1.06    0.17
   6  10   1    1.31    0.18
  -7 -10  -1   10.10    0.46
   4 -11  -1    0.87    0.21
   4 -11  -1    1.17    0.21
  -4  11   1    0.89    0.29
  -4  11   1    0.72    0.14
   3 -11  -1    3.11    0.30
   3 -11  -1    3.62    0.30
   3 -11  -1    3.04    0.29
  -3  11   1    2.53    0.31
  -3  11   1    2.72    0.22
   2 -11  -1    0.35    0.15
   2 -11  -1    0.31    0.15
  -2  11   1    0.20    0.16
  -2  11   1    0.04    0.11
   1 -11  -1   16.80    0.58
   1 -11  -1   17.26    0.60
  -1  11   1   15.50    0.54
  -1  11   1   16.64    0.56
  -1  11   1   15.98    0.63
   0 -11  -1   17.05    0.59
   0 -11  -1   18.80    0.62
   0  11   1   17.27    0.59
   0  11   1   17.83    0.58
  -1 -11  -1    0.28    0.14
  -1 -11  -1    0.16    0.11
  -1 -11  -1    0.64    0.16
   1  11   1    0.24    0.13
  -2 -11  -1    6.14    0.33
  -2 -11  -1    6.60    0.35
  -2 -11  -1    6.08    0.32
   2  11   1    6.31    0.35
  -3 -11  -1    0.60    0.16
  -3 -11  -1    0.42    0.14
  -3 -11  -1    0.44    0.14
   3  11   1    0.35    0.15
  -4 -11  -1    0.13    0.13
  -4 -11  -1    0.13    0.13
  -4 -11  -1    0.32    0.14
   4  11   1    0.16    0.14
  -5 -11  -1    2.19    0.23
  -5 -11  -1    2.37    0.25
   5  11   1    2.63    0.26
  -6 -11  -1    3.78    0.29
  -6 -11  -1    4.05    0.33
   6  11   1    3.77    0.31
   3 -12  -1    0.32    0.18
   2 -12  -1    1.04    0.21
  -2  12   1    1.20    0.24
  -2  12   1    1.34    0.19
   1 -12  -1    2.21    0.25
  -1  12   1    1.94    0.22
  -1  12   1    2.09    0.23
   0 -12  -1    0.13    0.14
   0 -12  -1   -0.04    0.14
   0  12   1   -0.03    0.13
  -1 -12  -1   10.48    0.46
  -1 -12  -1    9.89    0.46
   1  12   1   10.32    0.46
  -2 -12  -1   19.68    0.65
  -2 -12  -1   20.49    0.69
  -2 -12  -1   21.35    0.69
   2  12   1   21.15    0.70
  -3 -12  -1    0.22    0.14
  -3 -12  -1   -0.06    0.11
  -3 -12  -1   -0.02    0.14
   3  12   1   -0.07    0.13
  -4 -12  -1    5.14    0.36
  -4 -12  -1    5.73    0.37
  -4 -12  -1    5.36    0.35
   4  12   1    5.12    0.36
  -5 -12  -1   -0.11    0.14
  -5 -12  -1    0.09    0.15
   5  12   1   -0.12    0.13
   0 -13  -1    5.14    0.36
   0  13   1    5.12    0.36
  -1 -13  -1    6.16    0.40
   1  13   1    7.03    0.41
  -2 -13  -1    1.04    0.21
   2  13   1    0.95    0.21
  -3 -13  -1    3.31    0.29
  -3 -13  -1    3.78    0.32
   3  13   1    3.94    0.34
   4  12  -2    3.46    0.31
  -4 -12   2    3.50    0.29
  -4 -12   2    3.31    0.29
   3  12  -2    0.67    0.19
  -3 -12   2    1.17    0.20
  -3 -12   2    0.78    0.17
   2  12  -2    1.23    0.22
  -2 -12   2    1.43    0.21
   1  12  -2    0.20    0.15
  -1 -12   2   -0.08    0.14
  -1 -12   2   -0.06    0.17
   0  12  -2    6.77    0.38
   0 -12   2    6.61    0.38
  -1  12  -2    0.04    0.19
  -1  12  -2    0.04    0.12
  -1  12  -2   -0.05    0.13
   1 -12   2    0.06    0.16
  -2  12  -2    9.57    0.54
  -2  12  -2    9.46    0.42
   2 -12   2    9.43    0.46
   6  11  -2    4.47    0.34
  -6 -11   2    3.92    0.33
   5  11  -2    7.06    0.40
  -5 -11   2    6.88    0.39
  -5 -11   2    6.94    0.35
   4  11  -2    1.83    0.23
  -4 -11   2    1.93    0.21
  -4 -11   2    1.86    0.22
   3  11  -2    5.51    0.35
  -3 -11   2    5.35    0.32
  -3 -11   2    6.27    0.34
   2  11  -2    4.01    0.30
  -2 -11   2    4.45    0.30
  -2 -11   2    3.84    0.26
   1  11  -2    0.96    0.18
  -1 -11   2    1.06    0.18
  -1 -11   2    1.01    0.22
   0  11  -2    0.14    0.13
   0  11  -2    0.04    0.11
   0 -11   2    0.25    0.14
   0 -11   2    0.42    0.17
  -1  11  -2    8.21    0.37
  -1  11  -2    8.50    0.46
  -1  11  -2    8.78    0.39
   1 -11   2    8.55    0.40
  -2  11  -2   26.78    0.91
  -2  11  -2   26.61    0.77
   2 -11   2   27.41    0.84
   2 -11   2   26.39    0.83
  -3  11  -2    0.48    0.13
  -3  11  -2    0.50    0.20
   3 -11   2    0.65    0.19
   3 -11   2    0.58    0.18
  -4  11  -2    1.62    0.18
   4 -11   2    2.03    0.26
  -7 -10   2    0.15    0.16
   6  10  -2   12.24    0.50
  -6 -10   2   13.27    0.53
   5  10  -2    3.40    0.28
  -5 -10   2    3.89    0.28
  -5 -10   2    3.40    0.29
   4  10  -2    5.98    0.34
  -4 -10   2    5.64    0.32
  -4 -10   2    6.09    0.31
   3  10  -2   18.13    0.61
  -3 -10   2   17.93    0.57
  -3 -10   2   19.77    0.59
  -3 -10   2   17.92    0.59
   2  10  -2    3.03    0.25
  -2 -10   2    3.06    0.24
  -2 -10   2    2.92    0.24
  -2 -10   2    2.74    0.22
   1  10  -2    0.37    0.13
  -1 -10   2    0.42    0.13
  -1 -10   2    0.41    0.11
   0  10  -2    0.19    0.14
   0  10  -2    0.19    0.11
   0  10  -2    0.20    0.12
   0 -10   2    0.26    0.13
   0 -10   2    0.39    0.15
  -1  10  -2    1.48    0.18
  -1  10  -2    1.47    0.22
   1 -10   2    1.81    0.24
   1 -10   2    1.44    0.19
   1 -10   2    1.23    0.18
  -2  10  -2    0.23    0.15
   2 -10   2    0.27    0.14
   2 -10   2    0.08    0.12
  -3  10  -2   14.32    0.61
   3 -10   2   14.97    0.56
   3 -10   2   13.74    0.53
  -4  10  -2   10.98    0.56
   4 -10   2   10.57    0.50
   4 -10   2   10.90    0.48
   4 -10   2   10.38    0.49
  -5  10  -2    0.23    0.10
   5 -10   2   -0.04    0.17
   5 -10   2    0.25    0.16
  -7  -9   2    0.09    0.14
  -7  -9   2   -0.19    0.12
   6   9  -2    0.49    0.14
  -6  -9   2    0.61    0.16
   5   9  -2    3.97    0.27
  -5  -9   2    4.09    0.28
   4   9  -2   33.77    0.93
  -4  -9   2   33.66    0.89
  -4  -9   2   35.09    0.93
   3   9  -2   13.86    0.49
  -3  -9   2   14.25    0.46
  -3  -9   2   13.99    0.48
  -3  -9   2   13.87    0.46
   2   9  -2    1.01    0.15
  -2  -9   2    1.22    0.15
  -2  -9   2    0.93    0.15
  -2  -9   2    1.11    0.15
  -2  -9   2    1.29    0.15
   1   9  -2   31.58    0.90
   1   9  -2   32.07    0.86
   1   9  -2   34.39    0.88
  -1  -9   2   32.77    0.87
  -1  -9   2   32.78    0.84
   0   9  -2    1.64    0.20
   0   9  -2    1.74    0.17
   0  -9   2    2.07    0.18
   0  -9   2    1.81    0.22
   0  -9   2    1.86    0.18
  -1   9  -2    3.18    0.21
  -1   9  -2    2.97    0.26
  -1   9  -2    3.18    0.21
   1  -9   2    3.09    0.27
   1  -9   2    3.38    0.23
   1  -9   2    3.07    0.23
  -2   9  -2    1.16    0.14
  -2   9  -2    1.29    0.20
   2  -9   2    1.33    0.17
   2  -9   2    1.45    0.19
   2  -9   2    1.17    0.19
  -3   9  -2    8.50    0.32
  -3   9  -2    9.32    0.46
   3  -9   2    8.60    0.41
   3  -9   2    8.35    0.39
   3  -9   2    8.94    0.38
  -4   9  -2    2.80    0.19
  -4   9  -2    3.29    0.32
   4  -9   2    2.76    0.25
   4  -9   2    2.72    0.27
   4  -9   2    2.76    0.26
  -5   9  -2    8.11    0.49
   5  -9   2    7.91    0.44
   5  -9   2    8.62    0.44
   5  -9   2    8.21    0.40
  -6   9  -2   11.68    0.36
  -6   9  -2   11.05    0.70
   6  -9   2   11.04    0.53
  -8  -8   2    7.25    0.39
  -8  -8   2    6.71    0.40
  -7  -8   2    2.43    0.24
  -7  -8   2    2.44    0.25
   6   8  -2    0.12    0.11
  -6  -8   2    0.14    0.11
  -6  -8   2   -0.04    0.11
   5   8  -2   13.29    0.47
  -5  -8   2   13.18    0.46
  -5  -8   2   12.97    0.47
   4   8  -2    6.78    0.32
   4   8  -2    6.85    0.34
  -4  -8   2    6.79    0.28
  -4  -8   2    7.63    0.32
   3   8  -2    1.37    0.16
   3   8  -2    1.31    0.16
  -3  -8   2    1.79    0.16
  -3  -8   2    1.22    0.13
  -3  -8   2    1.39    0.16
  -3  -8   2    1.34    0.14
   2   8  -2   63.38    1.50
   2   8  -2   61.52    1.48
  -2  -8   2   62.60    1.46
  -2  -8   2   62.13    1.46
  -2  -8   2   61.78    1.50
  -2  -8   2   61.03    1.45
   1   8  -2    4.56    0.24
   1   8  -2    4.41    0.25
   1   8  -2    4.35    0.24
   1   8  -2    3.91    0.22
  -1  -8   2    4.42    0.22
  -1  -8   2    4.43    0.22
  -1  -8   2    4.23    0.23
  -1  -8   2    4.38    0.24
  -1  -8   2    4.46    0.23
   0   8  -2    1.08    0.13
   0   8  -2    1.14    0.13
   0   8  -2    1.36    0.14
   0   8  -2    1.09    0.16
   0  -8   2    1.12    0.14
   0  -8   2    0.71    0.15
   0  -8   2    0.88    0.12
   0  -8   2    0.94    0.11
  -1   8  -2    8.65    0.38
  -1   8  -2    8.57    0.31
  -1   8  -2    8.86    0.32
  -1   8  -2    8.86    0.32
   1  -8   2    8.77    0.35
   1  -8   2    8.78    0.40
   1  -8   2    8.29    0.33
  -2   8  -2    0.66    0.15
  -2   8  -2    0.90    0.11
  -2   8  -2    0.92    0.11
   2  -8   2    0.91    0.15
   2  -8   2    0.74    0.13
   2  -8   2    1.02    0.17
  -3   8  -2    0.50    0.09
  -3   8  -2    0.56    0.15
   3  -8   2    0.29    0.12
   3  -8   2    0.61    0.15
   3  -8   2    0.50    0.14
   3  -8   2    0.38    0.11
  -4   8  -2    5.98    0.24
  -4   8  -2    5.39    0.37
   4  -8   2    6.69    0.35
   4  -8   2    6.20    0.34
   4  -8   2    5.77    0.30
  -5   8  -2    3.02    0.31
   5  -8   2    3.28    0.26
   5  -8   2    3.28    0.29
   5  -8   2    3.38    0.28
  -6   8  -2    2.23    0.30
  -6   8  -2    2.10    0.15
   6  -8   2    2.33    0.27
   6  -8   2    2.39    0.26
   7  -8   2    3.09    0.30
  -8  -7   2   -0.02    0.12
  -8  -7   2   -0.06    0.11
  -8  -7   2   -0.04    0.13
  -7  -7   2    1.50    0.20
  -7  -7   2    1.75    0.20
  -7  -7   2    1.43    0.18
   6   7  -2    0.04    0.09
  -6  -7   2   -0.04    0.09
  -6  -7   2    0.06    0.10
  -6  -7   2    0.07    0.12
   5   7  -2    1.46    0.16
   5   7  -2    1.08    0.16
  -5  -7   2    1.41    0.16
  -5  -7   2    1.46    0.16
   4   7  -2    0.60    0.13
   4   7  -2    0.48    0.11
  -4  -7   2    0.63    0.11
  -4  -7   2    0.50    0.11
  -4  -7   2    0.58    0.11
  -4  -7   2    0.57    0.10
   3   7  -2   15.81    0.49
   3   7  -2   16.05    0.51
  -3  -7   2   16.03    0.51
  -3  -7   2   16.35    0.46
  -3  -7   2   15.35    0.48
  -3  -7   2   16.53    0.46
  -3  -7   2   16.54    0.47
   2   7  -2   49.34    1.21
  -2  -7   2   51.03    1.17
  -2  -7   2   50.35    1.17
  -2  -7   2   47.46    1.21
  -2  -7   2   50.41    1.19
   1   7  -2    5.47    0.24
   1   7  -2    5.30    0.26
   1   7  -2    5.66    0.25
  -1  -7   2    5.63    0.23
  -1  -7   2    5.51    0.24
  -1  -7   2    5.60    0.25
  -1  -7   2    5.59    0.23
  -1  -7   2    5.28    0.23
   0   7  -2   36.11    0.90
   0   7  -2   37.64    0.90
   0   7  -2   37.19    0.89
   0   7  -2   36.21    0.95
   0  -7   2   35.30    0.91
   0  -7   2   36.49    0.90
   0  -7   2   35.43    0.90
   0  -7   2   36.79    0.87
  -1   7  -2    8.81    0.30
  -1   7  -2    9.32    0.31
  -1   7  -2    8.88    0.30
  -1   7  -2    8.58    0.36
   1  -7   2    9.23    0.34
   1  -7   2    9.24    0.39
   1  -7   2    8.59    0.32
  -2   7  -2    5.97    0.24
  -2   7  -2    6.70    0.33
  -2   7  -2    6.03    0.23
  -2   7  -2    6.33    0.23
   2  -7   2    6.71    0.29
   2  -7   2    5.81    0.26
   2  -7   2    6.76    0.30
   2  -7   2    5.68    0.31
  -3   7  -2   -0.06    0.10
  -3   7  -2   -0.01    0.05
   3  -7   2   -0.04    0.08
   3  -7   2    0.00    0.10
   3  -7   2   -0.01    0.08
   3  -7   2    0.11    0.09
  -4   7  -2   16.95    0.45
  -4   7  -2   16.61    0.61
   4  -7   2   16.31    0.55
   4  -7   2   17.60    0.54
   4  -7   2   16.70    0.57
   4  -7   2   17.27    0.57
  -5   7  -2   11.37    0.33
  -5   7  -2   11.81    0.52
   5  -7   2   11.27    0.47
   5  -7   2   11.37    0.43
   5  -7   2   11.08    0.45
  -6   7  -2    2.37    0.29
  -6   7  -2    2.29    0.13
   6  -7   2    3.00    0.28
   6  -7   2    2.18    0.23
  -7   7  -2   15.08    0.65
   7  -7   2   14.51    0.61
   7  -7   2   14.01    0.56
  -9  -6   2    0.76    0.20
  -9  -6   2    0.50    0.15
  -8  -6   2    5.07    0.34
  -8  -6   2    5.24    0.30
  -8  -6   2    4.16    0.29
   7   6  -2    5.25    0.30
  -7  -6   2    4.70    0.27
  -7  -6   2    5.29    0.32
  -7  -6   2    5.12    0.28
   6   6  -2    0.19    0.11
  -6  -6   2    0.37    0.11
  -6  -6   2    0.28    0.12
  -6  -6   2    0.37    0.11
   5   6  -2   16.63    0.55
   5   6  -2   17.08    0.52
  -5  -6   2   18.34    0.56
  -5  -6   2   17.65    0.54
  -5  -6   2   18.07    0.53
  -5  -6   2   17.79    0.52
   4   6  -2    3.34    0.21
   4   6  -2    3.69    0.20
  -4  -6   2    3.33    0.21
  -4  -6   2    3.45    0.17
  -4  -6   2    3.44    0.20
  -4  -6   2    3.43    0.19
  -4  -6   2    3.64    0.20
   3   6  -2   17.88    0.53
   3   6  -2   18.59    0.52
  -3  -6   2   17.66    0.47
  -3  -6   2   17.39    0.48
  -3  -6   2   17.79    0.50
  -3  -6   2   18.74    0.51
  -3  -6   2   18.14    0.53
   2   6  -2   12.07    0.37
   2   6  -2   11.92    0.37
   2   6  -2   12.10    0.39
  -2  -6   2   11.79    0.35
  -2  -6   2   11.34    0.38
  -2  -6   2   12.60    0.37
  -2  -6   2   12.21    0.35
  -2  -6   2   11.81    0.35
   1   6  -2   90.62    2.03
   1   6  -2   88.21    2.01
   1   6  -2   88.86    2.00
   1   6  -2   90.33    1.99
  -1  -6   2   89.18    2.02
  -1  -6   2   88.97    1.98
  -1  -6   2   92.08    1.99
  -1  -6   2   88.95    1.99
  -1  -6   2   88.80    1.98
   0   6  -2   49.77    1.13
   0   6  -2   49.25    1.15
   0   6  -2   50.11    1.19
   0   6  -2   47.40    1.13
   0  -6   2   47.65    1.14
   0  -6   2   48.72    1.15
   0  -6   2   48.46    1.12
   0  -6   2   48.84    1.14
  -1   6  -2    0.17    0.06
  -1   6  -2    0.10    0.08
  -1   6  -2    0.14    0.06
  -1   6  -2    0.17    0.05
   1  -6   2    0.11    0.08
   1  -6   2    0.20    0.07
   1  -6   2    0.18    0.05
   1  -6   2    0.16    0.06
   1  -6   2    0.30    0.07
  -2   6  -2   15.58    0.41
  -2   6  -2   16.39    0.41
  -2   6  -2   15.25    0.51
  -2   6  -2   14.78    0.41
   2  -6   2   14.87    0.47
   2  -6   2   14.83    0.50
   2  -6   2   14.93    0.46
   2  -6   2   15.26    0.45
  -3   6  -2    4.50    0.27
  -3   6  -2    4.55    0.18
   3  -6   2    4.58    0.24
   3  -6   2    4.67    0.25
   3  -6   2    4.36    0.22
   3  -6   2    4.52    0.25
  -4   6  -2    1.33    0.10
  -4   6  -2    1.33    0.18
   4  -6   2    1.45    0.18
   4  -6   2    1.24    0.14
   4  -6   2    1.44    0.16
   4  -6   2    1.49    0.16
  -5   6  -2    0.16    0.05
  -5   6  -2    0.18    0.12
   5  -6   2    0.16    0.11
   5  -6   2    0.11    0.11
   5  -6   2    0.17    0.11
  -6   6  -2   19.53    0.69
   6  -6   2   19.12    0.62
   6  -6   2   18.52    0.64
  -7   6  -2    2.00    0.27
   7  -6   2    2.08    0.24
   7  -6   2    1.73    0.23
  -8   6  -2    0.75    0.21
   8  -6   2    1.27    0.24
   8  -6   2    0.97    0.20
  -9  -5   2    6.03    0.40
  -9  -5   2    7.17    0.36
  -8  -5   2   16.50    0.55
  -8  -5   2   16.87    0.61
   7   5  -2    0.67    0.14
  -7  -5   2    0.50    0.12
  -7  -5   2    0.57    0.12
  -7  -5   2    0.36    0.13
   6   5  -2    4.00    0.24
  -6  -5   2    3.83    0.23
  -6  -5   2    3.65    0.24
  -6  -5   2    3.66    0.22
  -6  -5   2    4.36    0.23
   5   5  -2    2.78    0.17
  -5  -5   2    2.33    0.18
  -5  -5   2    2.73    0.18
  -5  -5   2    2.44    0.18
  -5  -5   2    2.35    0.17
   4   5  -2    1.00    0.11
   4   5  -2    0.92    0.12
  -4  -5   2    0.88    0.11
  -4  -5   2    0.95    0.11
  -4  -5   2    1.06    0.12
  -4  -5   2    0.99    0.09
  -4  -5   2    0.77    0.11
   3   5  -2    9.08    0.30
   3   5  -2    8.98    0.32
  -3  -5   2    8.86    0.30
  -3  -5   2    9.22    0.29
  -3  -5   2    9.06    0.30
  -3  -5   2    9.18    0.27
  -3  -5   2    9.41    0.32
   2   5  -2   30.34    0.74
   2   5  -2   29.61    0.76
   2   5  -2   30.55    0.75
  -2  -5   2   30.55    0.74
  -2  -5   2   29.17    0.76
  -2  -5   2   31.32    0.72
  -2  -5   2   30.08    0.73
  -2  -5   2   31.32    0.74
   1   5  -2   79.76    1.75
   1   5  -2   80.79    1.75
   1   5  -2   75.59    1.76
   1   5  -2   77.80    1.77
  -1  -5   2   79.47    1.75
  -1  -5   2   78.39    1.74
  -1  -5   2   79.84    1.77
  -1  -5   2   78.02    1.74
   0   5  -2   11.28    0.33
   0   5  -2   11.22    0.34
   0   5  -2   11.86    0.37
   0   5  -2   11.29    0.32
   0  -5   2   11.45    0.32
   0  -5   2   11.04    0.33
   0  -5   2   11.23    0.34
   0  -5   2   11.81    0.34
  -1   5  -2  106.59    2.28
  -1   5  -2  105.74    2.29
  -1   5  -2  103.39    2.28
  -1   5  -2  108.16    2.29
  -1   5  -2  106.58    2.36
   1  -5   2  100.78    2.32
   1  -5   2  102.60    2.30
   1  -5   2  101.07    2.37
   1  -5   2  105.87    2.26
   1  -5   2  107.97    2.26
   1  -5   2  104.64    2.31
   1  -5   2  106.43    2.30
  -2   5  -2   56.91    1.28
  -2   5  -2   58.34    1.39
  -2   5  -2   58.72    1.28
  -2   5  -2   56.70    1.28
   2  -5   2   56.31    1.38
   2  -5   2   56.98    1.32
   2  -5   2   58.29    1.27
   2  -5   2   58.02    1.35
   2  -5   2   58.80    1.34
  -3   5  -2    1.00    0.14
  -3   5  -2    1.01    0.08
   3  -5   2    1.14    0.13
   3  -5   2    0.76    0.11
   3  -5   2    1.05    0.11
   3  -5   2    0.94    0.09
   3  -5   2    1.27    0.14
  -4   5  -2    1.38    0.17
  -4   5  -2    1.34    0.08
   4  -5   2    1.11    0.14
   4  -5   2    1.29    0.13
   4  -5   2    1.66    0.12
   4  -5   2    1.48    0.16
   4  -5   2    1.50    0.15
  -5   5  -2    0.32    0.05
  -5   5  -2    0.17    0.11
   5  -5   2    0.36    0.11
   5  -5   2    0.23    0.10
   5  -5   2    0.19    0.10
  -6   5  -2    3.23    0.28
   6  -5   2    2.80    0.23
   6  -5   2    3.26    0.24
   6  -5   2    3.02    0.24
  -7   5  -2    2.28    0.26
   7  -5   2    1.79    0.22
   7  -5   2    2.75    0.25
  -8   5  -2   15.75    0.65
   8  -5   2   16.34    0.59
   8  -5   2   16.28    0.62
  -9  -4   2    9.18    0.46
  -9  -4   2    9.12    0.39
   8   4  -2   -0.10    0.11
  -8  -4   2    0.24    0.11
  -8  -4   2   -0.08    0.12
   7   4  -2    6.25    0.31
  -7  -4   2    6.21    0.28
  -7  -4   2    6.26    0.33
  -7  -4   2    6.25    0.28
   6   4  -2   56.03    1.36
  -6  -4   2   57.74    1.32
  -6  -4   2   56.50    1.37
  -6  -4   2   54.94    1.32
  -6  -4   2   55.22    1.34
   5   4  -2    2.43    0.15
   5   4  -2    2.65    0.18
  -5  -4   2    2.45    0.16
  -5  -4   2    2.55    0.17
  -5  -4   2    2.47    0.18
  -5  -4   2    2.51    0.16
   4   4  -2   13.13    0.40
   4   4  -2   12.96    0.38
  -4  -4   2   12.65    0.40
  -4  -4   2   12.61    0.38
  -4  -4   2   12.78    0.39
  -4  -4   2   12.89    0.37
   3   4  -2    0.25    0.07
   3   4  -2    0.35    0.07
  -3  -4   2    0.27    0.07
  -3  -4   2    0.31    0.07
  -3  -4   2    0.31    0.07
  -3  -4   2    0.19    0.06
  -3  -4   2    0.26    0.05
   2   4  -2    1.54    0.11
   2   4  -2    1.32    0.10
   2   4  -2    1.38    0.11
  -2  -4   2    1.41    0.11
  -2  -4   2    1.40    0.10
  -2  -4   2    1.43    0.10
  -2  -4   2    1.53    0.10
  -2  -4   2    1.30    0.09
   1   4  -2    6.89    0.23
   1   4  -2    6.90    0.22
   1   4  -2    6.99    0.23
   1   4  -2    6.52    0.22
  -1  -4   2    6.84    0.21
  -1  -4   2    6.63    0.22
  -1  -4   2    6.76    0.23
   0   4  -2  124.35    2.66
   0   4  -2  123.00    2.69
   0   4  -2  120.96    2.65
   0   4  -2  125.82    2.66
   0  -4   2  122.58    2.66
   0  -4   2  120.55    2.64
   0  -4   2  123.13    2.66
  -1   4  -2   54.17    1.16
  -1   4  -2   51.29    1.21
  -1   4  -2   52.44    1.16
  -1   4  -2   51.72    1.15
  -1   4  -2   51.60    1.15
   1  -4   2   52.82    1.14
   1  -4   2   49.68    1.23
   1  -4   2   52.34    1.13
   1  -4   2   52.31    1.19
   1  -4   2   49.71    1.18
   1  -4   2   51.93    1.16
  -2   4  -2    0.78    0.06
  -2   4  -2    0.61    0.06
  -2   4  -2    0.68    0.06
  -2   4  -2    0.70    0.06
  -2   4  -2    0.85    0.11
  -2   4  -2    0.64    0.06
   2  -4   2    0.67    0.08
   2  -4   2    0.61    0.09
   2  -4   2    0.81    0.10
   2  -4   2    0.84    0.07
   2  -4   2    0.60    0.10
   2  -4   2    0.75    0.07
  -3   4  -2   54.83    1.19
  -3   4  -2   53.65    1.31
  -3   4  -2   53.47    1.19
   3  -4   2   54.12    1.26
   3  -4   2   56.27    1.30
   3  -4   2   53.89    1.28
   3  -4   2   55.86    1.22
   3  -4   2   54.08    1.25
  -4   4  -2   23.05    0.53
  -4   4  -2   23.91    0.68
   4  -4   2   22.45    0.64
   4  -4   2   24.00    0.59
   4  -4   2   23.38    0.65
   4  -4   2   23.03    0.63
  -5   4  -2    7.99    0.36
  -5   4  -2    7.45    0.38
   5  -4   2    7.92    0.31
   5  -4   2    7.94    0.32
   5  -4   2    8.24    0.28
   5  -4   2    7.26    0.33
  -6   4  -2    0.66    0.12
  -6   4  -2    0.44    0.13
   6  -4   2    0.53    0.10
   6  -4   2    0.36    0.12
   6  -4   2    0.45    0.12
   6  -4   2    0.48    0.12
  -7   4  -2    2.91    0.27
   7  -4   2    2.95    0.24
   7  -4   2    2.66    0.23
   7  -4   2    3.24    0.25
   7  -4   2    2.99    0.22
   8  -4   2    1.88    0.21
   8  -4   2    1.68    0.22
   9  -4   2    0.39    0.17
   9   3  -2    0.19    0.15
  -9  -3   2    0.02    0.10
  -9  -3   2    0.12    0.15
   8   3  -2   10.51    0.42
  -8  -3   2    9.53    0.44
  -8  -3   2    9.78    0.37
   7   3  -2   31.01    0.85
  -7  -3   2   29.95    0.79
  -7  -3   2   31.62    0.80
  -7  -3   2   31.26    0.87
   6   3  -2   14.53    0.46
  -6  -3   2   14.16    0.42
  -6  -3   2   14.11    0.47
  -6  -3   2   13.54    0.42
  -6  -3   2   14.46    0.43
   5   3  -2   23.43    0.58
   5   3  -2   23.73    0.63
  -5  -3   2   23.17    0.59
  -5  -3   2   22.81    0.61
  -5  -3   2   22.79    0.63
  -5  -3   2   21.80    0.59
   4   3  -2   31.44    0.77
   4   3  -2   30.63    0.77
   4   3  -2   30.38    0.74
   4   3  -2   30.70    0.71
  -4  -3   2   30.67    0.77
  -4  -3   2   31.05    0.76
  -4  -3   2   30.59    0.74
  -4  -3   2   30.17    0.74
   3   3  -2    1.03    0.09
   3   3  -2    1.25    0.10
  -3  -3   2    1.24    0.10
  -3  -3   2    1.15    0.09
  -3  -3   2    1.02    0.09
  -3  -3   2    1.26    0.07
  -3  -3   2    1.29    0.10
   2   3  -2   88.49    1.96
   2   3  -2   90.90    1.95
  -2  -3   2   90.22    1.95
  -2  -3   2   84.84    1.96
  -2  -3   2   91.48    1.92
  -2  -3   2   90.14    1.95
   1   3  -2   18.37    0.47
   1   3  -2   19.03    0.46
   1   3  -2   19.11    0.46
  -1  -3   2   19.02    0.45
  -1  -3   2   17.96    0.45
  -1  -3   2   18.36    0.47
   0   3  -2   33.65    0.76
   0   3  -2   33.61    0.80
   0   3  -2   35.23    0.78
   0   3  -2   33.41    0.77
   0   3  -2   34.59    0.78
   0  -3   2   33.86    0.78
   0  -3   2   33.50    0.78
   0  -3   2   32.87    0.76
  -1   3  -2    6.35    0.19
  -1   3  -2    6.27    0.19
  -1   3  -2    6.15    0.18
  -1   3  -2    6.22    0.18
   1  -3   2    6.43    0.19
   1  -3   2    6.55    0.24
   1  -3   2    6.42    0.21
   1  -3   2    6.63    0.19
   1  -3   2    6.32    0.21
  -2   3  -2   86.51    1.84
  -2   3  -2   86.25    1.84
   2  -3   2   84.04    1.90
   2  -3   2   86.06    1.89
   2  -3   2   87.92    1.93
   2  -3   2   85.32    1.86
   2  -3   2   87.43    1.85
  -3   3  -2   59.90    1.31
  -3   3  -2   61.86    1.43
  -3   3  -2   60.86    1.31
   3  -3   2   61.23    1.41
   3  -3   2   63.22    1.41
   3  -3   2   60.88    1.39
   3  -3   2   61.12    1.36
  -4   3  -2    5.28    0.25
   4  -3   2    5.28    0.23
   4  -3   2    5.04    0.23
   4  -3   2    5.14    0.20
   4  -3   2    5.04    0.21
  -5   3  -2    3.73    0.23
  -5   3  -2    3.21    0.19
   5  -3   2    3.31    0.20
   5  -3   2    3.11    0.17
   5  -3   2    3.76    0.20
   5  -3   2    3.20    0.20
  -6   3  -2    2.93    0.23
  -6   3  -2    2.97    0.19
  -6   3  -2    2.83    0.18
   6  -3   2    3.02    0.22
   6  -3   2    2.96    0.21
   6  -3   2    3.12    0.22
   6  -3   2    3.26    0.19
  -7   3  -2    3.52    0.25
  -7   3  -2    3.60    0.27
  -7   3  -2    2.78    0.23
   7  -3   2    3.49    0.25
   7  -3   2    3.66    0.24
   7  -3   2    3.29    0.22
   7  -3   2    3.71    0.25
  -8   3  -2    1.46    0.20
   8  -3   2    1.32    0.17
   8  -3   2    1.08    0.18
   8  -3   2    1.45    0.26
   8  -3   2    1.45    0.18
  -9   3  -2    6.06    0.38
   9  -3   2    5.30    0.34
   9  -3   2    5.18    0.33
 -10  -2   2    0.99    0.22
   9   2  -2    0.12    0.14
  -9  -2   2    0.26    0.15
  -9  -2   2    0.19    0.16
  -9  -2   2    0.36    0.11
   8   2  -2    1.11    0.17
  -8  -2   2    1.16    0.18
  -8  -2   2    1.29    0.14
   7   2  -2    3.43    0.23
  -7  -2   2    3.09    0.24
  -7  -2   2    3.47    0.19
   6   2  -2    7.80    0.31
  -6  -2   2    7.30    0.26
  -6  -2   2    7.23    0.31
  -6  -2   2    7.34    0.27
   5   2  -2   69.44    1.55
   5   2  -2   67.34    1.50
  -5  -2   2   66.85    1.51
  -5  -2   2   67.12    1.52
  -5  -2   2   65.51    1.55
  -5  -2   2   66.67    1.51
   4   2  -2   46.65    1.11
   4   2  -2   47.67    1.07
   4   2  -2   48.57    1.10
   4   2  -2   46.10    1.06
  -4  -2   2   46.69    1.11
  -4  -2   2   47.50    1.07
  -4  -2   2   46.42    1.09
  -4  -2   2   48.13    1.08
  -4  -2   2   47.42    1.08
   3   2  -2    1.11    0.08
   3   2  -2    0.89    0.08
  -3  -2   2    0.88    0.08
  -3  -2   2    0.89    0.08
  -3  -2   2    0.86    0.08
  -3  -2   2    0.90    0.08
  -3  -2   2    0.92    0.09
   2   2  -2   15.46    0.40
   2   2  -2   15.62    0.41
  -2  -2   2   16.17    0.36
  -2  -2   2   15.98    0.41
  -2  -2   2   15.65    0.39
  -2  -2   2   16.18    0.40
  -2  -2   2   16.02    0.41
   1   2  -2   97.29    2.09
   1   2  -2   97.18    2.09
   1   2  -2   95.15    2.08
  -1  -2   2   97.17    2.09
  -1  -2   2   96.28    2.09
  -1  -2   2   97.56    2.08
   0   2  -2    1.13    0.07
   0   2  -2    1.03    0.08
   0   2  -2    1.00    0.07
   0   2  -2    0.92    0.06
   0   2  -2    1.02    0.06
   0  -2   2    1.35    0.08
   0  -2   2    1.05    0.06
   0  -2   2    1.07    0.07
  -1   2  -2    0.96    0.05
  -1   2  -2    0.99    0.06
  -1   2  -2    0.97    0.06
   1  -2   2    0.90    0.07
   1  -2   2    1.20    0.08
   1  -2   2    1.05    0.06
   1  -2   2    0.79    0.08
   1  -2   2    0.94    0.06
  -2   2  -2   46.88    1.09
  -2   2  -2   48.62    1.02
   2  -2   2   45.83    1.05
   2  -2   2   45.72    1.09
   2  -2   2   49.05    1.02
   2  -2   2   44.63    1.05
   2  -2   2   48.24    1.08
   2  -2   2   49.16    1.02
  -3   2  -2    1.27    0.11
   3  -2   2    1.41    0.10
   3  -2   2    1.43    0.11
   3  -2   2    1.33    0.11
   3  -2   2    1.32    0.09
  -4   2  -2   83.29    1.92
  -4   2  -2   84.29    1.88
   4  -2   2   85.41    1.91
   4  -2   2   86.57    1.88
   4  -2   2   83.30    1.87
   4  -2   2   85.28    1.90
  -5   2  -2   55.16    1.28
  -5   2  -2   55.57    1.32
   5  -2   2   56.26    1.28
   5  -2   2   53.23    1.29
   5  -2   2   54.70    1.27
   5  -2   2   54.54    1.31
  -6   2  -2    0.09    0.08
  -6   2  -2    0.02    0.08
  -6   2  -2    0.06    0.07
   6  -2   2    0.01    0.08
   6  -2   2   -0.02    0.07
   6  -2   2    0.10    0.09
   6  -2   2    0.04    0.07
  -7   2  -2    5.48    0.27
  -7   2  -2    5.31    0.43
   7  -2   2    5.04    0.27
   7  -2   2    5.24    0.28
   7  -2   2    5.17    0.29
   7  -2   2    4.90    0.26
  -8   2  -2    1.69    0.19
   8  -2   2    1.39    0.18
   8  -2   2    1.64    0.18
   8  -2   2    1.59    0.20
  -9   2  -2    2.80    0.26
  -9   2  -2    3.19    0.30
   9  -2   2    3.00    0.26
   9  -2   2    2.77    0.25
  10   1  -2    2.13    0.26
 -10  -1   2    1.91    0.28
 -10  -1   2    2.13    0.27
   9   1  -2    0.96    0.18
  -9  -1   2    1.08    0.14
  -9  -1   2    0.67    0.18
  -9  -1   2    0.66    0.18
   8   1  -2    1.41    0.19
  -8  -1   2    1.48    0.19
  -8  -1   2    1.79    0.22
  -8  -1   2    1.64    0.15
   7   1  -2    3.93    0.25
  -7  -1   2    3.85    0.24
  -7  -1   2    3.99    0.20
   6   1  -2   50.79    1.21
   6   1  -2   51.70    1.23
  -6  -1   2   49.02    1.21
  -6  -1   2   48.66    1.13
  -6  -1   2   47.58    1.14
   5   1  -2   29.43    0.75
   5   1  -2   28.60    0.71
  -5  -1   2   28.40    0.74
  -5  -1   2   28.74    0.70
  -5  -1   2   29.00    0.69
  -5  -1   2   28.78    0.69
   4   1  -2   18.49    0.50
   4   1  -2   18.94    0.44
   4   1  -2   18.57    0.48
   4   1  -2   18.96    0.48
  -4  -1   2   18.64    0.50
  -4  -1   2   18.51    0.47
  -4  -1   2   18.32    0.46
  -4  -1   2   18.52    0.47
  -4  -1   2   18.79    0.48
   3   1  -2   70.45    1.54
   3   1  -2   68.35    1.52
   3   1  -2   70.03    1.55
   3   1  -2   70.59    1.53
  -3  -1   2   69.69    1.53
  -3  -1   2   70.46    1.54
  -3  -1   2   69.92    1.55
  -3  -1   2   69.66    1.52
  -3  -1   2   68.25    1.52
   2   1  -2    9.55    0.25
   2   1  -2    9.92    0.26
  -2  -1   2    9.24    0.26
  -2  -1   2    9.53    0.25
  -2  -1   2    9.55    0.27
  -2  -1   2    9.43    0.25
   1   1  -2   23.28    0.54
   1   1  -2   24.15    0.55
  -1  -1   2   23.64    0.55
  -1  -1   2   23.62    0.55
  -1  -1   2   23.02    0.54
   0   1  -2    0.06    0.03
   0   1  -2    0.06    0.03
   0  -1   2    0.03    0.03
  -1   1  -2  120.44    2.60
  -1   1  -2  123.63    2.61
  -1   1  -2  122.38    2.64
  -1   1  -2  124.61    2.61
   1  -1   2  123.66    2.63
   1  -1   2  124.52    2.62
   1  -1   2  126.59    2.62
   1  -1   2  120.67    2.65
   1  -1   2  121.46    2.63
   1  -1   2  124.42    2.61
  -2   1  -2   32.77    0.77
  -2   1  -2   33.73    0.72
  -2   1  -2   34.09    0.77
  -2   1  -2   33.89    0.71
   2  -1   2   33.40    0.78
   2  -1   2   33.42    0.77
   2  -1   2   32.54    0.75
   2  -1   2   33.28    0.75
  -3   1  -2  101.20    2.20
  -3   1  -2  100.99    2.21
   3  -1   2  101.99    2.19
   3  -1   2   99.89    2.22
   3  -1   2  100.51    2.20
   3  -1   2  102.01    2.19
  -4   1  -2   61.88    1.44
  -4   1  -2   63.09    1.47
   4  -1   2   63.97    1.44
   4  -1   2   66.32    1.45
   4  -1   2   65.85    1.44
   4  -1   2   64.41    1.48
  -5   1  -2   13.00    0.39
  -5   1  -2   13.59    0.40
  -5   1  -2   13.97    0.42
   5  -1   2   13.63    0.43
   5  -1   2   13.82    0.40
   5  -1   2   13.80    0.41
   5  -1   2   13.49    0.40
  -6   1  -2   13.55    0.40
  -6   1  -2   13.49    0.43
  -6   1  -2   13.33    0.44
  -6   1  -2   12.75    0.41
   6  -1   2   13.67    0.42
   6  -1   2   12.95    0.44
   6  -1   2   12.87    0.42
   6  -1   2   13.10    0.42
  -7   1  -2    9.28    0.36
   7  -1   2    8.94    0.35
   7  -1   2    8.94    0.35
   7  -1   2    8.47    0.37
   7  -1   2    8.72    0.35
  -8   1  -2    5.35    0.30
   8  -1   2    5.09    0.31
   8  -1   2    4.87    0.28
   8  -1   2    4.76    0.28
  -9   1  -2   -0.21    0.12
   9  -1   2   -0.04    0.13
   9  -1   2   -0.10    0.12
 -10   1  -2    0.42    0.20
 -10   1  -2    0.46    0.17
  10  -1   2    0.53    0.18
   9   0  -2    1.32    0.20
  -9   0   2    1.17    0.22
  -9   0   2    1.39    0.21
  -9   0   2    1.21    0.14
   8   0  -2    1.27    0.18
  -8   0   2    1.82    0.21
  -8   0   2    1.67    0.15
  -8   0   2    1.41    0.21
   7   0  -2    0.14    0.10
  -7   0   2    0.08    0.11
  -7   0   2    0.13    0.07
  -7   0   2    0.06    0.09
   6   0  -2    3.71    0.22
   6   0  -2    3.37    0.19
  -6   0   2    3.59    0.16
  -6   0   2    3.61    0.21
   5   0  -2    5.65    0.23
   5   0  -2    5.48    0.24
   5   0  -2    5.57    0.23
  -5   0   2    5.49    0.19
  -5   0   2    5.71    0.18
  -5   0   2    5.32    0.23
   4   0  -2  142.10    3.00
   4   0  -2  138.88    3.01
   4   0  -2  138.07    3.01
   4   0  -2  139.28    3.03
  -4   0   2  138.35    3.02
  -4   0   2  137.28    2.98
  -4   0   2  138.38    2.97
  -4   0   2  139.03    2.97
  -4   0   2  138.90    2.97
  -4   0   2  139.95    2.98
   3   0  -2   87.74    1.84
   3   0  -2   82.96    1.82
   3   0  -2   84.95    1.86
   3   0  -2   83.68    1.85
  -3   0   2   82.56    1.85
  -3   0   2   84.61    1.83
  -3   0   2   84.95    1.83
  -3   0   2   84.46    1.82
  -3   0   2   84.19    1.84
   2   0  -2   10.10    0.27
   2   0  -2   10.24    0.25
   2   0  -2    9.60    0.27
   2   0  -2   10.69    0.27
  -2   0   2    9.77    0.26
  -2   0   2    9.99    0.27
  -2   0   2   10.26    0.27
  -2   0   2   10.40    0.26
   1   0  -2   29.79    0.68
   1   0  -2   31.04    0.69
  -1   0   2   30.17    0.69
  -1   0   2   31.45    0.69
   0   0  -2  115.93    2.49
   0   0  -2  115.55    2.49
   0   0  -2  118.19    2.48
   0   0   2  116.24    2.49
   0   0   2  117.71    2.49
  -1   0  -2   12.78    0.30
  -1   0  -2   12.46    0.30
   1   0   2   12.89    0.30
   1   0   2   12.95    0.30
  -2   0  -2    2.33    0.11
  -2   0  -2    2.35    0.10
  -2   0  -2    2.31    0.07
   2   0   2    2.50    0.08
   2   0   2    2.45    0.08
   2   0   2    2.29    0.10
   2   0   2    2.28    0.11
   2   0   2    2.35    0.10
  -3   0  -2   34.78    0.80
  -3   0  -2   33.72    0.75
  -3   0  -2   35.07    0.75
  -3   0  -2   33.53    0.80
   3   0   2   35.90    0.76
   3   0   2   35.44    0.79
   3   0   2   34.62    0.78
   3   0   2   34.33    0.80
   3   0   2   35.02    0.83
  -4   0  -2    4.77    0.13
  -4   0  -2    4.61    0.18
  -4   0  -2    4.58    0.18
  -4   0  -2    4.69    0.13
   4   0   2    4.85    0.19
   4   0   2    4.58    0.17
   4   0   2    4.93    0.18
   4   0   2    4.63    0.20
  -5   0  -2   33.00    0.81
  -5   0  -2   32.66    0.73
  -5   0  -2   32.50    0.81
  -5   0  -2   33.00    0.73
   5   0   2   34.41    0.80
   5   0   2   32.95    0.80
   5   0   2   34.02    0.82
   5   0   2   32.58    0.84
  -6   0  -2   68.04    1.46
  -6   0  -2   66.86    1.53
  -6   0  -2   62.30    1.54
  -6   0  -2   68.67    1.58
   6   0   2   68.32    1.54
   6   0   2   67.30    1.60
   6   0   2   68.24    1.55
   6   0   2   70.07    1.57
  -7   0  -2    5.57    0.28
  -7   0  -2    5.88    0.19
   7   0   2    6.52    0.27
   7   0   2    5.84    0.30
   7   0   2    5.75    0.28
  -8   0  -2   10.62    0.43
  -8   0  -2    9.98    0.28
   8   0   2    9.49    0.43
   8   0   2   10.05    0.47
   8   0   2   10.35    0.41
  -9   0  -2    0.96    0.18
  -9   0  -2    0.84    0.09
   9   0   2    0.64    0.16
   9   0   2    0.61    0.17
 -10   0  -2    0.43    0.17
  10   0   2    0.27    0.16
   9  -1  -2    3.44    0.29
  -9   1   2    3.27    0.33
  -9   1   2    3.94    0.21
  -9   1   2    3.48    0.30
   8  -1  -2    1.95    0.22
  -8   1   2    1.82    0.15
  -8   1   2    1.67    0.22
  -8   1   2    1.70    0.20
   7  -1  -2    0.04    0.09
   7  -1  -2    0.04    0.10
  -7   1   2    0.12    0.07
  -7   1   2   -0.08    0.08
  -7   1   2    0.06    0.10
   6  -1  -2    4.19    0.22
   6  -1  -2    3.51    0.23
   6  -1  -2    4.22    0.22
  -6   1   2    3.95    0.17
  -6   1   2    4.35    0.22
  -6   1   2    3.56    0.24
   5  -1  -2   14.24    0.41
   5  -1  -2   13.40    0.43
   5  -1  -2   14.18    0.43
  -5   1   2   13.99    0.42
  -5   1   2   13.87    0.37
  -5   1   2   13.57    0.44
   4  -1  -2    4.23    0.18
   4  -1  -2    4.04    0.17
   4  -1  -2    3.80    0.16
   4  -1  -2    4.17    0.19
   4  -1  -2    4.18    0.16
  -4   1   2    3.87    0.17
  -4   1   2    4.00    0.14
  -4   1   2    4.17    0.13
  -4   1   2    3.69    0.18
  -4   1   2    4.00    0.15
  -4   1   2    3.74    0.13
  -4   1   2    3.74    0.15
   3  -1  -2   67.24    1.51
   3  -1  -2   69.52    1.49
   3  -1  -2   65.45    1.50
   3  -1  -2   67.79    1.48
  -3   1   2   66.75    1.46
  -3   1   2   65.26    1.47
  -3   1   2   69.92    1.47
  -3   1   2   67.44    1.46
   2  -1  -2  335.45    6.89
   2  -1  -2  333.79    6.90
   2  -1  -2  322.95    6.89
   2  -1  -2  317.28    6.87
  -2   1   2  321.51    6.88
  -2   1   2  330.80    6.89
  -2   1   2  316.66    6.88
  -2   1   2  331.25    6.90
   1  -1  -2  160.59    3.32
   1  -1  -2  155.44    3.33
   1  -1  -2  158.36    3.34
   1  -1  -2  153.75    3.34
  -1   1   2  156.24    3.34
  -1   1   2  156.13    3.34
  -1   1   2  159.76    3.33
   0  -1  -2   36.80    0.79
   0  -1  -2   35.91    0.80
   0  -1  -2   36.57    0.80
   0   1   2   35.97    0.80
  -1  -1  -2    1.76    0.08
  -1  -1  -2    1.63    0.08
  -1  -1  -2    1.86    0.08
   1   1   2    1.72    0.08
  -2  -1  -2    9.37    0.24
  -2  -1  -2    9.69    0.26
  -2  -1  -2    9.38    0.24
  -2  -1  -2    9.45    0.23
   2   1   2    9.27    0.27
   2   1   2    9.32    0.24
   2   1   2    9.09    0.25
   2   1   2    9.53    0.24
   2   1   2    9.82    0.24
  -3  -1  -2   23.44    0.56
  -3  -1  -2   23.31    0.53
  -3  -1  -2   23.77    0.53
  -3  -1  -2   23.30    0.54
  -3  -1  -2   23.78    0.53
   3   1   2   22.59    0.58
   3   1   2   23.12    0.54
   3   1   2   23.30    0.54
   3   1   2   23.73    0.54
   3   1   2   23.31    0.56
  -4  -1  -2   19.62    0.46
  -4  -1  -2   18.52    0.45
  -4  -1  -2   18.69    0.44
  -4  -1  -2   18.66    0.44
  -4  -1  -2   18.87    0.48
   4   1   2   18.65    0.46
   4   1   2   18.67    0.46
   4   1   2   18.67    0.54
   4   1   2   18.95    0.45
   4   1   2   18.74    0.51
   4   1   2   18.40    0.49
  -5  -1  -2   72.15    1.60
  -5  -1  -2   75.23    1.64
  -5  -1  -2   73.68    1.65
   5   1   2   74.20    1.70
   5   1   2   73.70    1.67
   5   1   2   71.67    1.63
   5   1   2   74.65    1.63
  -6  -1  -2   11.26    0.35
  -6  -1  -2   11.32    0.31
  -6  -1  -2   11.39    0.39
   6   1   2   12.11    0.42
   6   1   2   11.69    0.39
   6   1   2   11.63    0.36
  -7  -1  -2    0.14    0.10
  -7  -1  -2    0.31    0.06
   7   1   2    0.23    0.11
   7   1   2    0.14    0.10
   7   1   2    0.09    0.08
  -8  -1  -2   12.15    0.47
  -8  -1  -2   12.66    0.35
   8   1   2   12.18    0.49
   8   1   2   11.55    0.45
  -9  -1  -2    1.48    0.13
  -9  -1  -2    1.65    0.22
   9   1   2    1.65    0.21
 -10  -1  -2    0.72    0.11
 -10  -1  -2    0.64    0.19
  10   1   2    0.57    0.19
   9  -2  -2    5.02    0.35
  -9   2   2    4.94    0.37
   8  -2  -2    0.14    0.13
   8  -2  -2    0.16    0.13
  -8   2   2   -0.03    0.13
  -8   2   2    0.21    0.12
  -8   2   2    0.19    0.08
   7  -2  -2    8.73    0.37
   7  -2  -2    8.77    0.38
  -7   2   2    8.82    0.40
  -7   2   2    8.89    0.29
  -7   2   2    9.03    0.36
   6  -2  -2    6.86    0.31
   6  -2  -2    6.74    0.30
   6  -2  -2    7.05    0.28
  -6   2   2    7.21    0.24
  -6   2   2    6.78    0.28
  -6   2   2    7.12    0.32
   5  -2  -2    4.34    0.19
   5  -2  -2    4.21    0.22
   5  -2  -2    4.65    0.20
   5  -2  -2    4.30    0.22
  -5   2   2    4.32    0.17
  -5   2   2    4.47    0.20
  -5   2   2    4.37    0.23
   4  -2  -2    4.33    0.17
   4  -2  -2    3.96    0.19
   4  -2  -2    4.36    0.17
   4  -2  -2    4.30    0.20
  -4   2   2    3.96    0.15
  -4   2   2    4.38    0.18
  -4   2   2    4.51    0.16
  -4   2   2    4.27    0.20
  -4   2   2    4.52    0.20
   3  -2  -2   29.12    0.72
   3  -2  -2   29.17    0.73
   3  -2  -2   29.43    0.69
   3  -2  -2   29.84    0.68
   3  -2  -2   29.58    0.70
  -3   2   2   29.68    0.67
  -3   2   2   30.17    0.67
  -3   2   2   29.80    0.68
  -3   2   2   29.46    0.68
   2  -2  -2  168.60    3.63
   2  -2  -2  173.65    3.61
   2  -2  -2  168.48    3.62
   2  -2  -2  168.26    3.59
  -2   2   2  174.22    3.59
  -2   2   2  160.61    3.59
  -2   2   2  169.29    3.59
  -2   2   2  169.59    3.60
   1  -2  -2   16.04    0.37
   1  -2  -2   16.47    0.40
   1  -2  -2   15.52    0.39
   1  -2  -2   15.50    0.38
   1  -2  -2   16.12    0.40
  -1   2   2   15.96    0.39
  -1   2   2   15.48    0.38
  -1   2   2   15.66    0.39
  -1   2   2   16.21    0.40
   0  -2  -2   53.81    1.16
   0  -2  -2   52.66    1.16
   0  -2  -2   52.62    1.16
   0  -2  -2   53.29    1.17
   0  -2  -2   53.44    1.17
   0   2   2   53.96    1.17
   0   2   2   53.49    1.17
   0   2   2   53.13    1.17
  -1  -2  -2   71.40    1.52
  -1  -2  -2   70.08    1.52
  -1  -2  -2   68.91    1.52
  -1  -2  -2   69.46    1.51
   1   2   2   72.23    1.53
   1   2   2   70.28    1.52
   1   2   2   70.83    1.52
   1   2   2   68.36    1.52
  -2  -2  -2    7.22    0.20
  -2  -2  -2    7.26    0.21
  -2  -2  -2    7.30    0.21
  -2  -2  -2    7.37    0.21
  -2  -2  -2    7.06    0.20
   2   2   2    7.60    0.21
   2   2   2    7.07    0.22
   2   2   2    7.29    0.20
   2   2   2    7.29    0.20
  -3  -2  -2   10.80    0.28
  -3  -2  -2   11.01    0.29
  -3  -2  -2   11.02    0.29
  -3  -2  -2   10.94    0.28
  -3  -2  -2   10.89    0.30
   3   2   2   10.68    0.32
   3   2   2   11.11    0.27
   3   2   2   11.03    0.27
   3   2   2   11.14    0.29
   3   2   2   10.87    0.30
  -4  -2  -2   12.12    0.31
  -4  -2  -2   12.79    0.33
  -4  -2  -2   12.94    0.33
  -4  -2  -2   13.27    0.35
  -4  -2  -2   12.73    0.33
  -4  -2  -2   12.81    0.33
   4   2   2   12.73    0.34
   4   2   2   13.00    0.31
   4   2   2   12.53    0.36
   4   2   2   12.46    0.33
   4   2   2   12.12    0.37
   4   2   2   12.64    0.39
  -5  -2  -2    3.89    0.15
  -5  -2  -2    3.72    0.15
  -5  -2  -2    3.90    0.17
  -5  -2  -2    3.75    0.17
  -5  -2  -2    3.88    0.14
   5   2   2    3.72    0.19
   5   2   2    3.79    0.20
   5   2   2    3.77    0.21
   5   2   2    3.96    0.16
  -6  -2  -2   10.42    0.31
  -6  -2  -2   11.31    0.39
  -6  -2  -2   10.97    0.34
   6   2   2   11.03    0.34
   6   2   2   10.45    0.37
   6   2   2   11.15    0.40
  -7  -2  -2   50.65    1.29
  -7  -2  -2   52.03    1.19
   7   2   2   52.80    1.32
   7   2   2   53.25    1.28
  -8  -2  -2    2.63    0.24
  -8  -2  -2    2.41    0.16
   8   2   2    2.62    0.23
  -9  -2  -2    1.35    0.13
  -9  -2  -2    1.28    0.20
   9   2   2    1.02    0.18
 -10  -2  -2    1.97    0.26
 -10  -2  -2    1.06    0.13
  10   2   2    1.47    0.23
   9  -3  -2    0.72    0.19
  -9   3   2    0.76    0.09
  -9   3   2    1.21    0.23
   8  -3  -2    5.51    0.35
   8  -3  -2    5.96    0.35
  -8   3   2    5.97    0.36
  -8   3   2    5.49    0.22
   7  -3  -2   10.31    0.42
   7  -3  -2    9.68    0.42
  -7   3   2   10.77    0.44
   6  -3  -2    0.82    0.12
   6  -3  -2    0.61    0.12
   6  -3  -2    0.70    0.13
  -6   3   2    0.66    0.13
  -6   3   2    0.60    0.08
   5  -3  -2    7.42    0.31
   5  -3  -2    8.17    0.27
   5  -3  -2    7.37    0.30
  -5   3   2    7.39    0.31
  -5   3   2    7.43    0.24
  -5   3   2    7.57    0.27
   4  -3  -2   11.09    0.38
   4  -3  -2   11.08    0.37
   4  -3  -2   11.57    0.33
   4  -3  -2   11.91    0.33
  -4   3   2   11.59    0.38
  -4   3   2   12.22    0.32
  -4   3   2   12.20    0.34
   3  -3  -2   10.64    0.29
   3  -3  -2   10.39    0.32
   3  -3  -2   10.24    0.29
   3  -3  -2   10.20    0.28
   3  -3  -2   10.68    0.28
   3  -3  -2    9.99    0.33
  -3   3   2   10.37    0.29
  -3   3   2   10.40    0.28
  -3   3   2   10.52    0.27
  -3   3   2   10.19    0.28
  -3   3   2   10.17    0.28
   2  -3  -2    6.86    0.24
   2  -3  -2    6.90    0.21
   2  -3  -2    6.45    0.17
   2  -3  -2    6.58    0.22
   2  -3  -2    6.70    0.21
  -2   3   2    6.81    0.21
  -2   3   2    6.78    0.21
  -2   3   2    6.88    0.20
  -2   3   2    6.52    0.20
   1  -3  -2  126.93    2.69
   1  -3  -2  124.48    2.71
   1  -3  -2  124.87    2.69
   1  -3  -2  124.27    2.67
   1  -3  -2  128.18    2.70
  -1   3   2  124.86    2.70
  -1   3   2  123.54    2.68
  -1   3   2  125.35    2.69
  -1   3   2  126.58    2.69
   0  -3  -2  209.13    4.50
   0  -3  -2  213.88    4.49
   0  -3  -2  208.55    4.51
   0  -3  -2  209.24    4.50
   0  -3  -2  211.23    4.51
   0   3   2  217.82    4.52
   0   3   2  214.21    4.50
   0   3   2  213.49    4.51
   0   3   2  214.28    4.51
  -1  -3  -2   73.19    1.58
  -1  -3  -2   72.41    1.58
  -1  -3  -2   70.46    1.54
  -1  -3  -2   72.23    1.56
  -1  -3  -2   73.13    1.57
   1   3   2   70.14    1.56
   1   3   2   71.11    1.58
  -2  -3  -2   60.16    1.37
  -2  -3  -2   62.42    1.36
  -2  -3  -2   61.36    1.36
  -2  -3  -2   60.65    1.36
  -2  -3  -2   61.54    1.37
   2   3   2   61.50    1.36
   2   3   2   63.51    1.35
   2   3   2   63.10    1.38
  -3  -3  -2    2.72    0.13
  -3  -3  -2    2.72    0.12
  -3  -3  -2    2.52    0.12
  -3  -3  -2    2.61    0.13
  -3  -3  -2    2.72    0.13
   3   3   2    2.62    0.11
   3   3   2    2.68    0.13
   3   3   2    2.86    0.10
   3   3   2    2.53    0.12
  -4  -3  -2   13.59    0.38
  -4  -3  -2   13.70    0.37
  -4  -3  -2   14.52    0.37
  -4  -3  -2   13.45    0.37
  -4  -3  -2   14.29    0.38
   4   3   2   13.85    0.35
   4   3   2   13.97    0.36
   4   3   2   14.06    0.39
   4   3   2   13.80    0.38
   4   3   2   13.46    0.41
  -5  -3  -2    0.77    0.09
  -5  -3  -2    0.73    0.10
  -5  -3  -2    0.55    0.07
  -5  -3  -2    0.65    0.08
  -5  -3  -2    0.75    0.08
  -5  -3  -2    0.73    0.09
   5   3   2    0.67    0.08
   5   3   2    0.93    0.12
   5   3   2    0.73    0.10
  -6  -3  -2   35.48    0.84
  -6  -3  -2   35.04    0.83
  -6  -3  -2   34.73    0.91
  -6  -3  -2   34.46    0.85
   6   3   2   34.98    0.88
   6   3   2   35.08    0.92
  -7  -3  -2    5.10    0.28
  -7  -3  -2    5.14    0.22
   7   3   2    5.21    0.27
  -8  -3  -2    3.12    0.19
  -8  -3  -2    3.10    0.26
   8   3   2    2.61    0.23
  -9  -3  -2   11.98    0.52
  -9  -3  -2   12.39    0.40
   9   3   2   12.35    0.50
 -10  -3  -2    7.80    0.45
 -10  -3  -2    8.48    0.34
  10   3   2    9.22    0.46
   9  -4  -2    0.96    0.23
   9  -4  -2    1.45    0.23
  -9   4   2    2.25    0.29
   8  -4  -2   12.05    0.50
   8  -4  -2   11.86    0.51
  -8   4   2   11.25    0.33
  -8   4   2   12.21    0.53
   7  -4  -2    8.05    0.39
   7  -4  -2    7.51    0.39
  -7   4   2    8.31    0.26
  -7   4   2    7.61    0.39
   6  -4  -2    2.69    0.24
   6  -4  -2    2.81    0.23
  -6   4   2    2.53    0.23
  -6   4   2    2.86    0.15
   5  -4  -2    6.82    0.34
   5  -4  -2    6.41    0.29
   5  -4  -2    6.16    0.30
  -5   4   2    6.22    0.21
  -5   4   2    5.87    0.29
   4  -4  -2    2.37    0.18
   4  -4  -2    2.42    0.17
   4  -4  -2    2.33    0.13
  -4   4   2    2.26    0.17
  -4   4   2    2.56    0.12
   3  -4  -2    9.53    0.30
   3  -4  -2    9.04    0.31
   3  -4  -2    9.19    0.28
   3  -4  -2    8.98    0.32
  -3   4   2    9.06    0.31
  -3   4   2    9.12    0.26
   2  -4  -2   31.72    0.71
   2  -4  -2   30.58    0.74
   2  -4  -2   31.39    0.74
   2  -4  -2   29.19    0.76
   2  -4  -2   30.75    0.75
   2  -4  -2   31.84    0.69
  -2   4   2   30.53    0.73
  -2   4   2   31.34    0.72
  -2   4   2   32.36    0.74
  -2   4   2   30.93    0.72
   1  -4  -2   59.82    1.33
   1  -4  -2   59.96    1.32
   1  -4  -2   59.43    1.30
   1  -4  -2   58.23    1.33
   1  -4  -2   58.61    1.32
   1  -4  -2   57.33    1.34
  -1   4   2   61.78    1.33
  -1   4   2   58.47    1.32
  -1   4   2   60.09    1.32
  -1   4   2   61.02    1.33
   0  -4  -2   44.06    0.99
   0  -4  -2   44.83    1.01
   0  -4  -2   42.73    0.98
   0  -4  -2   45.21    0.99
   0  -4  -2   43.14    1.00
   0   4   2   43.25    1.00
   0   4   2   43.26    0.99
   0   4   2   44.10    1.00
  -1  -4  -2  130.41    2.82
  -1  -4  -2  131.73    2.80
  -1  -4  -2  133.13    2.82
  -1  -4  -2  129.81    2.83
  -1  -4  -2  131.19    2.84
   1   4   2  127.41    2.83
   1   4   2  131.64    2.83
   1   4   2  134.31    2.82
  -2  -4  -2  105.89    2.29
  -2  -4  -2  103.61    2.29
  -2  -4  -2  104.56    2.29
  -2  -4  -2  106.81    2.31
  -2  -4  -2  106.23    2.24
   2   4   2  107.65    2.26
   2   4   2  104.58    2.31
   2   4   2  104.76    2.29
  -3  -4  -2    0.02    0.05
  -3  -4  -2   -0.01    0.04
  -3  -4  -2    0.13    0.05
  -3  -4  -2    0.09    0.05
  -3  -4  -2    0.00    0.04
   3   4   2    0.24    0.06
   3   4   2    0.12    0.05
   3   4   2    0.07    0.05
  -4  -4  -2    8.94    0.30
  -4  -4  -2    9.08    0.29
  -4  -4  -2    9.00    0.28
  -4  -4  -2    9.16    0.28
  -4  -4  -2    8.79    0.28
  -4  -4  -2    8.83    0.28
   4   4   2    9.02    0.26
   4   4   2    9.40    0.30
   4   4   2    8.88    0.31
   4   4   2    9.12    0.27
   4   4   2    8.95    0.28
  -5  -4  -2    2.20    0.16
  -5  -4  -2    1.93    0.13
  -5  -4  -2    1.97    0.14
  -5  -4  -2    2.27    0.14
  -5  -4  -2    2.11    0.14
  -5  -4  -2    2.40    0.14
   5   4   2    2.26    0.17
   5   4   2    1.93    0.15
  -6  -4  -2    4.42    0.20
  -6  -4  -2    4.27    0.20
  -6  -4  -2    4.04    0.20
  -6  -4  -2    4.35    0.20
  -6  -4  -2    3.91    0.23
   6   4   2    4.20    0.22
   6   4   2    4.46    0.25
  -7  -4  -2    1.08    0.12
  -7  -4  -2    1.11    0.16
  -7  -4  -2    1.12    0.12
   7   4   2    0.91    0.15
  -8  -4  -2   13.30    0.43
  -8  -4  -2   13.00    0.51
   8   4   2   13.49    0.49
  -9  -4  -2    3.46    0.23
  -9  -4  -2    3.11    0.29
   9   4   2    3.10    0.27
 -10  -4  -2    3.88    0.34
 -10  -4  -2    3.71    0.26
  10   4   2    3.72    0.32
   8  -5  -2    1.51    0.23
   8  -5  -2    1.22    0.22
  -8   5   2    1.48    0.11
  -8   5   2    1.42    0.23
   7  -5  -2    6.86    0.37
   7  -5  -2    6.90    0.38
  -7   5   2    7.55    0.39
  -7   5   2    6.71    0.24
   6  -5  -2   26.18    0.78
   6  -5  -2   24.92    0.75
  -6   5   2   25.98    0.63
  -6   5   2   25.60    0.77
   5  -5  -2    0.18    0.10
   5  -5  -2    0.07    0.09
  -5   5   2    0.05    0.06
  -5   5   2    0.11    0.10
   4  -5  -2    1.71    0.17
   4  -5  -2    1.57    0.15
  -4   5   2    1.71    0.11
  -4   5   2    1.63    0.17
   3  -5  -2    0.52    0.08
   3  -5  -2    0.48    0.08
   3  -5  -2    0.66    0.11
   3  -5  -2    0.52    0.09
  -3   5   2    0.58    0.07
  -3   5   2    0.52    0.10
  -3   5   2    0.48    0.06
  -3   5   2    0.42    0.07
   2  -5  -2    2.25    0.14
   2  -5  -2    2.00    0.09
   2  -5  -2    1.99    0.14
   2  -5  -2    2.33    0.16
   2  -5  -2    2.03    0.13
   2  -5  -2    1.73    0.12
  -2   5   2    1.86    0.11
  -2   5   2    2.11    0.12
  -2   5   2    1.93    0.12
   1  -5  -2    1.39    0.11
   1  -5  -2    1.62    0.12
   1  -5  -2    1.57    0.11
   1  -5  -2    1.59    0.12
   1  -5  -2    1.87    0.10
   1  -5  -2    1.44    0.11
  -1   5   2    1.64    0.11
  -1   5   2    1.78    0.11
  -1   5   2    1.51    0.11
  -1   5   2    1.51    0.11
   0  -5  -2   13.42    0.39
   0  -5  -2   13.80    0.39
   0  -5  -2   14.12    0.37
   0  -5  -2   13.92    0.38
   0  -5  -2   13.48    0.37
   0   5   2   13.39    0.38
   0   5   2   14.08    0.37
   0   5   2   13.44    0.38
  -1  -5  -2  100.14    2.22
  -1  -5  -2  104.78    2.19
  -1  -5  -2  104.22    2.21
  -1  -5  -2  102.54    2.24
  -1  -5  -2   99.99    2.25
  -1  -5  -2   98.77    2.22
   1   5   2  102.02    2.22
   1   5   2  101.22    2.24
   1   5   2   98.72    2.22
  -2  -5  -2    8.36    0.26
  -2  -5  -2    8.18    0.27
  -2  -5  -2    7.75    0.28
  -2  -5  -2    8.14    0.21
  -2  -5  -2    8.11    0.26
  -2  -5  -2    8.52    0.27
   2   5   2    8.76    0.27
   2   5   2    8.22    0.22
   2   5   2    8.15    0.27
   2   5   2    8.46    0.28
  -3  -5  -2   88.37    1.94
  -3  -5  -2   84.62    1.94
  -3  -5  -2   85.89    1.95
  -3  -5  -2   89.15    1.95
  -3  -5  -2   89.61    1.94
  -3  -5  -2   86.06    1.97
   3   5   2   85.98    1.97
   3   5   2   89.99    1.92
   3   5   2   89.66    1.96
   3   5   2   88.78    1.94
  -4  -5  -2   15.00    0.42
  -4  -5  -2   14.46    0.43
  -4  -5  -2   15.10    0.43
  -4  -5  -2   14.42    0.41
  -4  -5  -2   14.61    0.41
  -4  -5  -2   14.67    0.42
   4   5   2   14.39    0.41
   4   5   2   14.48    0.44
   4   5   2   14.71    0.41
   4   5   2   14.86    0.44
  -5  -5  -2    0.15    0.07
  -5  -5  -2    0.21    0.07
  -5  -5  -2    0.19    0.07
  -5  -5  -2    0.23    0.07
  -5  -5  -2    0.14    0.08
  -5  -5  -2    0.23    0.08
   5   5   2    0.08    0.06
   5   5   2    0.15    0.08
   5   5   2    0.19    0.08
  -6  -5  -2    1.10    0.14
  -6  -5  -2    0.95    0.12
  -6  -5  -2    1.00    0.12
  -6  -5  -2    1.40    0.14
  -6  -5  -2    1.14    0.13
   6   5   2    1.28    0.14
   6   5   2    1.32    0.17
  -7  -5  -2    6.16    0.32
  -7  -5  -2    6.05    0.27
   7   5   2    5.65    0.30
  -8  -5  -2    3.50    0.22
  -8  -5  -2    2.73    0.25
   8   5   2    3.19    0.25
  -9  -5  -2    0.04    0.14
  -9  -5  -2    0.12    0.11
   9   5   2    0.14    0.15
   8  -6  -2    1.28    0.23
  -8   6   2    1.67    0.13
   7  -6  -2   10.35    0.49
   7  -6  -2   10.16    0.46
  -7   6   2    9.44    0.52
  -7   6   2    9.51    0.31
   6  -6  -2    7.17    0.36
   6  -6  -2    6.42    0.37
  -6   6   2    7.09    0.25
  -6   6   2    6.44    0.35
   5  -6  -2    5.58    0.32
   5  -6  -2    5.82    0.30
  -5   6   2    5.69    0.31
  -5   6   2    6.00    0.22
   4  -6  -2   34.30    0.90
   4  -6  -2   35.81    0.93
  -4   6   2   33.33    0.82
  -4   6   2   33.67    0.91
   3  -6  -2    0.50    0.09
   3  -6  -2    0.53    0.10
   3  -6  -2    0.74    0.13
   3  -6  -2    0.77    0.11
  -3   6   2    0.56    0.07
  -3   6   2    0.59    0.12
  -3   6   2    0.48    0.08
   2  -6  -2    4.06    0.22
   2  -6  -2    4.34    0.21
   2  -6  -2    4.22    0.20
   2  -6  -2    4.54    0.20
  -2   6   2    4.29    0.18
  -2   6   2    4.21    0.19
  -2   6   2    4.58    0.23
  -2   6   2    4.60    0.19
   1  -6  -2    0.11    0.06
   1  -6  -2    0.13    0.06
   1  -6  -2    0.32    0.08
   1  -6  -2    0.19    0.06
   1  -6  -2    0.15    0.07
   1  -6  -2    0.11    0.05
   1  -6  -2    0.25    0.07
  -1   6   2    0.09    0.06
  -1   6   2    0.11    0.06
  -1   6   2    0.09    0.06
   0  -6  -2   18.31    0.47
   0  -6  -2   17.61    0.49
   0  -6  -2   17.74    0.50
   0  -6  -2   17.68    0.48
   0  -6  -2   17.37    0.48
   0  -6  -2   18.07    0.48
   0   6   2   17.97    0.49
   0   6   2   17.77    0.48
   0   6   2   17.92    0.48
  -1  -6  -2    0.86    0.10
  -1  -6  -2    1.04    0.11
  -1  -6  -2    0.90    0.11
  -1  -6  -2    0.91    0.08
  -1  -6  -2    0.92    0.10
   1   6   2    0.98    0.10
   1   6   2    0.93    0.10
   1   6   2    0.85    0.10
  -2  -6  -2  114.54    2.50
  -2  -6  -2  110.76    2.52
  -2  -6  -2  115.99    2.49
  -2  -6  -2  112.80    2.50
  -2  -6  -2  113.16    2.49
   2   6   2  110.57    2.49
   2   6   2  113.84    2.49
   2   6   2  117.93    2.47
   2   6   2  114.53    2.50
   2   6   2  111.89    2.52
  -3  -6  -2   35.19    0.82
  -3  -6  -2   34.02    0.84
  -3  -6  -2   33.80    0.83
  -3  -6  -2   34.08    0.85
  -3  -6  -2   34.74    0.84
  -3  -6  -2   32.54    0.86
   3   6   2   34.28    0.79
   3   6   2   34.32    0.87
   3   6   2   34.49    0.84
   3   6   2   34.78    0.85
  -4  -6  -2    0.33    0.08
  -4  -6  -2    0.26    0.08
  -4  -6  -2    0.37    0.08
  -4  -6  -2    0.29    0.08
  -4  -6  -2    0.20    0.07
  -4  -6  -2    0.29    0.08
   4   6   2    0.26    0.09
   4   6   2    0.41    0.08
   4   6   2    0.25    0.09
   4   6   2    0.13    0.07
  -5  -6  -2   12.81    0.40
  -5  -6  -2   12.73    0.39
  -5  -6  -2   13.91    0.42
  -5  -6  -2   13.37    0.43
  -5  -6  -2   12.60    0.41
  -5  -6  -2   12.72    0.42
   5   6   2   12.94    0.40
   5   6   2   13.08    0.40
   5   6   2   13.03    0.44
  -6  -6  -2    0.48    0.11
  -6  -6  -2    0.59    0.13
  -6  -6  -2    0.48    0.11
  -6  -6  -2    0.50    0.10
   6   6   2    0.59    0.13
   6   6   2    0.64    0.12
  -7  -6  -2    0.74    0.16
  -7  -6  -2    1.00    0.14
  -7  -6  -2    1.21    0.15
   7   6   2    0.82    0.15
   7   6   2    0.96    0.17
  -8  -6  -2    0.21    0.11
  -8  -6  -2    0.01    0.13
   8   6   2    0.01    0.13
  -9  -6  -2    1.52    0.23
  -9  -6  -2    1.66    0.19
   7  -7  -2    1.11    0.22
   7  -7  -2    1.07    0.21
  -7   7   2    1.20    0.12
   6  -7  -2    5.82    0.37
   6  -7  -2    6.50    0.36
  -6   7   2    6.04    0.24
   5  -7  -2   37.53    1.02
   5  -7  -2   36.88    1.04
  -5   7   2   37.33    0.90
   4  -7  -2    0.16    0.11
   4  -7  -2    0.09    0.10
  -4   7   2    0.10    0.07
   3  -7  -2    0.59    0.11
   3  -7  -2    0.77    0.13
   3  -7  -2    0.68    0.13
   3  -7  -2    0.67    0.12
  -3   7   2    0.81    0.10
  -3   7   2    0.81    0.09
   2  -7  -2   16.80    0.49
   2  -7  -2   17.36    0.53
   2  -7  -2   16.59    0.51
   2  -7  -2   17.47    0.51
  -2   7   2   17.06    0.68
  -2   7   2   17.15    0.48
  -2   7   2   18.23    0.49
  -2   7   2   16.54    0.48
   1  -7  -2    2.28    0.16
   1  -7  -2    2.09    0.16
   1  -7  -2    2.49    0.16
   1  -7  -2    2.40    0.17
   1  -7  -2    2.27    0.13
  -1   7   2    2.61    0.18
  -1   7   2    2.36    0.15
  -1   7   2    2.38    0.16
  -1   7   2    2.08    0.15
   0  -7  -2    0.49    0.09
   0  -7  -2    0.39    0.09
   0  -7  -2    0.41    0.09
   0  -7  -2    0.47    0.09
   0  -7  -2    0.49    0.10
   0  -7  -2    0.51    0.08
   0   7   2    0.46    0.09
   0   7   2    0.58    0.09
   0   7   2    0.47    0.09
   0   7   2    0.63    0.10
  -1  -7  -2    4.06    0.18
  -1  -7  -2    4.00    0.21
  -1  -7  -2    3.98    0.19
  -1  -7  -2    3.59    0.20
  -1  -7  -2    3.92    0.19
   1   7   2    3.68    0.20
   1   7   2    3.99    0.19
   1   7   2    3.93    0.19
  -2  -7  -2   66.91    1.52
  -2  -7  -2   64.39    1.51
  -2  -7  -2   64.02    1.54
  -2  -7  -2   65.42    1.51
   2   7   2   66.22    1.51
   2   7   2   67.06    1.52
   2   7   2   65.16    1.54
  -3  -7  -2   54.44    1.27
  -3  -7  -2   54.24    1.27
  -3  -7  -2   54.13    1.28
  -3  -7  -2   55.21    1.31
   3   7   2   53.14    1.28
   3   7   2   53.25    1.31
   3   7   2   53.77    1.27
  -4  -7  -2   20.42    0.60
  -4  -7  -2   20.96    0.59
  -4  -7  -2   21.04    0.57
  -4  -7  -2   21.40    0.58
  -4  -7  -2   19.73    0.57
  -4  -7  -2   20.16    0.56
   4   7   2   20.89    0.59
   4   7   2   19.14    0.60
   4   7   2   20.73    0.58
  -5  -7  -2   20.32    0.58
  -5  -7  -2   21.06    0.59
  -5  -7  -2   19.65    0.56
  -5  -7  -2   20.05    0.58
  -5  -7  -2   18.84    0.56
  -5  -7  -2   20.61    0.79
   5   7   2   19.15    0.56
   5   7   2   19.93    0.60
  -6  -7  -2    1.30    0.15
  -6  -7  -2    1.34    0.16
  -6  -7  -2    1.43    0.17
  -6  -7  -2    1.33    0.15
   6   7   2    1.60    0.18
  -7  -7  -2    1.61    0.18
  -7  -7  -2    2.04    0.20
  -7  -7  -2    1.83    0.21
   7   7   2    2.11    0.23
  -8  -7  -2    0.14    0.11
  -8  -7  -2    0.15    0.14
  -8  -7  -2    0.12    0.12
  -9  -7  -2    2.78    0.29
  -9  -7  -2    3.16    0.25
   7  -8  -2    0.09    0.17
  -7   8   2    0.03    0.08
   6  -8  -2    5.24    0.38
   6  -8  -2    5.63    0.36
  -6   8   2    5.76    0.25
   5  -8  -2    6.12    0.38
   5  -8  -2    6.20    0.35
  -5   8   2    5.81    0.25
   4  -8  -2    0.81    0.15
   4  -8  -2    0.83    0.17
  -4   8   2    0.93    0.12
   3  -8  -2   27.19    0.77
   3  -8  -2   27.47    0.80
   3  -8  -2   26.54    0.74
   3  -8  -2   28.82    0.79
  -3   8   2   27.48    0.69
  -3   8   2   27.56    0.72
   2  -8  -2   21.66    0.62
   2  -8  -2   21.65    0.64
   2  -8  -2   20.80    0.62
   2  -8  -2   20.53    0.60
  -2   8   2   20.73    0.59
  -2   8   2   21.19    0.58
  -2   8   2   20.81    0.58
   1  -8  -2    4.93    0.24
   1  -8  -2    4.18    0.23
   1  -8  -2    4.81    0.25
   1  -8  -2    4.54    0.25
  -1   8   2    4.62    0.23
  -1   8   2    4.65    0.23
  -1   8   2    4.78    0.23
   0  -8  -2    0.84    0.11
   0  -8  -2    0.81    0.12
   0  -8  -2    0.91    0.12
   0  -8  -2    0.70    0.11
   0  -8  -2    0.95    0.13
   0   8   2    0.94    0.12
   0   8   2    0.94    0.12
   0   8   2    0.63    0.11
  -1  -8  -2    5.75    0.26
  -1  -8  -2    6.38    0.29
  -1  -8  -2    5.82    0.27
  -1  -8  -2    6.67    0.26
   1   8   2    5.94    0.26
   1   8   2    6.13    0.28
   1   8   2    6.47    0.27
   1   8   2    6.10    0.27
  -2  -8  -2    0.17    0.09
  -2  -8  -2    0.16    0.09
  -2  -8  -2    0.18    0.08
  -2  -8  -2    0.14    0.09
   2   8   2    0.15    0.09
   2   8   2    0.18    0.08
   2   8   2    0.12    0.09
  -3  -8  -2   67.67    1.59
  -3  -8  -2   69.54    1.63
  -3  -8  -2   70.08    1.59
  -3  -8  -2   66.89    1.58
   3   8   2   66.63    1.62
   3   8   2   68.36    1.59
   3   8   2   66.07    1.57
  -4  -8  -2   27.93    0.74
  -4  -8  -2   27.96    0.76
  -4  -8  -2   28.45    0.74
   4   8   2   26.74    0.75
   4   8   2   27.64    0.78
   4   8   2   26.56    0.75
  -5  -8  -2    4.60    0.25
  -5  -8  -2    5.15    0.28
  -5  -8  -2    4.25    0.24
   5   8   2    5.02    0.27
   5   8   2    4.45    0.25
  -6  -8  -2    2.74    0.22
  -6  -8  -2    2.35    0.22
  -6  -8  -2    2.85    0.22
   6   8   2    2.46    0.23
  -7  -8  -2    6.00    0.34
  -7  -8  -2    5.69    0.32
  -7  -8  -2    6.43    0.34
   7   8   2    6.26    0.36
  -8  -8  -2    0.21    0.13
  -8  -8  -2    0.01    0.13
  -8  -8  -2    0.05    0.12
   6  -9  -2    1.36    0.23
  -6   9   2    1.31    0.14
   5  -9  -2    2.57    0.26
   5  -9  -2    2.54    0.28
  -5   9   2    2.46    0.20
   4  -9  -2   23.88    0.75
   4  -9  -2   24.04    0.77
  -4   9   2   22.84    0.65
   3  -9  -2   13.80    0.52
   3  -9  -2   15.83    0.56
   3  -9  -2   15.34    0.50
  -3   9   2   14.89    0.47
   2  -9  -2    0.73    0.15
   2  -9  -2    0.97    0.16
   2  -9  -2    0.76    0.14
   2  -9  -2    1.06    0.15
  -2   9   2    1.06    0.13
  -2   9   2    1.29    0.15
   1  -9  -2    7.16    0.33
   1  -9  -2    6.78    0.31
   1  -9  -2    7.40    0.33
   1  -9  -2    6.75    0.32
  -1   9   2    7.70    0.31
  -1   9   2    7.51    0.31
   0  -9  -2    3.56    0.23
   0  -9  -2    3.38    0.20
   0  -9  -2    3.43    0.23
   0   9   2    3.54    0.23
   0   9   2    3.47    0.22
  -1  -9  -2    7.05    0.32
  -1  -9  -2    7.31    0.33
  -1  -9  -2    6.97    0.31
  -1  -9  -2    7.17    0.29
   1   9   2    7.13    0.32
  -2  -9  -2    1.76    0.17
  -2  -9  -2    1.40    0.16
  -2  -9  -2    1.26    0.16
  -2  -9  -2    1.57    0.16
   2   9   2    1.58    0.17
  -3  -9  -2   15.71    0.51
  -3  -9  -2   16.48    0.51
  -3  -9  -2   14.97    0.50
   3   9   2   15.52    0.51
  -4  -9  -2    2.11    0.19
  -4  -9  -2    2.52    0.21
  -4  -9  -2    1.81    0.19
   4   9   2    1.95    0.19
  -5  -9  -2    7.17    0.33
  -5  -9  -2    7.77    0.36
  -5  -9  -2    7.62    0.34
   5   9   2    7.72    0.35
   5   9   2    7.19    0.34
  -6  -9  -2   40.71    1.08
  -6  -9  -2   40.61    1.05
   6   9   2   38.52    1.07
   6   9   2   40.03    1.08
  -7  -9  -2    3.36    0.28
  -7  -9  -2    3.43    0.33
   7   9   2    3.34    0.29
  -8  -9  -2    0.07    0.14
  -8  -9  -2    0.12    0.15
   5 -10  -2    4.09    0.34
  -5  10   2    4.42    0.53
  -5  10   2    4.68    0.26
   4 -10  -2    1.69    0.23
   4 -10  -2    0.97    0.21
  -4  10   2    1.04    0.15
   3 -10  -2    0.35    0.14
   3 -10  -2    0.48    0.16
   3 -10  -2    0.11    0.15
  -3  10   2    0.31    0.11
   2 -10  -2   19.71    0.64
   2 -10  -2   18.19    0.62
   2 -10  -2   19.23    0.61
   2 -10  -2   19.09    0.63
  -2  10   2   18.44    0.58
  -2  10   2   19.10    0.60
   1 -10  -2   17.66    0.60
   1 -10  -2   18.84    0.60
   1 -10  -2   18.39    0.59
  -1  10   2   18.84    0.66
  -1  10   2   17.33    0.56
  -1  10   2   19.51    0.60
   0 -10  -2    5.28    0.30
   0 -10  -2    5.03    0.29
   0  10   2    4.80    0.27
   0  10   2    4.95    0.34
   0  10   2    5.62    0.29
  -1 -10  -2    6.17    0.32
  -1 -10  -2    6.25    0.30
  -1 -10  -2    5.43    0.28
   1  10   2    5.82    0.31
  -2 -10  -2    1.05    0.16
  -2 -10  -2    1.09    0.16
  -2 -10  -2    1.33    0.16
   2  10   2    1.01    0.16
  -3 -10  -2    1.31    0.18
  -3 -10  -2    1.33    0.17
  -3 -10  -2    1.21    0.17
   3  10   2    1.51    0.19
  -4 -10  -2    3.02    0.24
  -4 -10  -2    3.06    0.25
  -4 -10  -2    2.83    0.23
   4  10   2    3.29    0.26
  -5 -10  -2   10.04    0.42
  -5 -10  -2    9.61    0.40
   5  10   2    9.27    0.41
  -6 -10  -2    0.44    0.14
  -6 -10  -2    0.60    0.16
   6  10   2    0.49    0.14
  -7 -10  -2    3.03    0.28
  -7 -10  -2    2.92    0.28
   4 -11  -2    1.39    0.23
  -4  11   2    1.52    0.18
   3 -11  -2    6.21    0.38
   3 -11  -2    5.72    0.38
   3 -11  -2    5.10    0.34
  -3  11   2    5.97    0.43
  -3  11   2    6.05    0.32
   2 -11  -2    9.01    0.44
   2 -11  -2   10.22    0.44
  -2  11   2    9.87    0.41
  -2  11   2   10.03    0.51
   1 -11  -2    0.59    0.16
   1 -11  -2    0.58    0.16
  -1  11   2    0.42    0.14
  -1  11   2    0.44    0.13
  -1  11   2    0.79    0.19
   0 -11  -2   14.41    0.53
   0 -11  -2   13.52    0.50
   0  11   2   12.86    0.50
  -1 -11  -2    4.80    0.32
  -1 -11  -2    5.20    0.28
  -1 -11  -2    5.42    0.31
   1  11   2    5.41    0.32
  -2 -11  -2    4.11    0.29
  -2 -11  -2    3.90    0.27
  -2 -11  -2    4.13    0.28
   2  11   2    3.82    0.29
  -3 -11  -2    0.07    0.13
  -3 -11  -2    0.17    0.12
  -3 -11  -2    0.04    0.12
   3  11   2   -0.01    0.12
  -4 -11  -2    0.41    0.15
  -4 -11  -2    0.94    0.17
  -4 -11  -2    0.53    0.15
   4  11   2    0.47    0.15
  -5 -11  -2    5.34    0.33
  -5 -11  -2    4.61    0.32
   5  11   2    4.53    0.32
  -6 -11  -2    0.56    0.17
  -6 -11  -2    0.76    0.17
   6  11   2    0.33    0.15
   2 -12  -2    0.20    0.17
  -2  12   2   -0.04    0.16
  -2  12   2    0.11    0.12
   1 -12  -2    8.13    0.44
   1 -12  -2    8.41    0.43
  -1  12   2    8.35    0.41
  -1  12   2    8.31    0.40
   0 -12  -2   12.99    0.53
   0 -12  -2   13.49    0.55
   0  12   2   13.79    0.54
  -1 -12  -2    0.01    0.13
  -1 -12  -2    0.10    0.14
   1  12   2   -0.11    0.13
  -2 -12  -2    7.07    0.38
  -2 -12  -2    7.18    0.36
  -2 -12  -2    6.76    0.38
   2  12   2    6.86    0.40
  -3 -12  -2    2.28    0.23
  -3 -12  -2    1.71    0.22
  -3 -12  -2    1.92    0.23
   3  12   2    1.67    0.22
  -4 -12  -2    0.19    0.16
  -4 -12  -2    0.49    0.16
  -4 -12  -2    0.46    0.16
   4  12   2    0.19    0.15
  -5 -12  -2    0.39    0.17
  -5 -12  -2    0.18    0.15
   5  12   2    0.16    0.16
   0 -13  -2   -0.13    0.16
   0  13   2   -0.04    0.15
  -1 -13  -2    3.83    0.32
   1  13   2    4.22    0.35
  -2 -13  -2    6.32    0.40
   2  13   2    6.66    0.41
  -3 -13  -2   -0.19    0.15
   3  13   2    0.12    0.16
   4  12  -3    4.53    0.37
  -4 -12   3    4.34    0.33
  -4 -12   3    4.29    0.32
   3  12  -3    0.32    0.17
  -3 -12   3    0.00    0.15
  -3 -12   3    0.10    0.14
   2  12  -3    1.69    0.24
  -2 -12   3    2.08    0.25
  -2 -12   3    1.39    0.27
   1  12  -3    0.27    0.16
  -1 -12   3    0.54    0.22
  -1 -12   3    0.47    0.17
   0  12  -3    6.03    0.37
   0 -12   3    6.25    0.37
  -1  12  -3    9.98    0.54
  -1  12  -3   10.96    0.54
  -1  12  -3   10.82    0.45
   1 -12   3   10.29    0.49
  -2  12  -3    0.16    0.20
  -2  12  -3    0.33    0.14
   2 -12   3    0.11    0.17
   5  11  -3    1.18    0.21
  -5 -11   3    1.18    0.20
   4  11  -3    1.08    0.20
  -4 -11   3    0.93    0.17
  -4 -11   3    1.03    0.18
   3  11  -3   -0.05    0.13
  -3 -11   3    0.08    0.13
  -3 -11   3   -0.01    0.12
   2  11  -3    0.05    0.14
  -2 -11   3    0.04    0.11
  -2 -11   3    0.19    0.14
   1  11  -3   10.81    0.46
  -1 -11   3   10.83    0.45
  -1 -11   3    9.78    0.51
   0  11  -3   22.14    0.68
   0  11  -3   21.82    0.70
   0 -11   3   21.72    0.81
   0 -11   3   23.22    0.71
  -1  11  -3    1.30    0.23
  -1  11  -3    1.57    0.20
  -1  11  -3    1.24    0.18
   1 -11   3    1.05    0.24
   1 -11   3    1.35    0.21
  -2  11  -3    4.90    0.40
  -2  11  -3    3.88    0.28
   2 -11   3    4.10    0.31
   2 -11   3    4.31    0.33
  -3  11  -3   11.24    0.43
  -3  11  -3   10.62    0.57
   3 -11   3   11.31    0.50
   3 -11   3   11.85    0.53
  -4  11  -3    0.27    0.12
   4 -11   3    0.26    0.18
   6  10  -3   10.74    0.47
  -6 -10   3   10.00    0.47
   5  10  -3   23.11    0.75
  -5 -10   3   24.54    0.76
   4  10  -3    4.45    0.31
  -4 -10   3    4.65    0.30
  -4 -10   3    4.83    0.28
   3  10  -3   -0.03    0.11
  -3 -10   3    0.02    0.11
  -3 -10   3    0.36    0.12
   2  10  -3    0.73    0.15
  -2 -10   3    0.83    0.14
  -2 -10   3    0.69    0.15
   1  10  -3    7.38    0.35
  -1 -10   3    6.11    0.30
  -1 -10   3    6.57    0.33
  -1 -10   3    6.29    0.40
   0  10  -3    6.35    0.37
   0  10  -3    6.69    0.33
   0  10  -3    6.02    0.31
   0 -10   3    6.24    0.32
   0 -10   3    5.56    0.39
  -1  10  -3    5.26    0.29
  -1  10  -3    4.72    0.27
  -1  10  -3    4.14    0.34
   1 -10   3    4.29    0.29
   1 -10   3    5.13    0.31
   1 -10   3    4.12    0.34
  -2  10  -3   15.80    0.65
  -2  10  -3   17.07    0.53
   2 -10   3   16.00    0.65
   2 -10   3   16.45    0.57
   2 -10   3   17.13    0.60
  -3  10  -3    0.31    0.11
  -3  10  -3    0.01    0.16
   3 -10   3    0.39    0.15
   3 -10   3    0.27    0.15
  -4  10  -3    5.42    0.42
  -4  10  -3    4.74    0.26
   4 -10   3    4.17    0.34
   4 -10   3    5.15    0.37
  -5  10  -3    1.90    0.17
   5 -10   3    1.98    0.25
  -7  -9   3    1.65    0.23
  -7  -9   3    1.58    0.22
   6   9  -3   15.30    0.56
  -6  -9   3   15.91    0.58
   5   9  -3   10.40    0.44
  -5  -9   3   11.38    0.45
   4   9  -3    2.02    0.21
  -4  -9   3    2.20    0.21
  -4  -9   3    2.15    0.19
   3   9  -3    9.78    0.40
  -3  -9   3    9.89    0.38
  -3  -9   3   10.58    0.40
   2   9  -3    3.53    0.25
  -2  -9   3    3.10    0.22
  -2  -9   3    3.74    0.23
  -2  -9   3    3.21    0.24
   1   9  -3    0.46    0.11
   1   9  -3    0.49    0.13
   1   9  -3    0.65    0.13
  -1  -9   3    0.57    0.13
  -1  -9   3    0.48    0.11
   0   9  -3    1.29    0.16
   0   9  -3    1.24    0.16
   0   9  -3    1.34    0.19
   0  -9   3    1.38    0.16
   0  -9   3    1.44    0.17
   0  -9   3    1.29    0.20
  -1   9  -3    6.99    0.38
  -1   9  -3    7.30    0.31
  -1   9  -3    7.87    0.32
   1  -9   3    7.15    0.34
   1  -9   3    7.38    0.41
   1  -9   3    7.45    0.34
  -2   9  -3    3.52    0.31
  -2   9  -3    3.73    0.22
   2  -9   3    3.80    0.31
   2  -9   3    4.06    0.28
   2  -9   3    4.00    0.26
  -3   9  -3   11.98    0.39
  -3   9  -3   11.94    0.54
   3  -9   3   11.82    0.48
   3  -9   3   11.54    0.46
   3  -9   3   10.59    0.50
  -4   9  -3   20.56    0.77
  -4   9  -3   21.09    0.59
   4  -9   3   22.52    0.73
   4  -9   3   21.27    0.70
   4  -9   3   20.66    0.68
  -5   9  -3    0.15    0.09
  -5   9  -3    0.20    0.18
   5  -9   3    0.24    0.16
   5  -9   3    0.34    0.15
   5  -9   3    0.04    0.15
  -6   9  -3    5.29    0.23
   6  -9   3    6.07    0.40
  -8  -8   3    1.07    0.21
  -8  -8   3    0.95    0.19
  -7  -8   3    4.90    0.32
  -7  -8   3    4.68    0.32
   6   8  -3    3.61    0.26
  -6  -8   3    3.43    0.27
  -6  -8   3    3.47    0.28
   5   8  -3    0.68    0.14
  -5  -8   3    0.80    0.15
  -5  -8   3    0.50    0.13
   4   8  -3   30.39    0.84
  -4  -8   3   30.08    0.84
  -4  -8   3   33.03    1.03
  -4  -8   3   30.64    0.80
   3   8  -3    5.23    0.29
   3   8  -3    5.67    0.28
  -3  -8   3    5.17    0.25
  -3  -8   3    5.05    0.28
  -3  -8   3    5.37    0.27
   2   8  -3   17.48    0.57
   2   8  -3   18.58    0.56
  -2  -8   3   18.50    0.58
  -2  -8   3   18.39    0.54
  -2  -8   3   19.16    0.55
   1   8  -3   39.87    0.99
   1   8  -3   39.94    1.01
   1   8  -3   39.75    0.98
   1   8  -3   38.33    1.02
  -1  -8   3   39.63    0.97
  -1  -8   3   38.46    0.98
  -1  -8   3   37.66    1.01
   0   8  -3    0.68    0.11
   0   8  -3    0.68    0.12
   0   8  -3    0.65    0.11
   0   8  -3    0.49    0.13
   0  -8   3    0.86    0.10
   0  -8   3    0.72    0.12
   0  -8   3    0.61    0.11
   0  -8   3    0.51    0.14
  -1   8  -3    2.80    0.25
  -1   8  -3    2.72    0.19
  -1   8  -3    2.82    0.19
  -1   8  -3    2.85    0.19
   1  -8   3    3.27    0.22
   1  -8   3    3.19    0.27
   1  -8   3    2.86    0.20
  -2   8  -3    9.49    0.32
  -2   8  -3    8.88    0.31
  -2   8  -3    8.35    0.41
   2  -8   3    8.92    0.42
   2  -8   3    9.10    0.36
   2  -8   3    8.99    0.37
  -3   8  -3   30.01    0.76
  -3   8  -3   29.55    0.92
   3  -8   3   30.40    0.91
   3  -8   3   31.89    0.88
   3  -8   3   30.91    0.84
   3  -8   3   29.92    0.85
  -4   8  -3    4.42    0.33
  -4   8  -3    4.35    0.21
   4  -8   3    4.42    0.30
   4  -8   3    4.32    0.27
   4  -8   3    4.20    0.30
   4  -8   3    4.45    0.31
  -5   8  -3    0.08    0.07
  -5   8  -3    0.14    0.16
   5  -8   3    0.19    0.15
   5  -8   3    0.06    0.12
  -6   8  -3    1.79    0.28
  -6   8  -3    2.08    0.14
   6  -8   3    1.84    0.25
   6  -8   3    1.44    0.22
   7  -8   3    0.23    0.17
  -8  -7   3    0.02    0.13
  -8  -7   3    0.18    0.14
  -8  -7   3    0.20    0.15
   7   7  -3    2.17    0.24
  -7  -7   3    2.15    0.24
  -7  -7   3    2.10    0.22
   6   7  -3    0.25    0.11
  -6  -7   3    0.14    0.12
  -6  -7   3    0.02    0.10
   5   7  -3    9.50    0.40
   5   7  -3    9.68    0.38
  -5  -7   3    9.71    0.38
  -5  -7   3   10.30    0.39
   4   7  -3   11.32    0.40
   4   7  -3   11.23    0.42
  -4  -7   3   11.57    0.41
  -4  -7   3   11.36    0.42
  -4  -7   3   11.21    0.36
  -4  -7   3   11.12    0.39
   3   7  -3    1.23    0.15
   3   7  -3    1.44    0.16
  -3  -7   3    1.52    0.13
  -3  -7   3    1.56    0.15
  -3  -7   3    1.25    0.15
  -3  -7   3    1.51    0.13
  -3  -7   3    1.27    0.14
   2   7  -3   23.52    0.67
   2   7  -3   23.81    0.66
  -2  -7   3   24.46    0.63
  -2  -7   3   22.87    0.67
  -2  -7   3   24.69    0.65
   1   7  -3   34.18    0.90
   1   7  -3   33.20    0.86
   1   7  -3   34.53    0.88
   1   7  -3   35.20    0.86
  -1  -7   3   33.62    0.88
  -1  -7   3   35.34    0.85
  -1  -7   3   34.16    0.85
   0   7  -3    3.07    0.18
   0   7  -3    3.18    0.22
   0   7  -3    3.44    0.19
   0   7  -3    2.98    0.18
   0  -7   3    3.27    0.25
   0  -7   3    3.24    0.17
   0  -7   3    3.18    0.19
   0  -7   3    3.67    0.20
   0  -7   3    2.86    0.19
  -1   7  -3    0.27    0.08
  -1   7  -3    0.25    0.08
  -1   7  -3    0.38    0.11
  -1   7  -3    0.47    0.09
   1  -7   3    0.27    0.09
   1  -7   3    0.35    0.09
   1  -7   3    0.18    0.11
  -2   7  -3    2.32    0.15
  -2   7  -3    2.30    0.21
  -2   7  -3    2.28    0.14
   2  -7   3    2.28    0.18
   2  -7   3    2.07    0.22
   2  -7   3    2.33    0.20
  -3   7  -3    2.28    0.23
   3  -7   3    1.94    0.17
   3  -7   3    2.18    0.20
   3  -7   3    2.06    0.22
   3  -7   3    2.07    0.20
  -4   7  -3   11.97    0.35
  -4   7  -3   11.22    0.49
   4  -7   3   11.74    0.44
   4  -7   3   11.90    0.47
   4  -7   3   11.79    0.43
   4  -7   3   11.78    0.46
  -5   7  -3   45.23    1.25
  -5   7  -3   44.48    1.01
   5  -7   3   43.29    1.19
   5  -7   3   44.70    1.16
   5  -7   3   41.96    1.18
  -6   7  -3    9.22    0.49
  -6   7  -3    8.86    0.26
   6  -7   3    8.38    0.42
   6  -7   3    9.47    0.45
  -7   7  -3    1.48    0.26
   7  -7   3    0.94    0.19
   7  -7   3    1.05    0.22
  -9  -6   3    7.31    0.38
  -9  -6   3    7.07    0.44
  -8  -6   3    0.78    0.16
  -8  -6   3    0.88    0.17
  -8  -6   3    0.67    0.18
   7   6  -3    5.15    0.31
  -7  -6   3    4.66    0.30
  -7  -6   3    5.25    0.29
  -7  -6   3    4.90    0.29
   6   6  -3    0.11    0.11
  -6  -6   3    0.19    0.10
  -6  -6   3    0.16    0.10
  -6  -6   3    0.08    0.11
   5   6  -3   13.04    0.42
   5   6  -3   11.33    0.44
  -5  -6   3   12.22    0.61
  -5  -6   3   12.38    0.42
  -5  -6   3   12.45    0.43
  -5  -6   3   11.70    0.41
   4   6  -3    4.42    0.24
   4   6  -3    4.94    0.24
  -4  -6   3    4.84    0.24
  -4  -6   3    5.00    0.23
  -4  -6   3    4.23    0.24
  -4  -6   3    5.08    0.24
   3   6  -3   47.20    1.18
   3   6  -3   49.72    1.16
  -3  -6   3   47.34    1.10
  -3  -6   3   47.03    1.15
  -3  -6   3   47.41    1.18
  -3  -6   3   48.95    1.11
  -3  -6   3   48.05    1.14
   2   6  -3   52.16    1.20
   2   6  -3   49.82    1.22
   2   6  -3   51.16    1.20
  -2  -6   3   50.78    1.18
  -2  -6   3   49.74    1.22
  -2  -6   3   50.56    1.17
  -2  -6   3   50.88    1.20
   1   6  -3    1.69    0.13
   1   6  -3    1.24    0.12
   1   6  -3    1.42    0.13
   1   6  -3    1.72    0.15
  -1  -6   3    1.60    0.13
  -1  -6   3    1.66    0.13
  -1  -6   3    1.63    0.14
  -1  -6   3    1.77    0.13
   0   6  -3   46.67    1.11
   0   6  -3   42.03    1.04
   0   6  -3   43.47    1.05
   0   6  -3   44.32    1.04
   0  -6   3   45.65    1.13
   0  -6   3   42.25    1.04
   0  -6   3   45.16    1.06
   0  -6   3   44.25    1.06
   0  -6   3   44.25    1.03
  -1   6  -3    2.03    0.13
  -1   6  -3    1.96    0.18
  -1   6  -3    2.01    0.13
  -1   6  -3    1.88    0.13
   1  -6   3    1.87    0.16
   1  -6   3    1.94    0.14
   1  -6   3    1.98    0.11
   1  -6   3    2.25    0.21
   1  -6   3    1.92    0.13
  -2   6  -3    2.94    0.15
  -2   6  -3    3.00    0.22
  -2   6  -3    3.03    0.15
   2  -6   3    3.23    0.23
   2  -6   3    3.02    0.19
   2  -6   3    2.67    0.17
   2  -6   3    3.46    0.21
  -3   6  -3    0.02    0.09
   3  -6   3    0.02    0.07
   3  -6   3   -0.01    0.08
   3  -6   3    0.07    0.09
   3  -6   3    0.05    0.08
  -4   6  -3   29.79    0.70
  -4   6  -3   29.88    0.88
   4  -6   3   29.93    0.79
   4  -6   3   28.90    0.84
   4  -6   3   30.15    0.83
   4  -6   3   28.59    0.80
  -5   6  -3    2.04    0.23
  -5   6  -3    2.09    0.11
   5  -6   3    1.83    0.20
   5  -6   3    1.98    0.20
   5  -6   3    1.93    0.21
  -6   6  -3    1.53    0.23
   6  -6   3    0.98    0.17
   6  -6   3    1.49    0.22
   6  -6   3    1.27    0.20
  -7   6  -3    9.07    0.48
   7  -6   3    8.66    0.41
   7  -6   3    9.61    0.45
  -8   6  -3    3.03    0.33
   8  -6   3    2.86    0.29
  -9  -5   3    2.38    0.23
  -9  -5   3    2.71    0.29
   8   5  -3    1.16    0.19
  -8  -5   3    0.94    0.16
  -8  -5   3    1.32    0.21
   7   5  -3    3.56    0.27
  -7  -5   3    3.64    0.24
  -7  -5   3    3.64    0.27
  -7  -5   3    3.68    0.25
   6   5  -3   -0.05    0.10
  -6  -5   3    0.07    0.09
  -6  -5   3    0.07    0.09
  -6  -5   3    0.10    0.10
   5   5  -3    0.21    0.08
  -5  -5   3    0.25    0.09
  -5  -5   3    0.31    0.10
  -5  -5   3    0.24    0.09
  -5  -5   3    0.25    0.10
   4   5  -3    9.77    0.33
   4   5  -3    9.03    0.34
  -4  -5   3    9.97    0.35
  -4  -5   3    9.26    0.33
  -4  -5   3    9.14    0.33
  -4  -5   3    9.12    0.32
   3   5  -3   53.45    1.26
   3   5  -3   52.68    1.28
  -3  -5   3   53.73    1.25
  -3  -5   3   53.80    1.20
  -3  -5   3   52.10    1.27
  -3  -5   3   53.63    1.25
  -3  -5   3   56.32    1.25
   2   5  -3    0.13    0.06
   2   5  -3    0.05    0.05
   2   5  -3    0.14    0.06
  -2  -5   3    0.06    0.06
  -2  -5   3    0.21    0.07
  -2  -5   3    0.06    0.06
  -2  -5   3    0.14    0.06
  -2  -5   3    0.10    0.06
   1   5  -3  154.69    3.26
   1   5  -3  150.29    3.27
   1   5  -3  146.50    3.28
  -1  -5   3  152.06    3.26
  -1  -5   3  150.00    3.25
  -1  -5   3  149.53    3.28
  -1  -5   3  152.13    3.26
   0   5  -3   63.14    1.41
   0   5  -3   63.29    1.40
   0   5  -3   63.23    1.46
   0   5  -3   60.92    1.42
   0  -5   3   64.39    1.43
   0  -5   3   60.72    1.39
   0  -5   3   63.08    1.41
   0  -5   3   59.89    1.42
  -1   5  -3    3.14    0.15
  -1   5  -3    3.51    0.20
  -1   5  -3    3.59    0.16
  -1   5  -3    3.45    0.15
   1  -5   3    3.42    0.22
   1  -5   3    3.11    0.17
   1  -5   3    3.34    0.16
   1  -5   3    3.51    0.16
   1  -5   3    3.39    0.13
   1  -5   3    3.36    0.14
  -2   5  -3   10.41    0.29
  -2   5  -3   10.33    0.29
  -2   5  -3   10.33    0.29
   2  -5   3   10.50    0.33
   2  -5   3   10.48    0.30
   2  -5   3   10.32    0.34
   2  -5   3   10.04    0.35
   2  -5   3   10.52    0.39
  -3   5  -3    0.09    0.08
  -3   5  -3    0.05    0.04
   3  -5   3   -0.07    0.05
   3  -5   3   -0.08    0.07
   3  -5   3    0.10    0.05
   3  -5   3    0.09    0.07
   3  -5   3    0.08    0.08
  -4   5  -3    1.15    0.09
  -4   5  -3    1.34    0.18
   4  -5   3    1.01    0.15
   4  -5   3    1.28    0.16
   4  -5   3    1.53    0.15
   4  -5   3    1.16    0.11
  -5   5  -3    0.26    0.12
  -5   5  -3    0.31    0.05
   5  -5   3    0.52    0.13
   5  -5   3    0.32    0.10
   5  -5   3    0.23    0.11
   5  -5   3    0.26    0.10
  -6   5  -3   13.36    0.48
  -6   5  -3   16.42    0.58
   6  -5   3   13.56    0.51
   6  -5   3   13.53    0.51
   6  -5   3   13.63    0.49
  -7   5  -3   12.26    0.54
   7  -5   3   11.97    0.47
   7  -5   3   12.42    0.50
   7  -5   3   11.69    0.71
  -8   5  -3    6.30    0.42
   8  -5   3    6.07    0.38
   8  -5   3    5.02    0.34
   9   4  -3   12.78    0.54
  -9  -4   3   14.30    0.50
  -9  -4   3   13.36    0.57
   8   4  -3   27.76    0.83
  -8  -4   3   27.16    0.77
  -8  -4   3   27.22    0.84
   7   4  -3    3.22    0.25
  -7  -4   3    2.81    0.21
  -7  -4   3    3.19    0.26
  -7  -4   3    2.87    0.22
   6   4  -3    4.21    0.25
  -6  -4   3    4.28    0.23
  -6  -4   3    4.80    0.24
  -6  -4   3    4.40    0.26
  -6  -4   3    4.69    0.24
   5   4  -3    1.91    0.17
   5   4  -3    2.22    0.15
  -5  -4   3    1.72    0.15
  -5  -4   3    2.19    0.16
  -5  -4   3    1.90    0.16
  -5  -4   3    1.86    0.17
   4   4  -3    6.17    0.26
   4   4  -3    6.80    0.25
  -4  -4   3    6.70    0.25
  -4  -4   3    6.65    0.26
  -4  -4   3    6.41    0.26
  -4  -4   3    6.28    0.25
   3   4  -3    1.43    0.12
   3   4  -3    1.18    0.12
  -3  -4   3    1.14    0.11
  -3  -4   3    1.29    0.12
  -3  -4   3    1.29    0.11
  -3  -4   3    1.36    0.12
   2   4  -3    1.82    0.12
   2   4  -3    1.83    0.13
   2   4  -3    1.51    0.11
  -2  -4   3    1.91    0.12
  -2  -4   3    1.67    0.12
  -2  -4   3    1.72    0.12
  -2  -4   3    1.88    0.12
   1   4  -3  102.49    2.22
   1   4  -3  102.58    2.20
   1   4  -3   99.99    2.20
  -1  -4   3  100.45    2.20
  -1  -4   3   98.13    2.22
   0   4  -3    2.36    0.15
   0   4  -3    2.26    0.13
   0   4  -3    2.41    0.12
   0   4  -3    2.13    0.14
   0   4  -3    1.94    0.11
   0  -4   3    2.24    0.12
   0  -4   3    1.96    0.11
   0  -4   3    2.02    0.13
  -1   4  -3   53.36    1.19
  -1   4  -3   53.76    1.26
  -1   4  -3   51.70    1.18
  -1   4  -3   54.45    1.19
  -1   4  -3   53.47    1.20
   1  -4   3   52.55    1.28
   1  -4   3   52.65    1.23
   1  -4   3   53.35    1.17
   1  -4   3   53.63    1.19
   1  -4   3   53.66    1.20
  -2   4  -3    9.96    0.27
  -2   4  -3    9.65    0.26
  -2   4  -3    9.64    0.34
  -2   4  -3    9.96    0.26
  -2   4  -3    9.66    0.27
  -2   4  -3    9.17    0.28
   2  -4   3   10.07    0.30
   2  -4   3    9.96    0.35
   2  -4   3   10.21    0.32
   2  -4   3   10.34    0.28
   2  -4   3    9.77    0.28
   2  -4   3    9.91    0.32
  -3   4  -3    5.03    0.16
  -3   4  -3    5.31    0.16
  -3   4  -3    4.89    0.25
   3  -4   3    5.29    0.19
   3  -4   3    4.86    0.23
   3  -4   3    5.23    0.25
   3  -4   3    5.42    0.22
   3  -4   3    5.02    0.21
  -4   4  -3   10.46    0.27
  -4   4  -3   10.16    0.40
   4  -4   3   10.35    0.32
   4  -4   3   10.66    0.36
   4  -4   3   10.43    0.37
   4  -4   3   11.59    0.40
  -5   4  -3    3.22    0.24
   5  -4   3    3.10    0.20
   5  -4   3    3.14    0.22
   5  -4   3    3.16    0.18
   5  -4   3    3.43    0.22
  -6   4  -3    2.93    0.21
  -6   4  -3    3.34    0.26
   6  -4   3    2.81    0.21
   6  -4   3    2.92    0.23
   6  -4   3    3.02    0.24
   6  -4   3    2.63    0.19
  -7   4  -3    0.34    0.14
   7  -4   3    0.18    0.12
   7  -4   3    0.40    0.14
   7  -4   3    0.29    0.13
   7  -4   3    0.51    0.12
   8  -4   3    7.41    0.37
   8  -4   3    7.82    0.40
   9  -4   3    4.85    0.35
   9   3  -3    7.92    0.41
  -9  -3   3    7.53    0.44
  -9  -3   3    7.22    0.35
  -9  -3   3    7.84    0.42
   8   3  -3    5.73    0.34
  -8  -3   3    5.60    0.28
  -8  -3   3    5.50    0.34
   7   3  -3    8.55    0.37
  -7  -3   3    8.06    0.32
  -7  -3   3    8.56    0.33
  -7  -3   3    8.13    0.37
   6   3  -3   13.65    0.45
  -6  -3   3   12.33    0.40
  -6  -3   3   12.59    0.45
  -6  -3   3   12.82    0.41
  -6  -3   3   12.35    0.41
   5   3  -3   11.40    0.35
   5   3  -3   11.71    0.40
  -5  -3   3   11.89    0.37
  -5  -3   3   11.70    0.38
  -5  -3   3   12.03    0.37
  -5  -3   3   11.91    0.40
   4   3  -3    4.13    0.18
   4   3  -3    4.00    0.20
  -4  -3   3    4.34    0.19
  -4  -3   3    4.17    0.20
  -4  -3   3    4.00    0.20
  -4  -3   3    4.12    0.18
   3   3  -3    3.26    0.16
   3   3  -3    3.19    0.15
  -3  -3   3    2.95    0.16
  -3  -3   3    3.15    0.15
  -3  -3   3    2.99    0.15
  -3  -3   3    2.88    0.16
   2   3  -3   78.78    1.79
   2   3  -3   79.95    1.78
   2   3  -3   82.68    1.81
  -2  -3   3   80.64    1.80
  -2  -3   3   82.33    1.78
  -2  -3   3   79.76    1.78
  -2  -3   3   81.36    1.79
   1   3  -3   10.09    0.28
   1   3  -3    9.86    0.29
   1   3  -3   10.11    0.28
  -1  -3   3    9.57    0.28
  -1  -3   3    9.81    0.29
   0   3  -3  124.14    2.67
   0   3  -3  124.60    2.70
   0   3  -3  122.44    2.66
   0   3  -3  124.89    2.68
   0   3  -3  123.80    2.66
   0  -3   3  123.95    2.68
   0  -3   3  123.94    2.66
  -1   3  -3  100.00    2.16
  -1   3  -3   99.98    2.15
  -1   3  -3  100.03    2.16
  -1   3  -3   98.92    2.15
  -1   3  -3   99.24    2.22
   1  -3   3  102.22    2.17
   1  -3   3   98.38    2.19
   1  -3   3  102.41    2.15
   1  -3   3   98.75    2.23
   1  -3   3  101.56    2.17
  -2   3  -3    1.15    0.07
  -2   3  -3    1.20    0.11
  -2   3  -3    1.19    0.06
  -2   3  -3    1.01    0.06
  -2   3  -3    1.10    0.08
  -2   3  -3    1.03    0.07
   2  -3   3    1.02    0.11
   2  -3   3    1.05    0.07
   2  -3   3    1.04    0.09
   2  -3   3    1.16    0.09
   2  -3   3    1.07    0.11
  -3   3  -3   47.07    1.15
  -3   3  -3   47.37    1.03
  -3   3  -3   47.33    1.03
   3  -3   3   48.13    1.15
   3  -3   3   46.69    1.10
   3  -3   3   47.18    1.08
   3  -3   3   46.17    1.12
   3  -3   3   49.88    1.06
  -4   3  -3    5.25    0.25
  -4   3  -3    5.45    0.14
   4  -3   3    5.19    0.24
   4  -3   3    5.47    0.22
   4  -3   3    5.13    0.21
   4  -3   3    5.58    0.25
  -5   3  -3    1.11    0.13
  -5   3  -3    1.13    0.15
   5  -3   3    0.84    0.13
   5  -3   3    1.26    0.13
   5  -3   3    1.33    0.15
   5  -3   3    0.96    0.11
  -6   3  -3    0.20    0.09
  -6   3  -3    0.27    0.11
   6  -3   3    0.45    0.10
   6  -3   3    0.08    0.08
   6  -3   3    0.08    0.10
   6  -3   3    0.14    0.09
  -7   3  -3   14.79    0.49
  -7   3  -3   14.50    0.54
   7  -3   3   15.45    0.54
   7  -3   3   14.43    0.52
   7  -3   3   15.29    0.49
   7  -3   3   15.17    0.50
   8  -3   3   12.35    0.47
   8  -3   3   12.85    0.51
   8  -3   3   12.25    0.47
   8  -3   3   13.56    0.51
   9  -3   3    0.13    0.13
   9   2  -3    1.14    0.20
  -9  -2   3    1.26    0.17
  -9  -2   3    0.84    0.21
  -9  -2   3    1.12    0.20
   8   2  -3    4.50    0.30
  -8  -2   3    3.45    0.29
  -8  -2   3    3.81    0.23
  -8  -2   3    4.08    0.30
   7   2  -3   35.02    0.95
  -7  -2   3   34.80    0.89
  -7  -2   3   35.08    0.96
  -7  -2   3   36.61    0.95
   6   2  -3    4.47    0.25
  -6  -2   3    4.42    0.21
  -6  -2   3    4.34    0.21
  -6  -2   3    3.76    0.20
  -6  -2   3    4.35    0.24
   5   2  -3   14.18    0.44
   5   2  -3   13.67    0.40
  -5  -2   3   14.60    0.41
  -5  -2   3   13.31    0.41
  -5  -2   3   13.95    0.44
  -5  -2   3   13.75    0.40
   4   2  -3   23.44    0.59
   4   2  -3   23.50    0.58
   4   2  -3   23.59    0.61
   4   2  -3   23.49    0.63
  -4  -2   3   23.90    0.62
  -4  -2   3   23.03    0.59
  -4  -2   3   24.06    0.61
  -4  -2   3   23.98    0.60
   3   2  -3    5.44    0.21
   3   2  -3    5.15    0.19
  -3  -2   3    5.72    0.21
  -3  -2   3    5.42    0.21
  -3  -2   3    5.38    0.19
  -3  -2   3    5.74    0.20
   2   2  -3   15.10    0.41
   2   2  -3   14.96    0.39
  -2  -2   3   15.05    0.39
  -2  -2   3   15.21    0.40
  -2  -2   3   15.33    0.39
  -2  -2   3   14.50    0.41
   1   2  -3    0.27    0.05
   1   2  -3    0.34    0.05
   1   2  -3    0.40    0.05
  -1  -2   3    0.44    0.05
  -1  -2   3    0.35    0.06
   0   2  -3   38.44    0.87
   0   2  -3   37.60    0.86
   0   2  -3   38.31    0.86
   0   2  -3   40.13    0.87
   0  -2   3   37.25    0.86
   0  -2   3   38.44    0.87
  -1   2  -3   16.38    0.40
  -1   2  -3   17.17    0.41
  -1   2  -3   16.29    0.45
  -1   2  -3   16.63    0.40
  -1   2  -3   16.80    0.40
   1  -2   3   16.93    0.41
   1  -2   3   17.71    0.42
   1  -2   3   16.52    0.43
  -2   2  -3   13.85    0.31
  -2   2  -3   13.30    0.39
  -2   2  -3   13.65    0.32
  -2   2  -3   13.96    0.34
   2  -2   3   13.78    0.36
   2  -2   3   13.93    0.33
   2  -2   3   13.41    0.37
   2  -2   3   13.33    0.35
   2  -2   3   13.70    0.40
  -3   2  -3  119.11    2.51
  -3   2  -3  118.88    2.59
  -3   2  -3  116.62    2.62
  -3   2  -3  118.97    2.51
   3  -2   3  117.07    2.62
   3  -2   3  119.26    2.57
   3  -2   3  118.71    2.60
   3  -2   3  121.59    2.58
  -4   2  -3    8.06    0.29
  -4   2  -3    9.04    0.31
   4  -2   3    8.30    0.28
   4  -2   3    8.55    0.30
   4  -2   3    8.59    0.28
   4  -2   3    9.09    0.32
  -5   2  -3    3.45    0.19
  -5   2  -3    3.00    0.20
   5  -2   3    3.39    0.21
   5  -2   3    3.34    0.19
   5  -2   3    3.17    0.17
   5  -2   3    3.15    0.18
  -6   2  -3    0.00    0.07
  -6   2  -3    0.00    0.08
   6  -2   3    0.01    0.07
   6  -2   3    0.01    0.07
   6  -2   3    0.09    0.08
   6  -2   3    0.07    0.09
  -7   2  -3    9.42    0.37
   7  -2   3    8.76    0.35
   7  -2   3    8.81    0.34
   7  -2   3    9.17    0.37
   7  -2   3    8.44    0.38
  -8   2  -3    0.81    0.15
   8  -2   3    0.68    0.16
   8  -2   3    0.49    0.14
   8  -2   3    0.79    0.15
  -9   2  -3   10.35    0.45
   9  -2   3    8.93    0.41
   9  -2   3    8.82    0.45
   9   1  -3    0.03    0.14
  -9  -1   3    0.02    0.11
  -9  -1   3    0.00    0.14
  -9  -1   3    0.14    0.15
   8   1  -3   13.73    0.52
  -8  -1   3   13.44    0.44
  -8  -1   3   13.67    0.54
  -8  -1   3   14.05    0.52
   7   1  -3    1.75    0.19
  -7  -1   3    2.64    0.22
  -7  -1   3    2.88    0.24
  -7  -1   3    2.41    0.17
   6   1  -3    4.25    0.21
   6   1  -3    3.88    0.23
  -6  -1   3    4.15    0.20
  -6  -1   3    4.19    0.19
  -6  -1   3    4.34    0.25
  -6  -1   3    4.39    0.24
   5   1  -3   45.75    1.06
   5   1  -3   44.23    1.09
  -5  -1   3   45.89    1.06
  -5  -1   3   43.72    1.04
  -5  -1   3   45.02    1.04
  -5  -1   3   44.35    1.09
   4   1  -3   23.06    0.57
   4   1  -3   20.83    0.58
   4   1  -3   21.00    0.56
   4   1  -3   21.71    0.52
  -4  -1   3   21.79    0.58
  -4  -1   3   22.23    0.57
  -4  -1   3   21.70    0.54
  -4  -1   3   21.86    0.54
   3   1  -3    3.96    0.16
   3   1  -3    3.49    0.14
   3   1  -3    3.72    0.17
  -3  -1   3    3.54    0.14
  -3  -1   3    3.91    0.16
  -3  -1   3    3.83    0.15
  -3  -1   3    3.84    0.15
  -3  -1   3    3.65    0.16
   2   1  -3   43.37    0.99
   2   1  -3   43.07    0.98
  -2  -1   3   43.41    0.99
  -2  -1   3   43.38    0.97
  -2  -1   3   43.37    0.98
  -2  -1   3   42.72    0.97
   1   1  -3    0.10    0.03
   1   1  -3    0.16    0.05
   1   1  -3    0.17    0.04
   1   1  -3    0.11    0.04
  -1  -1   3    0.08    0.04
  -1  -1   3    0.12    0.04
  -1  -1   3    0.08    0.04
   0   1  -3    8.81    0.24
   0   1  -3    8.42    0.23
   0   1  -3    8.42    0.23
   0   1  -3    8.58    0.23
   0   1  -3    8.50    0.24
   0  -1   3    8.52    0.24
   0  -1   3    8.70    0.25
   0  -1   3    8.54    0.23
   0  -1   3    8.79    0.24
  -1   1  -3  989.65   20.63
  -1   1  -3  993.16   21.34
  -1   1  -3  971.60   20.67
  -1   1  -3  963.32   21.43
   1  -1   3  978.15   20.73
   1  -1   3  954.25   20.65
   1  -1   3  990.38   20.65
   1  -1   3 1000.00   20.66
  -2   1  -3  218.76    4.54
  -2   1  -3  215.96    4.61
  -2   1  -3  220.77    4.55
  -2   1  -3  212.26    4.60
   2  -1   3  212.34    4.62
   2  -1   3  215.85    4.56
   2  -1   3  209.16    4.57
   2  -1   3  216.06    4.58
   2  -1   3  220.87    4.60
  -3   1  -3   42.32    0.99
  -3   1  -3   41.69    0.98
  -3   1  -3   41.52    0.91
   3  -1   3   43.08    0.95
   3  -1   3   42.63    1.00
   3  -1   3   41.04    0.96
   3  -1   3   42.14    0.97
  -4   1  -3   19.26    0.52
  -4   1  -3   18.40    0.50
   4  -1   3   18.86    0.53
   4  -1   3   18.84    0.49
   4  -1   3   18.84    0.48
   4  -1   3   18.86    0.50
  -5   1  -3   24.45    0.64
  -5   1  -3   23.61    0.65
  -5   1  -3   24.50    0.65
   5  -1   3   24.73    0.68
   5  -1   3   24.14    0.64
   5  -1   3   25.06    0.62
   5  -1   3   24.31    0.64
  -6   1  -3    0.20    0.08
  -6   1  -3    0.20    0.08
  -6   1  -3    0.17    0.08
   6  -1   3    0.13    0.09
   6  -1   3    0.15    0.08
   6  -1   3    0.09    0.08
   6  -1   3    0.22    0.08
  -7   1  -3    0.78    0.13
   7  -1   3    0.70    0.16
   7  -1   3    0.67    0.14
   7  -1   3    0.89    0.13
   7  -1   3    0.68    0.13
  -8   1  -3   -0.10    0.10
   8  -1   3   -0.04    0.12
   8  -1   3    0.06    0.11
  -9   1  -3    7.50    0.39
   9  -1   3    6.83    0.40
   9  -1   3    7.00    0.37
 -10   1  -3   -0.11    0.14
  10  -1   3   -0.07    0.15
  10  -1   3   -0.07    0.14
   9   0  -3    0.09    0.15
  -9   0   3    0.12    0.10
  -9   0   3    0.22    0.16
  -9   0   3    0.06    0.14
   8   0  -3    2.72    0.25
  -8   0   3    2.86    0.20
  -8   0   3    2.89    0.25
  -8   0   3    3.24    0.29
   7   0  -3    2.24    0.21
  -7   0   3    2.30    0.17
  -7   0   3    2.75    0.25
  -7   0   3    2.38    0.21
   6   0  -3   62.22    1.42
   6   0  -3   59.26    1.44
  -6   0   3   57.91    1.34
  -6   0   3   59.16    1.43
  -6   0   3   60.89    1.46
  -6   0   3   59.73    1.37
   5   0  -3   22.17    0.59
   5   0  -3   21.37    0.60
  -5   0   3   22.43    0.60
  -5   0   3   22.05    0.62
  -5   0   3   21.34    0.55
  -5   0   3   21.47    0.55
  -5   0   3   21.90    0.56
   4   0  -3   14.34    0.40
   4   0  -3   14.85    0.42
   4   0  -3   14.85    0.36
   4   0  -3   13.23    0.41
  -4   0   3   13.89    0.42
  -4   0   3   14.29    0.41
  -4   0   3   14.19    0.38
  -4   0   3   14.63    0.38
  -4   0   3   14.50    0.39
   3   0  -3   64.28    1.47
   3   0  -3   67.78    1.47
   3   0  -3   65.51    1.43
   3   0  -3   64.51    1.47
  -3   0   3   66.07    1.45
  -3   0   3   65.65    1.47
  -3   0   3   66.46    1.47
  -3   0   3   65.14    1.44
  -3   0   3   64.85    1.45
   2   0  -3   20.11    0.49
   2   0  -3   18.97    0.47
  -2   0   3   18.81    0.47
  -2   0   3   20.29    0.48
  -2   0   3   19.87    0.49
  -2   0   3   19.41    0.47
   1   0  -3   20.55    0.51
   1   0  -3   22.01    0.48
   1   0  -3   21.42    0.53
   1   0  -3   22.08    0.53
  -1   0   3   21.37    0.51
  -1   0   3   21.31    0.53
  -1   0   3   21.09    0.52
   0   0  -3    0.17    0.04
   0   0  -3    0.12    0.04
   0   0  -3    0.11    0.03
   0   0   3    0.29    0.04
   0   0   3    0.13    0.04
   0   0   3    0.12    0.04
  -1   0  -3   32.72    0.75
  -1   0  -3   32.73    0.74
  -1   0  -3   34.17    0.75
  -1   0  -3   32.84    0.76
   1   0   3   33.24    0.75
   1   0   3   33.72    0.75
   1   0   3   34.14    0.75
   1   0   3   32.60    0.76
  -2   0  -3   70.76    1.55
  -2   0  -3   71.58    1.52
  -2   0  -3   69.86    1.51
  -2   0  -3   71.28    1.51
  -2   0  -3   68.60    1.54
   2   0   3   68.95    1.54
   2   0   3   72.10    1.52
   2   0   3   69.50    1.54
   2   0   3   71.21    1.56
  -3   0  -3   27.97    0.59
  -3   0  -3   26.70    0.60
  -3   0  -3   26.07    0.64
  -3   0  -3   26.29    0.65
   3   0   3   26.37    0.67
   3   0   3   27.10    0.60
   3   0   3   25.58    0.64
   3   0   3   27.90    0.64
   3   0   3   26.89    0.61
  -4   0  -3  106.09    2.37
  -4   0  -3  107.81    2.31
  -4   0  -3  107.03    2.39
  -4   0  -3  108.88    2.31
   4   0   3  109.45    2.37
   4   0   3  109.35    2.38
   4   0   3  106.56    2.41
   4   0   3  112.16    2.35
   4   0   3  110.74    2.32
  -5   0  -3    7.97    0.28
  -5   0  -3    7.92    0.21
  -5   0  -3    8.10    0.21
  -5   0  -3    7.94    0.28
  -5   0  -3    7.61    0.28
   5   0   3    8.28    0.31
   5   0   3    7.84    0.27
   5   0   3    8.35    0.29
   5   0   3    7.47    0.26
  -6   0  -3    3.43    0.20
  -6   0  -3    3.62    0.19
  -6   0  -3    3.70    0.13
   6   0   3    4.11    0.19
   6   0   3    3.83    0.21
   6   0   3    3.75    0.19
   6   0   3    4.35    0.24
  -7   0  -3    9.36    0.38
  -7   0  -3   10.17    0.26
   7   0   3    9.61    0.37
   7   0   3    9.35    0.40
   7   0   3   10.06    0.35
  -8   0  -3    6.34    0.33
   8   0   3    6.33    0.32
   8   0   3    5.59    0.34
  -9   0  -3    0.69    0.08
  -9   0  -3    0.88    0.18
   9   0   3    0.56    0.18
   9   0   3    0.90    0.17
 -10   0  -3    1.39    0.23
  10   0   3    1.17    0.23
  10   0   3    1.43    0.22
   9  -1  -3   -0.11    0.13
  -9   1   3    0.26    0.11
  -9   1   3    0.02    0.13
  -9   1   3    0.27    0.17
   8  -1  -3    0.77    0.17
  -8   1   3    1.00    0.17
  -8   1   3    1.00    0.20
  -8   1   3    0.80    0.12
   7  -1  -3    1.73    0.19
   7  -1  -3    2.08    0.19
  -7   1   3    2.18    0.20
  -7   1   3    1.87    0.21
  -7   1   3    1.95    0.16
   6  -1  -3    2.46    0.21
   6  -1  -3    2.05    0.18
  -6   1   3    2.31    0.18
  -6   1   3    1.79    0.18
  -6   1   3    1.83    0.14
   5  -1  -3    4.99    0.24
   5  -1  -3    4.91    0.23
  -5   1   3    4.77    0.22
  -5   1   3    4.73    0.17
  -5   1   3    5.27    0.25
  -5   1   3    4.43    0.19
   4  -1  -3  126.84    2.85
   4  -1  -3  130.77    2.85
  -4   1   3  130.58    2.83
  -4   1   3  130.72    2.81
  -4   1   3  132.63    2.80
  -4   1   3  129.63    2.80
  -4   1   3  128.29    2.87
   3  -1  -3  154.15    3.41
   3  -1  -3  161.94    3.42
   3  -1  -3  164.27    3.41
   3  -1  -3  159.36    3.35
  -3   1   3  155.22    3.38
  -3   1   3  155.59    3.38
  -3   1   3  156.28    3.38
  -3   1   3  156.86    3.39
  -3   1   3  158.58    3.40
   2  -1  -3    8.54    0.26
   2  -1  -3    8.04    0.22
   2  -1  -3    8.24    0.21
   2  -1  -3    8.50    0.25
  -2   1   3    8.39    0.25
  -2   1   3    8.01    0.24
  -2   1   3    8.12    0.24
  -2   1   3    8.09    0.24
   1  -1  -3   13.90    0.33
   1  -1  -3   13.52    0.35
   1  -1  -3   14.11    0.35
   1  -1  -3   14.44    0.37
  -1   1   3   14.21    0.36
  -1   1   3   14.11    0.36
  -1   1   3   14.90    0.37
  -1   1   3   14.04    0.36
   0  -1  -3   65.95    1.42
   0  -1  -3   67.08    1.44
   0  -1  -3   64.51    1.42
   0  -1  -3   65.75    1.44
   0   1   3   64.25    1.43
   0   1   3   64.76    1.43
   0   1   3   65.82    1.44
  -1  -1  -3   30.89    0.72
  -1  -1  -3   32.02    0.72
  -1  -1  -3   32.50    0.71
  -1  -1  -3   31.25    0.72
  -1  -1  -3   31.28    0.71
   1   1   3   31.10    0.71
   1   1   3   30.84    0.72
   1   1   3   31.66    0.71
   1   1   3   32.64    0.72
  -2  -1  -3    6.57    0.21
  -2  -1  -3    6.51    0.18
  -2  -1  -3    6.32    0.18
  -2  -1  -3    6.67    0.19
  -2  -1  -3    6.65    0.19
   2   1   3    6.65    0.19
   2   1   3    6.45    0.21
   2   1   3    6.40    0.19
   2   1   3    6.51    0.21
  -3  -1  -3   66.19    1.40
  -3  -1  -3   63.57    1.40
  -3  -1  -3   63.85    1.40
  -3  -1  -3   66.59    1.40
  -3  -1  -3   61.89    1.44
   3   1   3   65.59    1.41
   3   1   3   63.94    1.46
   3   1   3   64.11    1.41
   3   1   3   65.31    1.39
   3   1   3   65.69    1.44
  -4  -1  -3    2.67    0.10
  -4  -1  -3    2.60    0.10
  -4  -1  -3    2.50    0.12
  -4  -1  -3    2.47    0.14
  -4  -1  -3    2.65    0.10
   4   1   3    2.75    0.12
   4   1   3    2.52    0.14
   4   1   3    2.70    0.11
   4   1   3    2.52    0.15
   4   1   3    2.60    0.16
   4   1   3    2.70    0.11
  -5  -1  -3   27.22    0.71
  -5  -1  -3   28.69    0.71
  -5  -1  -3   28.41    0.66
   5   1   3   27.47    0.73
   5   1   3   29.27    0.76
   5   1   3   29.40    0.72
   5   1   3   28.86    0.68
   5   1   3   28.85    0.69
  -6  -1  -3   47.64    1.12
  -6  -1  -3   45.14    1.12
  -6  -1  -3   47.75    1.05
   6   1   3   47.36    1.14
   6   1   3   46.94    1.18
   6   1   3   46.87    1.10
  -7  -1  -3    3.03    0.14
  -7  -1  -3    2.87    0.22
   7   1   3    3.20    0.25
   7   1   3    3.35    0.23
  -8  -1  -3    1.26    0.10
  -8  -1  -3    1.34    0.18
   8   1   3    1.08    0.16
   8   1   3    1.05    0.18
  -9  -1  -3   -0.03    0.07
  -9  -1  -3    0.19    0.14
   9   1   3   -0.13    0.12
   9   1   3    0.10    0.14
 -10  -1  -3    1.04    0.21
 -10  -1  -3    1.10    0.11
  10   1   3    1.06    0.21
   9  -2  -3    3.01    0.29
  -9   2   3    3.98    0.35
   8  -2  -3    1.41    0.19
   8  -2  -3    1.18    0.19
  -8   2   3    1.25    0.14
  -8   2   3    1.63    0.22
  -8   2   3    1.13    0.20
   7  -2  -3    0.15    0.12
   7  -2  -3    0.04    0.10
  -7   2   3    0.12    0.12
  -7   2   3    0.13    0.08
  -7   2   3    0.17    0.10
   6  -2  -3    0.06    0.09
   6  -2  -3    0.06    0.10
  -6   2   3    0.07    0.06
  -6   2   3   -0.02    0.07
  -6   2   3    0.00    0.09
   5  -2  -3   12.40    0.42
   5  -2  -3   13.34    0.43
  -5   2   3   13.10    0.40
  -5   2   3   12.31    0.36
  -5   2   3   12.75    0.32
  -5   2   3   12.59    0.43
   4  -2  -3   99.20    2.19
   4  -2  -3   99.57    2.20
  -4   2   3  101.32    2.12
  -4   2   3   97.90    2.16
  -4   2   3   97.74    2.14
  -4   2   3   95.31    2.14
  -4   2   3   94.80    2.20
   3  -2  -3    8.73    0.23
   3  -2  -3    9.17    0.30
   3  -2  -3    8.75    0.29
   3  -2  -3    9.54    0.25
   3  -2  -3    9.35    0.28
  -3   2   3    9.46    0.27
  -3   2   3    9.35    0.27
  -3   2   3    8.88    0.31
  -3   2   3    9.01    0.27
  -3   2   3    9.27    0.26
   2  -2  -3   35.08    0.84
   2  -2  -3   35.32    0.78
   2  -2  -3   36.72    0.83
   2  -2  -3   35.00    0.79
   2  -2  -3   36.02    0.82
  -2   2   3   34.72    0.82
  -2   2   3   34.42    0.82
  -2   2   3   34.52    0.81
  -2   2   3   35.72    0.81
   1  -2  -3   10.78    0.28
   1  -2  -3   10.81    0.30
   1  -2  -3   10.90    0.28
   1  -2  -3   10.44    0.28
   1  -2  -3   10.68    0.30
  -1   2   3   11.00    0.29
  -1   2   3   10.34    0.29
  -1   2   3   10.67    0.30
  -1   2   3   10.61    0.29
   0  -2  -3   58.61    1.29
   0  -2  -3   58.10    1.29
   0  -2  -3   59.55    1.31
   0   2   3   58.12    1.30
   0   2   3   58.97    1.31
   0   2   3   60.63    1.31
   0   2   3   60.22    1.30
  -1  -2  -3    9.72    0.26
  -1  -2  -3    9.26    0.25
  -1  -2  -3    9.25    0.26
  -1  -2  -3    9.42    0.26
  -1  -2  -3    9.35    0.25
   1   2   3    8.97    0.25
   1   2   3    9.10    0.26
   1   2   3    8.95    0.23
   1   2   3    9.32    0.24
  -2  -2  -3    1.74    0.09
  -2  -2  -3    1.61    0.09
  -2  -2  -3    1.72    0.09
  -2  -2  -3    1.88    0.10
  -2  -2  -3    1.78    0.09
   2   2   3    1.64    0.09
   2   2   3    1.58    0.08
   2   2   3    1.69    0.09
   2   2   3    1.93    0.10
  -3  -2  -3   16.35    0.43
  -3  -2  -3   16.30    0.41
  -3  -2  -3   17.14    0.42
  -3  -2  -3   16.57    0.41
  -3  -2  -3   16.27    0.41
   3   2   3   16.79    0.43
   3   2   3   17.03    0.39
   3   2   3   16.54    0.45
   3   2   3   16.91    0.42
  -4  -2  -3    2.57    0.12
  -4  -2  -3    2.42    0.14
  -4  -2  -3    2.67    0.12
  -4  -2  -3    2.59    0.12
  -4  -2  -3    2.53    0.12
   4   2   3    2.87    0.13
   4   2   3    2.51    0.15
   4   2   3    2.77    0.14
   4   2   3    2.44    0.16
   4   2   3    2.64    0.11
  -5  -2  -3   67.70    1.51
  -5  -2  -3   67.11    1.47
  -5  -2  -3   65.68    1.51
  -5  -2  -3   66.98    1.46
   5   2   3   66.29    1.52
   5   2   3   66.41    1.47
   5   2   3   67.02    1.55
   5   2   3   65.51    1.56
  -6  -2  -3   20.42    0.56
  -6  -2  -3   20.64    0.60
  -6  -2  -3   20.93    0.51
  -6  -2  -3   20.17    0.55
   6   2   3   20.78    0.62
   6   2   3   19.63    0.59
   6   2   3   20.36    0.58
  -7  -2  -3    8.71    0.36
  -7  -2  -3    8.94    0.28
   7   2   3    8.18    0.35
   7   2   3    8.72    0.39
  -8  -2  -3    7.82    0.38
  -8  -2  -3    7.86    0.27
   8   2   3    7.32    0.35
   8   2   3    7.65    0.39
  -9  -2  -3    0.90    0.18
  -9  -2  -3    1.20    0.13
   9   2   3    0.93    0.18
 -10  -2  -3   -0.02    0.09
 -10  -2  -3    0.06    0.15
  10   2   3   -0.14    0.15
   9  -3  -3    5.60    0.40
  -9   3   3    6.52    0.45
   8  -3  -3    0.42    0.15
   8  -3  -3    0.41    0.16
  -8   3   3    0.20    0.16
  -8   3   3    0.15    0.08
   7  -3  -3    1.45    0.19
   7  -3  -3    1.77    0.21
  -7   3   3    1.48    0.20
   6  -3  -3    5.19    0.29
   6  -3  -3    4.54    0.27
  -6   3   3    4.70    0.21
  -6   3   3    4.89    0.29
   5  -3  -3    8.73    0.35
   5  -3  -3    8.98    0.35
  -5   3   3    9.35    0.31
  -5   3   3    8.80    0.35
  -5   3   3    9.62    0.30
   4  -3  -3    0.39    0.09
   4  -3  -3    0.44    0.10
  -4   3   3    0.41    0.07
  -4   3   3    0.44    0.06
  -4   3   3    0.35    0.09
  -4   3   3    0.51    0.07
   3  -3  -3   47.94    1.14
   3  -3  -3   51.39    1.13
   3  -3  -3   49.44    1.16
   3  -3  -3   47.36    1.10
  -3   3   3   49.65    1.17
  -3   3   3   48.61    1.11
  -3   3   3   48.75    1.12
  -3   3   3   49.85    1.10
   2  -3  -3  142.15    3.22
   2  -3  -3  147.50    3.18
   2  -3  -3  149.98    3.21
   2  -3  -3  146.25    3.20
   2  -3  -3  152.21    3.16
  -2   3   3  146.59    3.19
  -2   3   3  154.12    3.19
  -2   3   3  152.28    3.21
  -2   3   3  147.11    3.20
   1  -3  -3   10.50    0.30
   1  -3  -3   10.17    0.28
   1  -3  -3   10.07    0.28
   1  -3  -3   10.36    0.30
   1  -3  -3   10.11    0.27
  -1   3   3   10.68    0.30
  -1   3   3   10.41    0.29
  -1   3   3   10.16    0.28
  -1   3   3   10.30    0.29
   0  -3  -3   36.82    0.81
   0  -3  -3   36.25    0.83
   0  -3  -3   36.54    0.84
   0  -3  -3   36.35    0.85
   0  -3  -3   37.49    0.84
   0   3   3   36.22    0.84
   0   3   3   37.08    0.83
   0   3   3   36.77    0.85
  -1  -3  -3   15.27    0.39
  -1  -3  -3   14.69    0.40
  -1  -3  -3   15.03    0.37
  -1  -3  -3   16.10    0.39
  -1  -3  -3   15.13    0.39
   1   3   3   15.10    0.36
   1   3   3   15.35    0.40
   1   3   3   14.76    0.39
  -2  -3  -3    3.37    0.14
  -2  -3  -3    3.38    0.14
  -2  -3  -3    3.58    0.15
  -2  -3  -3    3.51    0.15
   2   3   3    3.27    0.15
   2   3   3    3.42    0.13
   2   3   3    3.76    0.15
   2   3   3    3.78    0.14
  -3  -3  -3    1.07    0.09
  -3  -3  -3    1.18    0.09
  -3  -3  -3    1.30    0.10
  -3  -3  -3    1.06    0.09
  -3  -3  -3    1.27    0.09
   3   3   3    1.07    0.09
   3   3   3    1.07    0.10
   3   3   3    1.16    0.09
   3   3   3    0.95    0.08
  -4  -3  -3   69.03    1.56
  -4  -3  -3   70.41    1.55
  -4  -3  -3   69.95    1.54
  -4  -3  -3   70.16    1.56
  -4  -3  -3   68.74    1.54
   4   3   3   71.93    1.51
   4   3   3   69.64    1.52
   4   3   3   69.86    1.56
   4   3   3   67.06    1.59
   4   3   3   69.72    1.60
  -5  -3  -3    1.20    0.10
  -5  -3  -3    1.47    0.11
  -5  -3  -3    1.55    0.11
  -5  -3  -3    1.45    0.12
  -5  -3  -3    1.53    0.13
   5   3   3    1.44    0.14
   5   3   3    1.50    0.16
   5   3   3    1.43    0.13
  -6  -3  -3    5.10    0.21
  -6  -3  -3    5.13    0.22
  -6  -3  -3    4.87    0.22
  -6  -3  -3    5.28    0.26
  -6  -3  -3    5.14    0.19
   6   3   3    5.00    0.24
   6   3   3    4.80    0.26
   6   3   3    5.18    0.28
  -7  -3  -3   47.09    1.20
  -7  -3  -3   47.21    1.15
  -7  -3  -3   46.29    1.10
   7   3   3   48.36    1.18
  -8  -3  -3    8.98    0.41
  -8  -3  -3    8.98    0.32
   8   3   3    9.66    0.40
  -9  -3  -3    0.67    0.18
  -9  -3  -3    0.59    0.11
   9   3   3    0.46    0.17
 -10  -3  -3    1.27    0.23
 -10  -3  -3    1.64    0.17
  10   3   3    1.76    0.25
   8  -4  -3    3.23    0.29
   8  -4  -3    2.80    0.28
  -8   4   3    3.70    0.33
  -8   4   3    3.04    0.18
   7  -4  -3    5.10    0.33
   7  -4  -3    4.90    0.32
  -7   4   3    5.34    0.22
  -7   4   3    5.02    0.34
   6  -4  -3    2.58    0.22
   6  -4  -3    2.47    0.23
  -6   4   3    2.53    0.15
  -6   4   3    2.43    0.23
   5  -4  -3   13.24    0.45
   5  -4  -3   12.60    0.46
  -5   4   3   13.55    0.47
  -5   4   3   13.71    0.38
   4  -4  -3    3.50    0.22
  -4   4   3    3.49    0.21
  -4   4   3    3.93    0.14
  -4   4   3    3.54    0.16
   3  -4  -3   42.52    1.02
   3  -4  -3   42.99    0.99
   3  -4  -3   41.69    1.04
  -3   4   3   43.11    0.97
  -3   4   3   41.34    1.04
  -3   4   3   43.47    0.98
  -3   4   3   41.19    0.99
   2  -4  -3    5.37    0.20
   2  -4  -3    5.39    0.20
   2  -4  -3    5.46    0.16
   2  -4  -3    4.89    0.22
   2  -4  -3    5.18    0.20
  -2   4   3    5.52    0.19
  -2   4   3    5.24    0.19
  -2   4   3    5.39    0.20
  -2   4   3    5.49    0.20
   1  -4  -3   74.46    1.66
   1  -4  -3   75.41    1.64
   1  -4  -3   76.25    1.67
   1  -4  -3   73.69    1.68
   1  -4  -3   75.39    1.65
  -1   4   3   76.45    1.67
  -1   4   3   75.16    1.66
  -1   4   3   75.28    1.65
  -1   4   3   73.53    1.66
   0  -4  -3  134.08    2.97
   0  -4  -3  139.91    2.96
   0  -4  -3  135.37    2.93
   0  -4  -3  138.88    2.96
   0  -4  -3  136.78    2.95
   0   4   3  137.04    2.97
   0   4   3  140.07    2.96
   0   4   3  136.43    2.96
  -1  -4  -3    0.67    0.08
  -1  -4  -3    0.66    0.08
  -1  -4  -3    0.57    0.06
  -1  -4  -3    0.96    0.09
  -1  -4  -3    0.90    0.07
  -1  -4  -3    0.69    0.06
   1   4   3    0.71    0.08
   1   4   3    0.57    0.07
   1   4   3    0.81    0.08
  -2  -4  -3    3.27    0.15
  -2  -4  -3    3.40    0.14
  -2  -4  -3    3.23    0.11
  -2  -4  -3    3.31    0.15
  -2  -4  -3    3.31    0.16
   2   4   3    3.32    0.12
   2   4   3    3.33    0.16
   2   4   3    3.10    0.14
  -3  -4  -3   17.45    0.46
  -3  -4  -3   18.08    0.46
  -3  -4  -3   18.27    0.48
  -3  -4  -3   17.02    0.46
  -3  -4  -3   17.70    0.46
   3   4   3   17.55    0.48
   3   4   3   17.75    0.44
   3   4   3   17.07    0.45
   3   4   3   17.24    0.47
  -4  -4  -3    9.78    0.31
  -4  -4  -3    9.78    0.30
  -4  -4  -3    8.80    0.29
  -4  -4  -3    9.88    0.30
  -4  -4  -3    9.57    0.30
   4   4   3    9.69    0.31
   4   4   3    9.29    0.28
   4   4   3    9.43    0.30
   4   4   3    9.27    0.32
  -5  -4  -3    0.41    0.08
  -5  -4  -3    0.27    0.07
  -5  -4  -3    0.32    0.08
  -5  -4  -3    0.41    0.08
  -5  -4  -3    0.27    0.08
  -5  -4  -3    0.30    0.08
   5   4   3    0.38    0.09
   5   4   3    0.38    0.10
  -6  -4  -3   52.38    1.28
  -6  -4  -3   53.03    1.21
  -6  -4  -3   51.51    1.22
  -6  -4  -3   52.69    1.23
  -6  -4  -3   50.85    1.22
  -6  -4  -3   52.14    1.21
   6   4   3   50.71    1.28
   6   4   3   52.32    1.25
  -7  -4  -3    7.07    0.27
  -7  -4  -3    6.40    0.28
  -7  -4  -3    6.74    0.33
   7   4   3    7.51    0.35
   7   4   3    7.41    0.32
  -8  -4  -3    1.29    0.14
  -8  -4  -3    1.59    0.20
   8   4   3    1.63    0.20
  -9  -4  -3    5.79    0.28
  -9  -4  -3    5.41    0.36
   9   4   3    5.92    0.36
 -10  -4  -3    1.28    0.23
 -10  -4  -3    0.64    0.14
  10   4   3    0.85    0.20
   8  -5  -3    6.25    0.40
   8  -5  -3    6.12    0.40
  -8   5   3    6.22    0.42
  -8   5   3    6.37    0.25
   7  -5  -3    1.09    0.20
   7  -5  -3    0.71    0.17
  -7   5   3    0.96    0.11
  -7   5   3    1.12    0.20
   6  -5  -3    4.35    0.28
   6  -5  -3    3.80    0.28
  -6   5   3    3.72    0.28
  -6   5   3    3.98    0.19
   5  -5  -3    5.96    0.32
   5  -5  -3    5.99    0.30
  -5   5   3    5.85    0.22
  -5   5   3    6.09    0.31
   4  -5  -3    1.13    0.14
   4  -5  -3    1.55    0.17
  -4   5   3    1.51    0.10
  -4   5   3    1.52    0.17
  -4   5   3    1.60    0.12
   3  -5  -3   15.55    0.42
   3  -5  -3   15.77    0.44
   3  -5  -3   14.67    0.46
   3  -5  -3   15.63    0.49
  -3   5   3   15.07    0.49
  -3   5   3   16.04    0.41
  -3   5   3   15.58    0.42
  -3   5   3   15.75    0.43
   2  -5  -3   51.88    1.19
   2  -5  -3   51.38    1.20
   2  -5  -3   50.72    1.22
   2  -5  -3   51.49    1.14
   2  -5  -3   51.30    1.20
  -2   5   3   51.59    1.18
  -2   5   3   51.20    1.25
  -2   5   3   52.34    1.17
  -2   5   3   51.51    1.19
   1  -5  -3  125.94    2.75
   1  -5  -3  127.52    2.75
   1  -5  -3  127.72    2.74
   1  -5  -3  123.98    2.71
   1  -5  -3  123.95    2.73
  -1   5   3  127.51    2.73
  -1   5   3  124.34    2.73
  -1   5   3  123.99    2.74
   0  -5  -3    0.24    0.07
   0  -5  -3    0.36    0.06
   0  -5  -3    0.36    0.08
   0  -5  -3    0.27    0.06
   0  -5  -3    0.29    0.06
   0   5   3    0.46    0.07
   0   5   3    0.30    0.07
   0   5   3    0.48    0.08
  -1  -5  -3   38.64    0.91
  -1  -5  -3   39.20    0.91
  -1  -5  -3   40.47    0.91
  -1  -5  -3   39.41    0.89
  -1  -5  -3   39.07    0.92
  -1  -5  -3   37.72    0.93
   1   5   3   36.97    0.92
   1   5   3   38.37    0.91
   1   5   3   38.30    0.91
  -2  -5  -3   73.66    1.66
  -2  -5  -3   76.56    1.61
  -2  -5  -3   74.28    1.66
  -2  -5  -3   75.60    1.67
  -2  -5  -3   74.02    1.69
  -2  -5  -3   75.28    1.68
   2   5   3   74.22    1.69
   2   5   3   76.62    1.62
   2   5   3   72.81    1.69
   2   5   3   75.91    1.67
   2   5   3   72.74    1.67
  -3  -5  -3    1.68    0.12
  -3  -5  -3    1.91    0.13
  -3  -5  -3    1.75    0.13
  -3  -5  -3    1.57    0.12
  -3  -5  -3    1.67    0.13
   3   5   3    1.93    0.14
   3   5   3    1.74    0.12
   3   5   3    1.85    0.11
   3   5   3    1.55    0.13
  -4  -5  -3    7.50    0.27
  -4  -5  -3    7.38    0.26
  -4  -5  -3    7.35    0.27
  -4  -5  -3    7.32    0.27
  -4  -5  -3    7.42    0.27
  -4  -5  -3    7.54    0.26
   4   5   3    7.39    0.25
   4   5   3    7.04    0.25
   4   5   3    7.44    0.28
   4   5   3    7.13    0.28
  -5  -5  -3    3.96    0.21
  -5  -5  -3    4.78    0.22
  -5  -5  -3    3.82    0.20
  -5  -5  -3    4.51    0.21
  -5  -5  -3    4.76    0.21
  -5  -5  -3    4.58    0.23
   5   5   3    4.72    0.19
   5   5   3    4.36    0.21
   5   5   3    4.46    0.24
  -6  -5  -3    9.44    0.37
  -6  -5  -3   10.00    0.34
  -6  -5  -3   10.37    0.35
  -6  -5  -3   10.26    0.35
  -6  -5  -3    9.24    0.34
   6   5   3    9.61    0.39
   6   5   3   10.28    0.35
  -7  -5  -3    1.31    0.14
  -7  -5  -3    1.01    0.14
  -7  -5  -3    1.43    0.18
  -7  -5  -3    1.49    0.16
   7   5   3    1.24    0.18
   7   5   3    1.43    0.17
  -8  -5  -3   15.81    0.50
  -8  -5  -3   15.41    0.57
   8   5   3   16.06    0.55
  -9  -5  -3    4.64    0.27
  -9  -5  -3    5.10    0.35
   9   5   3    4.77    0.33
   8  -6  -3    1.98    0.26
  -8   6   3    2.79    0.32
  -8   6   3    2.14    0.16
   7  -6  -3    2.56    0.28
   7  -6  -3    2.64    0.27
  -7   6   3    2.46    0.17
  -7   6   3    2.34    0.27
   6  -6  -3   13.33    0.52
   6  -6  -3   14.05    0.55
  -6   6   3   13.98    0.41
  -6   6   3   13.44    0.54
   5  -6  -3    1.63    0.20
   5  -6  -3    2.02    0.21
  -5   6   3    1.97    0.15
  -5   6   3    2.14    0.23
   4  -6  -3   15.11    0.49
   4  -6  -3   15.50    0.52
  -4   6   3   14.38    0.51
  -4   6   3   14.96    0.43
   3  -6  -3   23.13    0.67
   3  -6  -3   23.93    0.61
   3  -6  -3   23.30    0.65
   3  -6  -3   23.19    0.63
  -3   6   3   23.79    0.69
  -3   6   3   23.19    0.60
  -3   6   3   23.76    0.62
  -3   6   3   22.30    0.58
   2  -6  -3    3.87    0.20
   2  -6  -3    3.80    0.19
   2  -6  -3    3.13    0.20
   2  -6  -3    3.37    0.17
  -2   6   3    3.71    0.18
  -2   6   3    3.34    0.22
  -2   6   3    3.43    0.17
  -2   6   3    3.36    0.18
   1  -6  -3    0.07    0.06
   1  -6  -3    0.03    0.06
   1  -6  -3    0.06    0.06
   1  -6  -3    0.08    0.06
   1  -6  -3    0.07    0.05
   1  -6  -3    0.12    0.07
  -1   6   3    0.13    0.06
  -1   6   3    0.04    0.08
  -1   6   3    0.07    0.05
   0  -6  -3   89.08    1.96
   0  -6  -3   88.49    1.95
   0  -6  -3   88.73    1.99
   0  -6  -3   87.42    1.96
   0  -6  -3   87.67    1.95
   0  -6  -3   86.66    1.97
   0   6   3   88.86    1.99
   0   6   3   86.25    1.97
   0   6   3   90.45    1.96
  -1  -6  -3   84.16    1.94
  -1  -6  -3   85.25    1.91
  -1  -6  -3   85.78    1.91
  -1  -6  -3   86.37    1.88
  -1  -6  -3   85.95    1.92
   1   6   3   84.49    1.93
   1   6   3   87.96    1.91
   1   6   3   83.65    1.91
   1   6   3   86.62    1.93
  -2  -6  -3   36.68    0.89
  -2  -6  -3   36.86    0.90
  -2  -6  -3   37.38    0.90
  -2  -6  -3   36.99    0.93
  -2  -6  -3   36.63    0.90
   2   6   3   38.06    0.91
   2   6   3   36.80    0.92
   2   6   3   37.54    0.91
  -3  -6  -3    9.21    0.31
  -3  -6  -3    9.00    0.31
  -3  -6  -3    8.97    0.31
  -3  -6  -3    9.09    0.33
  -3  -6  -3    9.72    0.32
  -3  -6  -3    9.84    0.30
   3   6   3    9.52    0.31
   3   6   3    9.54    0.27
   3   6   3    9.26    0.33
   3   6   3    8.78    0.32
  -4  -6  -3    1.61    0.14
  -4  -6  -3    2.01    0.15
  -4  -6  -3    1.41    0.14
  -4  -6  -3    1.76    0.15
  -4  -6  -3    2.17    0.16
  -4  -6  -3    1.89    0.15
   4   6   3    1.97    0.15
   4   6   3    1.69    0.13
   4   6   3    1.88    0.17
   4   6   3    1.44    0.15
  -5  -6  -3    7.16    0.28
  -5  -6  -3    7.46    0.30
  -5  -6  -3    6.71    0.29
  -5  -6  -3    6.92    0.28
  -5  -6  -3    7.46    0.29
  -5  -6  -3    7.57    0.29
   5   6   3    7.14    0.27
   5   6   3    6.80    0.31
   5   6   3    6.63    0.27
  -6  -6  -3    0.90    0.13
  -6  -6  -3    0.86    0.14
  -6  -6  -3    1.20    0.14
  -6  -6  -3    1.04    0.13
   6   6   3    1.13    0.14
   6   6   3    0.70    0.14
  -7  -6  -3    5.10    0.30
  -7  -6  -3    5.15    0.26
  -7  -6  -3    5.19    0.27
  -7  -6  -3    5.24    0.27
   7   6   3    5.36    0.32
   7   6   3    5.32    0.29
  -8  -6  -3    7.47    0.34
  -8  -6  -3    7.67    0.40
   8   6   3    7.79    0.37
  -9  -6  -3    1.08    0.21
  -9  -6  -3    0.94    0.16
   9   6   3    1.03    0.20
   7  -7  -3   14.99    0.60
   7  -7  -3   15.03    0.66
  -7   7   3   14.92    0.44
   6  -7  -3    3.68    0.30
   6  -7  -3    4.22    0.32
  -6   7   3    3.79    0.21
   5  -7  -3    0.64    0.15
   5  -7  -3    0.60    0.17
  -5   7   3    0.63    0.10
  -5   7   3    0.85    0.18
   4  -7  -3    4.43    0.26
   4  -7  -3    3.53    0.27
  -4   7   3    3.81    0.28
  -4   7   3    3.53    0.20
   3  -7  -3    7.67    0.32
   3  -7  -3    6.41    0.29
   3  -7  -3    6.48    0.27
   3  -7  -3    6.93    0.33
  -3   7   3    7.37    0.26
  -3   7   3    6.73    0.26
  -3   7   3    6.92    0.34
   2  -7  -3    0.95    0.12
   2  -7  -3    0.87    0.12
   2  -7  -3    0.92    0.12
   2  -7  -3    1.25    0.15
  -2   7   3    0.99    0.11
  -2   7   3    1.20    0.13
  -2   7   3    1.11    0.12
  -2   7   3    1.11    0.16
   1  -7  -3    5.72    0.24
   1  -7  -3    5.77    0.26
   1  -7  -3    5.56    0.24
   1  -7  -3    6.10    0.22
   1  -7  -3    5.53    0.25
  -1   7   3    6.06    0.25
  -1   7   3    5.41    0.27
  -1   7   3    5.62    0.24
  -1   7   3    5.76    0.24
   0  -7  -3   34.01    0.83
   0  -7  -3   34.79    0.87
   0  -7  -3   32.34    0.85
   0  -7  -3   35.04    0.84
   0  -7  -3   33.45    0.84
   0  -7  -3   33.49    0.83
   0   7   3   32.83    0.84
   0   7   3   34.36    0.86
   0   7   3   33.46    0.85
   0   7   3   34.88    0.86
  -1  -7  -3   14.00    0.44
  -1  -7  -3   14.33    0.42
  -1  -7  -3   14.24    0.42
  -1  -7  -3   13.94    0.43
  -1  -7  -3   13.25    0.39
   1   7   3   14.20    0.43
   1   7   3   13.50    0.42
   1   7   3   13.70    0.42
   1   7   3   13.93    0.44
  -2  -7  -3   31.93    0.80
  -2  -7  -3   32.34    0.81
  -2  -7  -3   32.44    0.81
  -2  -7  -3   31.46    0.83
   2   7   3   30.91    0.81
   2   7   3   31.28    0.80
   2   7   3   31.75    0.83
  -3  -7  -3   65.53    1.56
  -3  -7  -3   65.49    1.53
  -3  -7  -3   68.56    1.54
  -3  -7  -3   66.99    1.54
   3   7   3   63.74    1.56
   3   7   3   65.79    1.54
   3   7   3   67.52    1.55
  -4  -7  -3    7.03    0.28
  -4  -7  -3    6.57    0.29
  -4  -7  -3    6.86    0.27
  -4  -7  -3    7.01    0.29
  -4  -7  -3    6.76    0.28
  -4  -7  -3    6.62    0.28
   4   7   3    6.93    0.30
   4   7   3    6.44    0.30
   4   7   3    7.13    0.28
  -5  -7  -3   10.18    0.37
  -5  -7  -3   10.02    0.36
  -5  -7  -3    9.78    0.36
  -5  -7  -3    9.59    0.36
  -5  -7  -3    9.20    0.35
   5   7   3    8.49    0.36
   5   7   3   10.00    0.35
  -6  -7  -3    0.21    0.10
  -6  -7  -3    0.09    0.10
  -6  -7  -3    0.21    0.11
  -6  -7  -3    0.39    0.11
   6   7   3    0.37    0.13
   6   7   3    0.42    0.11
  -7  -7  -3    3.20    0.24
  -7  -7  -3    3.28    0.26
  -7  -7  -3    3.15    0.23
  -7  -7  -3    2.85    0.23
   7   7   3    3.10    0.27
   7   7   3    2.91    0.23
  -8  -7  -3    0.15    0.12
  -8  -7  -3    0.18    0.14
   8   7   3    0.14    0.14
  -9  -7  -3    2.81    0.29
  -9  -7  -3    2.61    0.24
   7  -8  -3    1.92    0.27
   6  -8  -3   -0.17    0.13
   6  -8  -3   -0.01    0.15
  -6   8   3   -0.01    0.09
   5  -8  -3   25.73    0.80
   5  -8  -3   23.31    0.76
  -5   8   3   23.32    0.65
   4  -8  -3   10.15    0.45
   4  -8  -3   10.01    0.43
  -4   8   3   10.05    0.35
   3  -8  -3    2.52    0.21
   3  -8  -3    2.48    0.21
   3  -8  -3    2.35    0.22
   3  -8  -3    2.56    0.20
  -3   8   3    2.41    0.18
  -3   8   3    2.49    0.16
   2  -8  -3    4.05    0.25
   2  -8  -3    3.55    0.23
   2  -8  -3    3.82    0.22
   2  -8  -3    4.16    0.24
  -2   8   3    3.79    0.21
  -2   8   3    3.76    0.20
  -2   8   3    3.76    0.22
   1  -8  -3    3.77    0.23
   1  -8  -3    3.69    0.22
   1  -8  -3    3.63    0.22
   1  -8  -3    3.80    0.23
  -1   8   3    3.89    0.21
  -1   8   3    3.65    0.20
  -1   8   3    4.00    0.22
   0  -8  -3   12.46    0.43
   0  -8  -3   12.29    0.41
   0  -8  -3   12.42    0.40
   0  -8  -3   12.43    0.41
   0  -8  -3   12.62    0.43
   0  -8  -3   12.71    0.39
   0   8   3   13.78    0.43
   0   8   3   12.58    0.42
   0   8   3   12.86    0.41
   0   8   3   12.80    0.42
  -1  -8  -3    7.74    0.32
  -1  -8  -3    7.41    0.31
  -1  -8  -3    7.78    0.30
  -1  -8  -3    7.84    0.30
   1   8   3    7.82    0.31
   1   8   3    7.94    0.31
   1   8   3    7.65    0.30
   1   8   3    7.76    0.32
  -2  -8  -3   19.80    0.57
  -2  -8  -3   20.24    0.58
  -2  -8  -3   19.74    0.60
  -2  -8  -3   19.12    0.57
   2   8   3   19.99    0.57
   2   8   3   19.85    0.58
   2   8   3   19.54    0.60
  -3  -8  -3    7.66    0.33
  -3  -8  -3    7.49    0.32
  -3  -8  -3    7.87    0.32
  -3  -8  -3    7.76    0.32
   3   8   3    7.49    0.31
   3   8   3    7.76    0.32
   3   8   3    7.91    0.34
  -4  -8  -3   19.01    0.54
  -4  -8  -3   16.81    0.54
  -4  -8  -3   17.65    0.53
   4   8   3   17.32    0.54
   4   8   3   18.22    0.55
   4   8   3   16.81    0.57
  -5  -8  -3   17.43    0.55
  -5  -8  -3   17.95    0.55
  -5  -8  -3   17.88    0.54
   5   8   3   17.27    0.56
   5   8   3   17.44    0.54
  -6  -8  -3    1.02    0.19
  -6  -8  -3    0.92    0.15
  -6  -8  -3    1.01    0.16
  -6  -8  -3    1.23    0.16
   6   8   3    1.29    0.18
  -7  -8  -3   -0.04    0.11
  -7  -8  -3   -0.02    0.11
  -7  -8  -3   -0.06    0.11
  -7  -8  -3    0.11    0.12
   7   8   3    0.27    0.15
  -8  -8  -3    2.57    0.23
  -8  -8  -3    2.37    0.24
  -8  -8  -3    2.40    0.26
   6  -9  -3   12.88    0.57
  -6   9   3   13.65    0.44
   5  -9  -3   11.47    0.53
   5  -9  -3   11.26    0.49
  -5   9   3   11.77    0.41
   4  -9  -3    0.13    0.14
   4  -9  -3    0.06    0.13
  -4   9   3    0.05    0.09
   3  -9  -3    7.63    0.34
   3  -9  -3    6.56    0.36
   3  -9  -3    6.89    0.34
   3  -9  -3    6.66    0.34
  -3   9   3    6.15    0.29
   2  -9  -3    1.58    0.19
   2  -9  -3    1.72    0.18
   2  -9  -3    1.43    0.18
   2  -9  -3    1.55    0.19
  -2   9   3    1.44    0.16
  -2   9   3    1.62    0.17
   1  -9  -3    0.55    0.13
   1  -9  -3    0.35    0.12
   1  -9  -3    0.66    0.13
   1  -9  -3    0.29    0.11
  -1   9   3    0.38    0.11
  -1   9   3    0.45    0.12
   0  -9  -3    0.76    0.13
   0  -9  -3    0.47    0.12
   0  -9  -3    0.40    0.09
   0   9   3    0.65    0.12
   0   9   3    0.58    0.11
  -1  -9  -3    3.83    0.24
  -1  -9  -3    4.02    0.23
  -1  -9  -3    3.74    0.24
  -1  -9  -3    3.77    0.22
   1   9   3    3.34    0.23
  -2  -9  -3    1.96    0.18
  -2  -9  -3    2.23    0.20
  -2  -9  -3    2.17    0.19
  -2  -9  -3    1.90    0.18
   2   9   3    2.24    0.20
  -3  -9  -3   24.08    0.68
  -3  -9  -3   24.23    0.69
  -3  -9  -3   24.30    0.69
   3   9   3   24.12    0.69
   3   9   3   23.38    0.68
  -4  -9  -3   52.54    1.33
  -4  -9  -3   54.30    1.34
  -4  -9  -3   56.36    1.35
   4   9   3   54.99    1.34
   4   9   3   53.78    1.34
  -5  -9  -3    3.57    0.26
  -5  -9  -3    3.92    0.27
  -5  -9  -3    4.40    0.26
   5   9   3    3.63    0.26
   5   9   3    4.36    0.28
  -6  -9  -3    2.11    0.23
  -6  -9  -3    2.56    0.23
   6   9   3    2.64    0.25
  -7  -9  -3    5.30    0.34
  -7  -9  -3    5.09    0.31
   7   9   3    5.27    0.35
  -8  -9  -3   -0.05    0.14
  -8  -9  -3   -0.03    0.13
   5 -10  -3    0.11    0.16
  -5  10   3    0.13    0.11
   4 -10  -3   15.41    0.59
   4 -10  -3   15.91    0.62
  -4  10   3   15.70    0.52
   3 -10  -3    3.57    0.27
   3 -10  -3    3.28    0.28
   3 -10  -3    2.83    0.27
  -3  10   3    3.03    0.23
   2 -10  -3    0.50    0.14
   2 -10  -3    0.46    0.14
   2 -10  -3    0.58    0.15
   2 -10  -3    0.30    0.14
  -2  10   3    0.66    0.14
  -2  10   3    0.31    0.11
   1 -10  -3   18.31    0.62
   1 -10  -3   20.00    0.65
   1 -10  -3   18.94    0.60
   1 -10  -3   19.68    0.61
  -1  10   3   19.37    0.60
  -1  10   3   18.24    0.58
   0 -10  -3    2.30    0.21
   0 -10  -3    1.51    0.19
   0  10   3    2.29    0.21
   0  10   3    1.62    0.18
  -1 -10  -3    1.68    0.20
  -1 -10  -3    1.64    0.17
  -1 -10  -3    1.64    0.19
   1  10   3    1.75    0.19
  -2 -10  -3    0.17    0.12
  -2 -10  -3    0.31    0.11
  -2 -10  -3    0.21    0.12
   2  10   3    0.18    0.12
  -3 -10  -3   11.71    0.45
  -3 -10  -3   12.91    0.47
  -3 -10  -3   12.85    0.47
   3  10   3   12.00    0.46
  -4 -10  -3    9.27    0.40
  -4 -10  -3    9.91    0.40
  -4 -10  -3    9.85    0.41
   4  10   3    9.41    0.41
  -5 -10  -3    2.69    0.24
  -5 -10  -3    2.33    0.24
  -5 -10  -3    2.95    0.24
   5  10   3    2.65    0.24
  -6 -10  -3    5.40    0.32
  -6 -10  -3    5.51    0.34
   6  10   3    4.89    0.45
   6  10   3    5.25    0.35
  -7 -10  -3    0.73    0.18
  -7 -10  -3    1.24    0.19
   7  10   3    0.93    0.20
   4 -11  -3    7.23    0.42
  -4  11   3    7.71    0.36
   3 -11  -3    0.20    0.15
   3 -11  -3    0.15    0.15
   3 -11  -3    0.17    0.14
  -3  11   3    0.03    0.11
   2 -11  -3    8.66    0.41
   2 -11  -3    8.85    0.42
   2 -11  -3    8.36    0.42
   2 -11  -3    8.24    0.42
  -2  11   3    8.40    0.38
  -2  11   3    9.39    0.47
   1 -11  -3   12.32    0.50
   1 -11  -3   11.43    0.47
  -1  11   3   11.81    0.47
  -1  11   3   11.83    0.45
  -1  11   3   11.00    0.51
   0 -11  -3    0.08    0.13
   0 -11  -3    0.19    0.14
   0  11   3   -0.02    0.11
  -1 -11  -3    1.00    0.18
  -1 -11  -3    0.85    0.17
  -1 -11  -3    1.09    0.16
   1  11   3    1.20    0.18
  -2 -11  -3    0.53    0.16
  -2 -11  -3    0.57    0.15
  -2 -11  -3    0.48    0.14
   2  11   3    0.58    0.16
  -3 -11  -3    8.75    0.40
  -3 -11  -3    7.67    0.39
  -3 -11  -3    8.25    0.38
   3  11   3    8.21    0.40
  -4 -11  -3    3.09    0.27
  -4 -11  -3    3.73    0.28
  -4 -11  -3    3.53    0.28
   4  11   3    3.32    0.28
  -5 -11  -3   22.07    0.71
  -5 -11  -3   21.84    0.73
  -5 -11  -3   22.50    0.72
   5  11   3   21.42    0.71
  -6 -11  -3    7.54    0.40
  -6 -11  -3    7.88    0.42
   6  11   3    7.41    0.43
   2 -12  -3   13.92    0.57
  -2  12   3   14.44    0.53
  -2  12   3   13.61    0.63
   1 -12  -3    0.06    0.16
   1 -12  -3    0.58    0.18
  -1  12   3    0.47    0.14
  -1  12   3    0.69    0.17
   0 -12  -3    1.66    0.22
   0 -12  -3    1.88    0.23
   0  12   3    1.57    0.22
  -1 -12  -3    1.10    0.20
  -1 -12  -3    0.95    0.19
   1  12   3    0.93    0.19
  -2 -12  -3    0.72    0.18
  -2 -12  -3    0.68    0.18
  -2 -12  -3    1.31    0.18
   2  12   3    1.11    0.19
  -3 -12  -3    0.18    0.15
  -3 -12  -3   -0.14    0.14
  -3 -12  -3    0.13    0.13
   3  12   3   -0.08    0.13
  -4 -12  -3    3.02    0.28
  -4 -12  -3    3.88    0.31
  -4 -12  -3    3.37    0.29
   4  12   3    3.51    0.31
  -5 -12  -3    1.31    0.21
  -5 -12  -3    1.22    0.21
   5  12   3    1.18    0.21
  -1 -13  -3    0.37    0.18
   1  13   3    0.17    0.16
  -2 -13  -3    2.49    0.28
   2  13   3    2.91    0.29
   3  12  -4    1.57    0.24
  -3 -12   4    1.05    0.19
  -3 -12   4    1.17    0.20
   2  12  -4   11.04    0.51
  -2 -12   4   10.39    0.58
  -2 -12   4   11.42    0.49
   1  12  -4    8.54    0.44
  -1 -12   4    8.60    0.54
  -1 -12   4    8.58    0.44
   0  12  -4    1.97    0.25
   0 -12   4    1.88    0.25
   0 -12   4    1.65    0.29
  -1  12  -4    3.84    0.30
  -1  12  -4    3.64    0.37
   1 -12   4    3.74    0.32
   5  11  -4    0.15    0.16
  -5 -11   4    0.09    0.15
   4  11  -4   -0.01    0.14
  -4 -11   4   -0.05    0.13
  -4 -11   4   -0.01    0.13
   3  11  -4    3.49    0.30
  -3 -11   4    3.09    0.26
  -3 -11   4    3.66    0.29
   2  11  -4   12.57    0.51
  -2 -11   4   11.66    0.46
  -2 -11   4   12.82    0.49
   1  11  -4    1.12    0.19
  -1 -11   4    1.39    0.20
  -1 -11   4    1.11    0.24
   0  11  -4    3.25    0.49
   0  11  -4    2.58    0.24
   0  11  -4    3.23    0.28
   0 -11   4    3.22    0.27
   0 -11   4    2.80    0.33
  -1  11  -4    5.16    0.32
  -1  11  -4    4.72    0.30
  -1  11  -4    4.93    0.38
   1 -11   4    5.70    0.42
   1 -11   4    5.34    0.34
  -2  11  -4    1.55    0.26
  -2  11  -4    1.24    0.17
   2 -11   4    1.78    0.24
   2 -11   4    1.58    0.22
  -3  11  -4    3.72    0.39
  -3  11  -4    2.77    0.23
   3 -11   4    2.61    0.28
   3 -11   4    3.46    0.32
   6  10  -4    2.45    0.26
  -6 -10   4    1.96    0.24
   5  10  -4    0.08    0.14
  -5 -10   4    0.19    0.14
   4  10  -4    4.95    0.33
  -4 -10   4    4.24    0.30
  -4 -10   4    4.34    0.31
   3  10  -4    3.62    0.30
  -3 -10   4    3.76    0.26
  -3 -10   4    4.04    0.28
   2  10  -4    2.10    0.22
  -2 -10   4    2.18    0.21
  -2 -10   4    1.89    0.19
   1  10  -4    9.97    0.42
  -1 -10   4    8.82    0.48
  -1 -10   4    9.31    0.39
   0  10  -4   35.60    0.98
   0  10  -4   35.50    1.05
   0  10  -4   37.32    0.97
   0 -10   4   35.92    0.98
   0 -10   4   37.31    1.12
  -1  10  -4    1.54    0.18
  -1  10  -4    1.34    0.17
  -1  10  -4    1.49    0.23
   1 -10   4    1.03    0.22
   1 -10   4    1.54    0.20
   1 -10   4    1.43    0.20
  -2  10  -4   13.17    0.46
  -2  10  -4   12.65    0.59
   2 -10   4   13.83    0.60
   2 -10   4   12.74    0.51
   2 -10   4   13.10    0.53
  -3  10  -4    7.74    0.34
  -3  10  -4    7.23    0.48
   3 -10   4    7.49    0.41
   3 -10   4    7.91    0.42
  -4  10  -4    0.63    0.23
  -4  10  -4    0.58    0.12
   4 -10   4    0.51    0.18
   4 -10   4    0.38    0.17
  -5  10  -4    0.66    0.13
  -7  -9   4    9.47    0.46
  -7  -9   4    9.00    0.46
   6   9  -4    1.74    0.22
  -6  -9   4    1.61    0.26
  -6  -9   4    2.04    0.24
   5   9  -4   14.12    0.53
  -5  -9   4   13.93    0.52
   4   9  -4    2.02    0.21
  -4  -9   4    1.80    0.20
   3   9  -4    3.34    0.26
  -3  -9   4    3.01    0.23
  -3  -9   4    3.61    0.23
   2   9  -4    0.11    0.11
  -2  -9   4    0.24    0.11
  -2  -9   4    0.12    0.12
  -2  -9   4    0.20    0.10
   1   9  -4    1.04    0.15
   1   9  -4    0.86    0.15
  -1  -9   4    0.91    0.19
  -1  -9   4    0.70    0.13
  -1  -9   4    0.86    0.13
   0   9  -4    0.50    0.12
   0   9  -4    0.25    0.13
   0   9  -4    0.28    0.11
   0  -9   4    0.49    0.13
   0  -9   4    0.60    0.17
  -1   9  -4    5.35    0.35
  -1   9  -4    5.12    0.27
  -1   9  -4    5.49    0.28
   1  -9   4    4.85    0.30
   1  -9   4    5.79    0.30
   1  -9   4    5.50    0.37
  -2   9  -4   21.12    0.62
  -2   9  -4   21.27    0.76
   2  -9   4   22.11    0.77
   2  -9   4   22.61    0.70
   2  -9   4   21.85    0.67
  -3   9  -4    3.72    0.22
  -3   9  -4    4.33    0.34
   3  -9   4    3.81    0.29
   3  -9   4    3.67    0.28
   3  -9   4    3.28    0.32
  -4   9  -4    4.76    0.24
  -4   9  -4    4.30    0.39
   4  -9   4    4.79    0.34
   4  -9   4    4.38    0.32
  -5   9  -4    5.18    0.42
  -5   9  -4    4.93    0.24
   5  -9   4    4.47    0.35
  -6   9  -4    0.14    0.08
   6  -9   4    0.18    0.18
  -8  -8   4   -0.04    0.14
  -8  -8   4    0.16    0.17
   7   8  -4    0.00    0.15
  -7  -8   4   -0.08    0.14
  -7  -8   4    0.13    0.14
   6   8  -4   15.67    0.55
  -6  -8   4   15.50    0.57
  -6  -8   4   15.01    0.55
   5   8  -4   12.48    0.48
  -5  -8   4   12.29    0.47
  -5  -8   4   13.20    0.48
   4   8  -4    2.19    0.20
  -4  -8   4    2.06    0.21
  -4  -8   4    2.49    0.22
   3   8  -4    7.34    0.34
  -3  -8   4    7.26    0.32
  -3  -8   4    7.35    0.40
  -3  -8   4    7.67    0.30
   2   8  -4    1.03    0.15
  -2  -8   4    0.96    0.14
  -2  -8   4    1.27    0.14
  -2  -8   4    1.10    0.14
   1   8  -4   13.34    0.45
   1   8  -4   12.98    0.43
   1   8  -4   12.76    0.46
  -1  -8   4   13.09    0.43
  -1  -8   4   13.16    0.42
   0   8  -4    4.42    0.28
   0   8  -4    4.64    0.25
   0   8  -4    3.94    0.23
   0   8  -4    4.41    0.24
   0  -8   4    4.91    0.32
   0  -8   4    4.71    0.22
   0  -8   4    4.63    0.24
  -1   8  -4   36.28    0.92
  -1   8  -4   37.09    0.93
  -1   8  -4   36.80    0.93
  -1   8  -4   37.20    1.04
   1  -8   4   38.35    0.98
   1  -8   4   35.64    1.05
   1  -8   4   37.15    0.96
  -2   8  -4    9.90    0.33
  -2   8  -4    9.76    0.34
  -2   8  -4    9.11    0.45
   2  -8   4   10.02    0.39
   2  -8   4    9.97    0.41
   2  -8   4    9.63    0.46
  -3   8  -4    2.44    0.17
  -3   8  -4    2.55    0.27
   3  -8   4    2.73    0.25
   3  -8   4    3.05    0.25
   3  -8   4    2.20    0.25
  -4   8  -4   22.48    0.79
  -4   8  -4   23.18    0.61
   4  -8   4   23.06    0.70
   4  -8   4   22.18    0.73
   4  -8   4   23.48    0.72
   4  -8   4   22.71    0.77
  -5   8  -4    0.42    0.09
  -5   8  -4    0.51    0.19
   5  -8   4    0.41    0.16
   5  -8   4    0.51    0.16
  -6   8  -4    0.23    0.07
  -6   8  -4    0.31    0.19
   6  -8   4    0.25    0.17
   6  -8   4    0.17    0.16
  -8  -7   4    0.50    0.18
  -8  -7   4    0.75    0.18
   7   7  -4    4.93    0.35
  -7  -7   4    4.84    0.31
  -7  -7   4    4.71    0.32
   6   7  -4    8.68    0.38
  -6  -7   4    9.49    0.40
  -6  -7   4    8.28    0.40
   5   7  -4    2.53    0.23
   5   7  -4    2.15    0.20
  -5  -7   4    2.56    0.22
  -5  -7   4    2.59    0.22
   4   7  -4   38.82    1.03
   4   7  -4   39.50    1.06
  -4  -7   4   40.73    1.03
  -4  -7   4   41.02    1.03
   3   7  -4   24.88    0.70
   3   7  -4   24.22    0.71
  -3  -7   4   24.74    0.69
  -3  -7   4   24.32    0.71
  -3  -7   4   25.54    0.69
  -3  -7   4   24.58    0.65
   2   7  -4    1.58    0.15
   2   7  -4    1.38    0.16
  -2  -7   4    1.58    0.16
  -2  -7   4    1.45    0.15
  -2  -7   4    1.26    0.13
  -2  -7   4    1.50    0.15
   1   7  -4    0.91    0.12
   1   7  -4    0.79    0.12
   1   7  -4    0.82    0.12
  -1  -7   4    0.75    0.12
  -1  -7   4    0.66    0.11
  -1  -7   4    0.93    0.12
   0   7  -4    0.12    0.08
   0   7  -4    0.22    0.10
   0   7  -4    0.23    0.08
   0   7  -4    0.52    0.10
   0  -7   4    0.21    0.07
   0  -7   4    0.22    0.09
   0  -7   4    0.23    0.08
   0  -7   4    0.42    0.13
  -1   7  -4    6.50    0.26
  -1   7  -4    6.86    0.26
  -1   7  -4    6.12    0.26
  -1   7  -4    6.73    0.34
   1  -7   4    6.48    0.30
   1  -7   4    6.52    0.35
   1  -7   4    6.08    0.27
  -2   7  -4    1.41    0.19
  -2   7  -4    1.34    0.12
  -2   7  -4    1.32    0.12
   2  -7   4    1.17    0.15
   2  -7   4    1.32    0.20
   2  -7   4    1.20    0.14
  -3   7  -4   30.48    0.90
  -3   7  -4   30.68    0.75
   3  -7   4   30.55    0.85
   3  -7   4   28.58    0.89
   3  -7   4   30.83    0.82
  -4   7  -4   14.26    0.56
  -4   7  -4   13.52    0.39
   4  -7   4   14.02    0.54
   4  -7   4   13.58    0.50
   4  -7   4   13.13    0.48
   4  -7   4   13.12    0.47
  -5   7  -4    0.47    0.08
  -5   7  -4    0.24    0.16
   5  -7   4    0.42    0.15
   5  -7   4    0.34    0.14
   5  -7   4    0.32    0.14
  -6   7  -4    9.06    0.27
  -6   7  -4    9.72    0.51
   6  -7   4    9.38    0.45
   6  -7   4    9.16    0.43
  -7   7  -4   -0.12    0.17
  -7   7  -4    0.06    0.13
   7  -7   4    0.07    0.15
   7  -7   4   -0.03    0.15
   8   6  -4    0.07    0.13
  -8  -6   4   -0.13    0.11
  -8  -6   4    0.02    0.14
  -8  -6   4    0.02    0.12
   7   6  -4    7.71    0.39
  -7  -6   4    7.59    0.39
  -7  -6   4    8.01    0.37
  -7  -6   4    7.74    0.37
   6   6  -4    0.44    0.15
   6   6  -4    0.49    0.13
  -6  -6   4    0.30    0.11
  -6  -6   4    0.47    0.13
  -6  -6   4    0.11    0.10
   5   6  -4   18.34    0.61
   5   6  -4   18.81    0.57
  -5  -6   4   19.08    0.59
  -5  -6   4   18.65    0.57
   4   6  -4   39.42    1.02
   4   6  -4   40.81    1.05
  -4  -6   4   41.15    1.02
  -4  -6   4   40.09    1.04
  -4  -6   4   40.17    1.02
   3   6  -4    1.26    0.14
   3   6  -4    1.15    0.14
  -3  -6   4    0.95    0.12
  -3  -6   4    1.29    0.15
  -3  -6   4    1.19    0.11
  -3  -6   4    1.03    0.13
   2   6  -4   16.27    0.49
   2   6  -4   15.22    0.48
   2   6  -4   16.07    0.48
  -2  -6   4   15.14    0.46
  -2  -6   4   15.94    0.44
  -2  -6   4   16.16    0.47
  -2  -6   4   15.60    0.49
   1   6  -4   22.72    0.65
   1   6  -4   23.66    0.63
   1   6  -4   24.14    0.63
  -1  -6   4   22.52    0.64
  -1  -6   4   24.35    0.62
  -1  -6   4   24.28    0.63
  -1  -6   4   25.30    0.64
   0   6  -4    1.13    0.12
   0   6  -4    1.28    0.15
   0   6  -4    1.21    0.12
   0   6  -4    1.09    0.11
   0  -6   4    1.18    0.16
   0  -6   4    1.00    0.11
   0  -6   4    1.23    0.12
   0  -6   4    1.22    0.11
  -1   6  -4    0.90    0.14
  -1   6  -4    0.81    0.10
  -1   6  -4    0.82    0.09
  -1   6  -4    0.78    0.09
   1  -6   4    0.95    0.16
   1  -6   4    0.93    0.13
   1  -6   4    0.78    0.09
   1  -6   4    0.78    0.10
  -2   6  -4   56.34    1.40
  -2   6  -4   56.06    1.27
  -2   6  -4   55.82    1.27
  -2   6  -4   54.10    1.28
   2  -6   4   56.88    1.29
   2  -6   4   57.13    1.35
   2  -6   4   56.02    1.42
   2  -6   4   54.69    1.32
  -3   6  -4   18.48    0.61
  -3   6  -4   18.03    0.48
   3  -6   4   18.86    0.58
   3  -6   4   18.47    0.56
   3  -6   4   18.42    0.62
  -4   6  -4    3.92    0.29
  -4   6  -4    3.89    0.17
   4  -6   4    4.08    0.25
   4  -6   4    3.63    0.27
   4  -6   4    3.85    0.26
  -5   6  -4   19.07    0.47
  -5   6  -4   19.50    0.68
   5  -6   4   19.13    0.61
   5  -6   4   18.65    0.64
   5  -6   4   18.03    0.62
  -6   6  -4    0.92    0.16
  -6   6  -4    1.02    0.21
   6  -6   4    1.30    0.20
   6  -6   4    0.95    0.17
   6  -6   4    1.13    0.19
  -7   6  -4    0.87    0.17
  -7   6  -4    0.68    0.20
   7  -6   4    0.67    0.17
   7  -6   4    0.63    0.17
  -8   6  -4    3.34    0.36
   8  -6   4    3.80    0.31
   9   5  -4    4.49    0.37
  -9  -5   4    4.28    0.36
  -9  -5   4    4.68    0.37
  -9  -5   4    4.15    0.31
   8   5  -4    3.40    0.30
  -8  -5   4    3.24    0.26
  -8  -5   4    2.79    0.28
  -8  -5   4    3.58    0.27
  -8  -5   4    3.25    0.29
   7   5  -4    1.44    0.19
  -7  -5   4    1.41    0.17
  -7  -5   4    1.46    0.18
  -7  -5   4    0.86    0.17
   6   5  -4    1.36    0.18
  -6  -5   4    1.51    0.16
  -6  -5   4    1.64    0.19
  -6  -5   4    1.49    0.16
   5   5  -4   18.51    0.55
  -5  -5   4   19.04    0.56
  -5  -5   4   17.59    0.56
  -5  -5   4   19.34    0.56
  -5  -5   4   19.67    0.59
   4   5  -4    0.13    0.08
   4   5  -4    0.11    0.08
  -4  -5   4    0.06    0.07
  -4  -5   4    0.11    0.07
  -4  -5   4    0.05    0.08
  -4  -5   4    0.03    0.07
   3   5  -4   72.20    1.71
   3   5  -4   74.52    1.69
  -3  -5   4   73.25    1.69
  -3  -5   4   73.20    1.68
  -3  -5   4   75.88    1.68
  -3  -5   4   73.06    1.71
  -3  -5   4   73.94    1.69
   2   5  -4   44.84    1.06
   2   5  -4   44.19    1.09
   2   5  -4   45.40    1.07
  -2  -5   4   46.32    1.06
  -2  -5   4   43.14    1.09
  -2  -5   4   44.86    1.07
  -2  -5   4   44.18    1.03
   1   5  -4    1.08    0.12
   1   5  -4    1.03    0.11
   1   5  -4    0.88    0.10
  -1  -5   4    0.95    0.11
  -1  -5   4    0.83    0.10
  -1  -5   4    1.23    0.11
  -1  -5   4    1.23    0.10
   0   5  -4   21.53    0.57
   0   5  -4   21.78    0.55
   0   5  -4   23.17    0.62
   0   5  -4   20.98    0.56
   0  -5   4   22.43    0.64
   0  -5   4   20.73    0.55
   0  -5   4   21.38    0.57
   0  -5   4   21.81    0.58
   0  -5   4   21.08    0.54
  -1   5  -4    5.81    0.22
  -1   5  -4    6.22    0.21
  -1   5  -4    5.85    0.27
  -1   5  -4    6.00    0.21
   1  -5   4    6.61    0.23
   1  -5   4    5.94    0.22
   1  -5   4    5.90    0.22
   1  -5   4    5.94    0.20
   1  -5   4    5.58    0.29
   1  -5   4    5.88    0.25
   1  -5   4    5.54    0.22
  -2   5  -4    0.30    0.06
  -2   5  -4    0.16    0.05
  -2   5  -4    0.22    0.06
  -2   5  -4    0.27    0.09
   2  -5   4    0.25    0.07
   2  -5   4    0.25    0.10
   2  -5   4    0.28    0.06
   2  -5   4    0.30    0.09
  -3   5  -4   -0.03    0.08
  -3   5  -4    0.03    0.04
   3  -5   4    0.07    0.06
   3  -5   4    0.18    0.07
   3  -5   4    0.07    0.08
   3  -5   4    0.16    0.09
   3  -5   4    0.05    0.08
  -4   5  -4   33.79    0.95
  -4   5  -4   35.36    0.79
   4  -5   4   33.98    0.94
   4  -5   4   34.77    0.84
   4  -5   4   33.37    0.88
   4  -5   4   33.59    0.91
  -5   5  -4   18.26    0.44
  -5   5  -4   18.52    0.63
   5  -5   4   18.49    0.61
   5  -5   4   18.03    0.52
   5  -5   4   17.23    0.58
   5  -5   4   18.21    0.56
  -6   5  -4    3.95    0.31
  -6   5  -4    3.31    0.24
   6  -5   4    3.45    0.26
   6  -5   4    3.61    0.28
   6  -5   4    3.42    0.25
  -7   5  -4    9.30    0.47
  -7   5  -4    8.91    0.40
   7  -5   4    8.71    0.40
   7  -5   4    8.57    0.42
   7  -5   4    9.03    0.44
  -8   5  -4    2.71    0.31
   8  -5   4    2.48    0.25
   8  -5   4    1.89    0.25
   9   4  -4    1.35    0.23
  -9  -4   4    1.26    0.18
  -9  -4   4    1.04    0.22
  -9  -4   4    1.37    0.23
   8   4  -4    5.79    0.35
  -8  -4   4    5.55    0.36
  -8  -4   4    5.69    0.36
  -8  -4   4    4.77    0.29
   7   4  -4    1.86    0.21
  -7  -4   4    1.63    0.20
  -7  -4   4    2.18    0.19
  -7  -4   4    1.98    0.18
   6   4  -4    5.19    0.29
  -6  -4   4    4.45    0.28
  -6  -4   4    4.66    0.25
  -6  -4   4    5.12    0.25
   5   4  -4    0.12    0.07
   5   4  -4    0.01    0.09
  -5  -4   4    0.09    0.08
  -5  -4   4    0.16    0.08
  -5  -4   4    0.08    0.08
  -5  -4   4    0.11    0.08
   4   4  -4   14.43    0.43
   4   4  -4   14.31    0.45
  -4  -4   4   14.48    0.44
  -4  -4   4   14.90    0.46
  -4  -4   4   14.57    0.43
  -4  -4   4   13.75    0.43
   3   4  -4   68.50    1.55
   3   4  -4   64.27    1.56
  -3  -4   4   67.85    1.54
  -3  -4   4   66.85    1.55
  -3  -4   4   68.40    1.57
  -3  -4   4   69.51    1.54
   2   4  -4    0.22    0.06
   2   4  -4    0.29    0.07
   2   4  -4    0.23    0.07
  -2  -4   4    0.37    0.08
  -2  -4   4    0.18    0.07
  -2  -4   4    0.15    0.06
  -2  -4   4    0.20    0.06
   1   4  -4   28.54    0.70
   1   4  -4   28.17    0.71
   1   4  -4   28.89    0.70
  -1  -4   4   29.45    0.72
  -1  -4   4   28.21    0.72
  -1  -4   4   28.15    0.70
   0   4  -4   92.28    2.02
   0   4  -4   91.54    2.02
   0   4  -4   91.42    2.04
   0  -4   4   93.77    2.04
   0  -4   4   92.11    2.01
   0  -4   4   91.35    2.09
   0  -4   4   92.86    2.05
  -1   4  -4    3.90    0.15
  -1   4  -4    3.81    0.20
  -1   4  -4    3.24    0.15
  -1   4  -4    3.49    0.15
  -1   4  -4    3.79    0.15
   1  -4   4    3.45    0.13
   1  -4   4    3.63    0.18
   1  -4   4    3.48    0.16
   1  -4   4    3.31    0.16
   1  -4   4    3.43    0.15
  -2   4  -4   23.39    0.56
  -2   4  -4   23.32    0.56
  -2   4  -4   21.47    0.65
  -2   4  -4   23.63    0.57
   2  -4   4   23.71    0.63
   2  -4   4   22.34    0.60
   2  -4   4   22.07    0.66
   2  -4   4   25.25    0.61
   2  -4   4   24.52    0.59
   2  -4   4   23.77    0.59
  -3   4  -4    0.44    0.10
  -3   4  -4    0.44    0.06
   3  -4   4    0.51    0.07
   3  -4   4    0.66    0.12
   3  -4   4    0.50    0.09
   3  -4   4    0.55    0.08
   3  -4   4    0.41    0.09
  -4   4  -4    3.97    0.14
  -4   4  -4    4.16    0.25
   4  -4   4    4.13    0.21
   4  -4   4    4.12    0.19
   4  -4   4    4.05    0.23
   4  -4   4    4.26    0.24
  -5   4  -4    0.30    0.10
  -5   4  -4    0.20    0.11
   5  -4   4    0.25    0.09
   5  -4   4    0.29    0.11
   5  -4   4    0.21    0.10
   5  -4   4    0.19    0.09
  -6   4  -4   17.66    0.57
  -6   4  -4   17.78    0.62
   6  -4   4   18.14    0.54
   6  -4   4   18.14    0.61
   6  -4   4   18.06    0.56
   6  -4   4   17.38    0.58
  -7   4  -4   13.72    0.54
  -7   4  -4   12.65    0.48
   7  -4   4   12.81    0.45
   7  -4   4   12.76    0.50
   7  -4   4   12.76    0.52
   7  -4   4   13.08    0.48
   8  -4   4   -0.07    0.10
   8  -4   4    0.03    0.13
   8  -4   4    0.04    0.12
   8  -4   4    0.09    0.14
   9   3  -4    2.21    0.26
  -9  -3   4    1.98    0.21
  -9  -3   4    2.53    0.29
  -9  -3   4    2.28    0.27
   8   3  -4   11.03    0.47
  -8  -3   4   10.23    0.40
  -8  -3   4    9.82    0.46
  -8  -3   4   10.26    0.46
   7   3  -4    1.99    0.22
  -7  -3   4    2.11    0.22
  -7  -3   4    1.95    0.22
  -7  -3   4    2.09    0.19
  -7  -3   4    2.11    0.21
   6   3  -4    1.90    0.19
  -6  -3   4    1.70    0.16
  -6  -3   4    1.77    0.18
  -6  -3   4    1.77    0.16
  -6  -3   4    1.72    0.16
   5   3  -4   15.50    0.44
   5   3  -4   15.68    0.50
  -5  -3   4   15.51    0.46
  -5  -3   4   15.75    0.48
  -5  -3   4   14.71    0.48
  -5  -3   4   15.45    0.46
   4   3  -4    2.50    0.15
   4   3  -4    2.58    0.17
  -4  -3   4    2.58    0.16
  -4  -3   4    2.65    0.17
  -4  -3   4    2.63    0.17
  -4  -3   4    2.61    0.16
   3   3  -4    0.37    0.07
   3   3  -4    0.43    0.08
  -3  -3   4    0.41    0.08
  -3  -3   4    0.41    0.07
  -3  -3   4    0.39    0.08
  -3  -3   4    0.40    0.07
   2   3  -4   27.89    0.71
   2   3  -4   29.19    0.69
   2   3  -4   27.63    0.69
  -2  -3   4   28.37    0.69
  -2  -3   4   28.59    0.69
  -2  -3   4   27.51    0.71
  -2  -3   4   28.08    0.70
   1   3  -4  108.91    2.36
   1   3  -4  107.03    2.34
   1   3  -4  105.53    2.33
  -1  -3   4  107.32    2.34
  -1  -3   4  106.53    2.36
  -1  -3   4  108.39    2.35
   0   3  -4    5.38    0.18
   0   3  -4    5.62    0.23
   0   3  -4    5.61    0.20
   0   3  -4    5.34    0.19
   0  -3   4    5.30    0.23
   0  -3   4    5.26    0.20
   0  -3   4    5.32    0.18
  -1   3  -4   93.04    2.14
  -1   3  -4   96.55    2.08
  -1   3  -4   95.16    2.07
  -1   3  -4   96.52    2.09
  -1   3  -4   94.91    2.07
   1  -3   4   96.99    2.10
   1  -3   4   92.76    2.11
   1  -3   4   96.96    2.06
   1  -3   4   95.23    2.16
   1  -3   4   97.87    2.09
  -2   3  -4    7.69    0.21
  -2   3  -4    7.49    0.21
  -2   3  -4    7.69    0.21
  -2   3  -4    7.45    0.22
  -2   3  -4    6.98    0.28
   2  -3   4    7.22    0.24
   2  -3   4    7.52    0.24
   2  -3   4    7.10    0.24
   2  -3   4    7.75    0.23
   2  -3   4    7.30    0.25
  -3   3  -4    2.76    0.19
  -3   3  -4    2.94    0.11
  -3   3  -4    3.00    0.11
   3  -3   4    3.43    0.20
   3  -3   4    2.92    0.14
   3  -3   4    3.05    0.15
   3  -3   4    2.85    0.17
   3  -3   4    3.11    0.16
  -4   3  -4    0.23    0.04
  -4   3  -4    0.18    0.07
  -4   3  -4    0.14    0.08
  -4   3  -4    0.23    0.04
   4  -3   4    0.22    0.09
   4  -3   4    0.18    0.07
   4  -3   4    0.19    0.07
   4  -3   4    0.23    0.08
  -5   3  -4   52.15    1.31
  -5   3  -4   53.70    1.28
   5  -3   4   51.91    1.28
   5  -3   4   53.21    1.32
   5  -3   4   53.35    1.26
   5  -3   4   53.06    1.25
  -6   3  -4   20.49    0.62
  -6   3  -4   21.14    0.66
   6  -3   4   20.65    0.60
   6  -3   4   21.18    0.60
   6  -3   4   20.63    0.66
   6  -3   4   21.87    0.64
  -7   3  -4    0.29    0.12
  -7   3  -4    0.46    0.14
   7  -3   4    0.57    0.14
   7  -3   4    0.51    0.14
   7  -3   4    0.19    0.11
   7  -3   4    0.61    0.13
   8  -3   4    8.83    0.43
   8  -3   4    8.88    0.39
   8  -3   4    8.49    0.40
   8  -3   4    8.61    0.38
   9  -3   4    6.09    0.35
   9  -3   4    5.54    0.38
   9   2  -4    9.09    0.46
  -9  -2   4    8.14    0.37
  -9  -2   4    8.40    0.45
  -9  -2   4    7.38    0.45
   8   2  -4   12.83    0.51
  -8  -2   4   12.86    0.53
  -8  -2   4   13.39    0.46
  -8  -2   4   14.22    0.53
   7   2  -4    2.53    0.23
  -7  -2   4    2.71    0.23
  -7  -2   4    2.39    0.19
  -7  -2   4    2.49    0.23
  -7  -2   4    2.32    0.18
   6   2  -4    7.45    0.33
  -6  -2   4    7.10    0.33
  -6  -2   4    7.67    0.30
  -6  -2   4    6.78    0.31
  -6  -2   4    6.96    0.28
  -6  -2   4    7.20    0.28
   5   2  -4   35.34    0.91
   5   2  -4   34.55    0.87
  -5  -2   4   35.17    0.91
  -5  -2   4   35.10    0.89
  -5  -2   4   35.72    0.87
  -5  -2   4   34.61    0.90
  -5  -2   4   36.12    0.87
   4   2  -4    2.29    0.15
   4   2  -4    2.33    0.16
   4   2  -4    2.43    0.14
  -4  -2   4    2.33    0.14
  -4  -2   4    2.47    0.16
  -4  -2   4    2.40    0.15
  -4  -2   4    2.36    0.16
  -4  -2   4    2.22    0.14
   3   2  -4    3.76    0.18
   3   2  -4    4.03    0.17
  -3  -2   4    3.92    0.19
  -3  -2   4    3.96    0.18
  -3  -2   4    4.06    0.17
  -3  -2   4    3.57    0.17
   2   2  -4   42.57    0.99
   2   2  -4   43.30    0.93
   2   2  -4   41.75    1.00
  -2  -2   4   41.70    0.98
  -2  -2   4   42.95    1.00
  -2  -2   4   43.22    1.01
  -2  -2   4   42.85    0.98
   1   2  -4    6.47    0.23
   1   2  -4    6.46    0.21
   1   2  -4    6.88    0.22
  -1  -2   4    6.66    0.23
  -1  -2   4    6.93    0.23
  -1  -2   4    6.51    0.21
   0   2  -4   70.68    1.56
   0   2  -4   69.80    1.55
   0   2  -4   71.37    1.56
   0   2  -4   69.79    1.54
   0  -2   4   68.87    1.55
   0  -2   4   70.67    1.59
   0  -2   4   72.01    1.56
  -1   2  -4  176.67    3.69
  -1   2  -4  169.26    3.66
  -1   2  -4  174.04    3.67
  -1   2  -4  167.24    3.66
   1  -2   4  172.35    3.74
   1  -2   4  171.25    3.70
   1  -2   4  171.91    3.66
   1  -2   4  175.55    3.68
  -2   2  -4   51.56    1.14
  -2   2  -4   52.82    1.13
  -2   2  -4   50.62    1.20
  -2   2  -4   51.54    1.12
  -2   2  -4   50.17    1.18
  -2   2  -4   51.58    1.13
   2  -2   4   51.75    1.16
   2  -2   4   52.37    1.17
   2  -2   4   50.50    1.22
   2  -2   4   51.64    1.19
   2  -2   4   50.63    1.20
   2  -2   4   52.34    1.14
  -3   2  -4   23.31    0.54
  -3   2  -4   24.05    0.54
  -3   2  -4   23.54    0.61
  -3   2  -4   23.60    0.64
   3  -2   4   22.68    0.59
   3  -2   4   24.89    0.59
   3  -2   4   24.55    0.62
   3  -2   4   23.22    0.64
   3  -2   4   23.77    0.60
   3  -2   4   23.91    0.56
  -4   2  -4    1.73    0.14
  -4   2  -4    1.85    0.15
  -4   2  -4    2.04    0.08
  -4   2  -4    2.02    0.08
   4  -2   4    2.06    0.13
   4  -2   4    2.18    0.14
   4  -2   4    1.77    0.16
   4  -2   4    2.13    0.15
  -5   2  -4    1.97    0.16
  -5   2  -4    2.27    0.18
   5  -2   4    2.20    0.15
   5  -2   4    2.19    0.16
   5  -2   4    1.87    0.16
   5  -2   4    1.90    0.18
  -6   2  -4    0.31    0.10
  -6   2  -4    0.34    0.11
   6  -2   4    0.33    0.10
   6  -2   4    0.31    0.09
   6  -2   4    0.27    0.11
   6  -2   4    0.29    0.10
  -7   2  -4    6.35    0.30
  -7   2  -4    6.19    0.31
   7  -2   4    6.18    0.29
   7  -2   4    6.04    0.30
   7  -2   4    6.16    0.34
   7  -2   4    6.69    0.29
  -8   2  -4   20.84    0.65
   8  -2   4   19.58    0.67
   8  -2   4   18.51    0.61
  -9   2  -4    0.00    0.13
   9  -2   4    0.21    0.14
   9  -2   4    0.24    0.16
   9   1  -4    1.52    0.23
  -9  -1   4    1.53    0.23
  -9  -1   4    1.45    0.17
  -9  -1   4    1.64    0.25
   8   1  -4    1.14    0.19
  -8  -1   4    0.74    0.13
  -8  -1   4    1.04    0.18
  -8  -1   4    1.04    0.20
   7   1  -4   33.22    0.93
  -7  -1   4   33.01    0.86
  -7  -1   4   33.53    0.92
  -7  -1   4   34.21    0.95
   6   1  -4   24.40    0.67
   6   1  -4   24.95    0.71
  -6  -1   4   25.18    0.65
  -6  -1   4   23.50    0.69
  -6  -1   4   23.94    0.71
  -6  -1   4   24.48    0.65
   5   1  -4    5.48    0.26
   5   1  -4    5.77    0.24
  -5  -1   4    5.51    0.25
  -5  -1   4    5.51    0.26
  -5  -1   4    5.37    0.22
  -5  -1   4    5.53    0.22
  -5  -1   4    5.02    0.23
   4   1  -4   38.87    0.93
   4   1  -4   37.52    0.89
   4   1  -4   38.37    0.94
   4   1  -4   37.41    0.94
  -4  -1   4   37.82    0.95
  -4  -1   4   39.03    0.94
  -4  -1   4   39.19    0.94
  -4  -1   4   38.81    0.91
  -4  -1   4   39.35    0.91
   3   1  -4    0.87    0.10
   3   1  -4    0.72    0.09
   3   1  -4    1.00    0.09
  -3  -1   4    0.91    0.10
  -3  -1   4    0.86    0.09
  -3  -1   4    0.82    0.08
  -3  -1   4    0.77    0.09
   2   1  -4    6.60    0.22
   2   1  -4    6.08    0.22
   2   1  -4    6.51    0.16
  -2  -1   4    6.23    0.21
  -2  -1   4    6.44    0.21
  -2  -1   4    6.22    0.23
   1   1  -4   50.38    1.09
   1   1  -4   48.41    1.12
   1   1  -4   48.37    1.13
  -1  -1   4   50.43    1.14
  -1  -1   4   50.69    1.11
   0   1  -4  183.57    3.83
   0   1  -4  180.67    3.81
   0   1  -4  178.01    3.81
   0   1  -4  177.17    3.83
   0   1  -4  179.68    3.81
   0  -1   4  181.67    3.84
   0  -1   4  173.05    3.82
   0  -1   4  177.85    3.83
  -1   1  -4   63.45    1.40
  -1   1  -4   64.13    1.39
  -1   1  -4   63.38    1.39
  -1   1  -4   62.71    1.40
  -1   1  -4   63.84    1.38
   1  -1   4   63.51    1.38
   1  -1   4   63.44    1.41
   1  -1   4   60.67    1.43
   1  -1   4   64.58    1.40
  -2   1  -4   79.65    1.63
  -2   1  -4   73.95    1.67
  -2   1  -4   73.67    1.64
  -2   1  -4   73.29    1.68
  -2   1  -4   73.98    1.63
  -2   1  -4   75.26    1.62
   2  -1   4   76.02    1.70
   2  -1   4   75.24    1.64
   2  -1   4   76.23    1.66
   2  -1   4   74.04    1.67
   2  -1   4   76.89    1.64
  -3   1  -4   13.36    0.39
  -3   1  -4   13.39    0.39
  -3   1  -4   13.21    0.33
  -3   1  -4   14.21    0.33
   3  -1   4   12.90    0.37
   3  -1   4   13.57    0.38
   3  -1   4   13.17    0.37
   3  -1   4   12.51    0.40
   3  -1   4   13.61    0.34
   3  -1   4   13.35    0.35
  -4   1  -4    2.08    0.14
  -4   1  -4    1.67    0.08
  -4   1  -4    1.95    0.14
   4  -1   4    1.52    0.14
   4  -1   4    2.02    0.12
   4  -1   4    1.72    0.13
   4  -1   4    1.75    0.12
  -5   1  -4    5.56    0.24
  -5   1  -4    5.85    0.16
  -5   1  -4    6.02    0.26
  -5   1  -4    5.95    0.25
   5  -1   4    5.57    0.27
   5  -1   4    5.66    0.24
   5  -1   4    6.00    0.22
   5  -1   4    5.66    0.24
  -6   1  -4    0.60    0.11
  -6   1  -4    0.41    0.11
  -6   1  -4    0.38    0.09
   6  -1   4    0.33    0.09
   6  -1   4    0.37    0.10
   6  -1   4    0.53    0.09
   6  -1   4    0.44    0.12
  -7   1  -4    7.98    0.39
  -7   1  -4    7.84    0.33
   7  -1   4    7.78    0.33
   7  -1   4    7.61    0.37
  -8   1  -4    1.78    0.21
   8  -1   4    1.71    0.22
   8  -1   4    1.39    0.18
  -9   1  -4   14.56    0.55
   9  -1   4   14.07    0.53
   9  -1   4   13.42    0.57
   9   0  -4    0.41    0.18
  -9   0   4    0.21    0.15
  -9   0   4    0.23    0.11
  -9   0   4    0.66    0.19
   8   0  -4   17.75    0.63
  -8   0   4   17.85    0.61
  -8   0   4   18.91    0.67
   7   0  -4   12.56    0.48
  -7   0   4   12.45    0.42
  -7   0   4   13.63    0.48
  -7   0   4   13.26    0.51
   6   0  -4    6.34    0.29
   6   0  -4    6.10    0.30
  -6   0   4    6.51    0.32
  -6   0   4    5.77    0.28
  -6   0   4    6.34    0.23
  -6   0   4    6.14    0.25
   5   0  -4   20.80    0.58
   5   0  -4   19.72    0.58
  -5   0   4   20.20    0.54
  -5   0   4   20.44    0.60
  -5   0   4   19.63    0.54
  -5   0   4   20.65    0.54
  -5   0   4   20.86    0.58
   4   0  -4   16.78    0.47
   4   0  -4   16.31    0.41
   4   0  -4   16.52    0.47
   4   0  -4   16.29    0.48
  -4   0   4   16.28    0.46
  -4   0   4   16.48    0.44
  -4   0   4   16.16    0.48
  -4   0   4   16.75    0.44
  -4   0   4   15.78    0.45
   3   0  -4    4.03    0.18
   3   0  -4    3.32    0.17
   3   0  -4    3.65    0.17
   3   0  -4    3.51    0.15
  -3   0   4    3.79    0.17
  -3   0   4    3.76    0.16
  -3   0   4    3.68    0.16
  -3   0   4    3.84    0.20
  -3   0   4    3.39    0.17
  -3   0   4    3.64    0.16
   2   0  -4   22.70    0.57
   2   0  -4   22.21    0.55
   2   0  -4   22.33    0.56
   2   0  -4   22.84    0.50
  -2   0   4   22.46    0.56
  -2   0   4   22.05    0.55
  -2   0   4   22.50    0.57
  -2   0   4   22.31    0.55
  -2   0   4   22.18    0.56
   1   0  -4   17.59    0.41
   1   0  -4   16.72    0.44
   1   0  -4   17.38    0.46
  -1   0   4   17.59    0.44
  -1   0   4   18.02    0.46
  -1   0   4   17.54    0.44
   0   0  -4  106.83    2.29
   0   0  -4  105.50    2.27
   0   0  -4  103.64    2.28
   0   0  -4  104.91    2.27
   0   0  -4  107.25    2.29
   0   0   4  105.52    2.28
   0   0   4  104.31    2.28
  -1   0  -4   41.59    0.94
  -1   0  -4   41.89    0.93
  -1   0  -4   42.03    0.94
  -1   0  -4   41.44    0.94
  -1   0  -4   41.26    0.93
   1   0   4   41.30    0.92
   1   0   4   40.40    0.94
   1   0   4   41.79    0.94
   1   0   4   40.01    0.94
  -2   0  -4  120.57    2.65
  -2   0  -4  124.35    2.69
  -2   0  -4  122.28    2.65
  -2   0  -4  124.68    2.66
  -2   0  -4  127.48    2.65
   2   0   4  126.58    2.67
   2   0   4  123.99    2.68
   2   0   4  123.25    2.70
  -3   0  -4    5.47    0.21
  -3   0  -4    5.08    0.20
  -3   0  -4    5.38    0.16
  -3   0  -4    5.39    0.16
  -3   0  -4    5.41    0.16
  -3   0  -4    5.41    0.15
   3   0   4    5.12    0.19
   3   0   4    5.40    0.17
   3   0   4    5.55    0.17
   3   0   4    5.20    0.19
   3   0   4    5.37    0.22
   3   0   4    5.21    0.20
  -4   0  -4   19.81    0.51
  -4   0  -4   18.40    0.52
  -4   0  -4   19.01    0.51
  -4   0  -4   18.28    0.44
  -4   0  -4   19.40    0.44
   4   0   4   18.93    0.50
   4   0   4   18.31    0.54
   4   0   4   18.80    0.47
   4   0   4   19.37    0.55
   4   0   4   19.36    0.50
  -5   0  -4   30.40    0.78
  -5   0  -4   32.17    0.70
  -5   0  -4   31.49    0.80
  -5   0  -4   30.23    0.78
  -5   0  -4   31.55    0.70
   5   0   4   31.26    0.78
   5   0   4   30.82    0.75
   5   0   4   30.65    0.79
   5   0   4   31.34    0.77
   5   0   4   31.74    0.83
  -6   0  -4    0.12    0.07
  -6   0  -4    0.20    0.05
  -6   0  -4    0.27    0.09
   6   0   4    0.19    0.08
   6   0   4    0.28    0.10
   6   0   4    0.28    0.09
   6   0   4    0.06    0.06
  -7   0  -4    2.08    0.11
  -7   0  -4    2.12    0.18
   7   0   4    2.35    0.20
   7   0   4    1.96    0.21
  -8   0  -4    0.13    0.12
  -8   0  -4    0.06    0.05
   8   0   4    0.24    0.12
   8   0   4    0.10    0.12
  -9   0  -4    9.43    0.44
   9   0   4    7.88    0.44
   9   0   4    8.43    0.41
 -10   0  -4    0.88    0.20
  10   0   4    0.66    0.19
  10   0   4    0.51    0.20
   9  -1  -4    1.18    0.21
  -9   1   4    1.09    0.20
  -9   1   4    1.61    0.18
  -9   1   4    1.16    0.23
   8  -1  -4    0.36    0.15
  -8   1   4    0.35    0.11
  -8   1   4    0.44    0.16
  -8   1   4    0.40    0.14
   7  -1  -4    1.20    0.17
   7  -1  -4    1.53    0.19
  -7   1   4    1.81    0.22
  -7   1   4    1.37    0.17
  -7   1   4    1.30    0.14
   6  -1  -4   51.81    1.30
   6  -1  -4   53.82    1.29
  -6   1   4   53.20    1.32
  -6   1   4   52.70    1.27
  -6   1   4   49.92    1.23
   5  -1  -4   33.35    0.88
   5  -1  -4   33.48    0.88
  -5   1   4   34.70    0.84
  -5   1   4   34.68    0.87
  -5   1   4   34.10    0.87
  -5   1   4   32.32    0.89
  -5   1   4   35.69    0.82
   4  -1  -4    1.02    0.12
   4  -1  -4    1.01    0.12
  -4   1   4    1.04    0.11
  -4   1   4    1.10    0.10
  -4   1   4    1.08    0.13
  -4   1   4    0.96    0.10
  -4   1   4    0.95    0.10
   3  -1  -4   34.88    0.76
   3  -1  -4   33.86    0.84
   3  -1  -4   34.68    0.79
   3  -1  -4   34.78    0.85
   3  -1  -4   35.77    0.85
  -3   1   4   34.37    0.82
  -3   1   4   35.67    0.83
  -3   1   4   34.57    0.83
  -3   1   4   35.38    0.83
  -3   1   4   33.40    0.82
  -3   1   4   34.44    0.85
   2  -1  -4   31.25    0.74
   2  -1  -4   31.74    0.76
   2  -1  -4   30.94    0.72
   2  -1  -4   31.38    0.69
  -2   1   4   31.01    0.74
  -2   1   4   30.97    0.75
  -2   1   4   31.04    0.74
  -2   1   4   30.30    0.75
   1  -1  -4   47.26    1.07
   1  -1  -4   48.11    1.05
   1  -1  -4   47.47    1.10
   1  -1  -4   48.77    1.07
  -1   1   4   45.88    1.08
  -1   1   4   48.40    1.09
  -1   1   4   48.56    1.10
  -1   1   4   48.18    1.10
   0  -1  -4    2.82    0.13
   0  -1  -4    2.72    0.10
   0  -1  -4    3.19    0.13
   0  -1  -4    3.03    0.12
   0   1   4    2.91    0.13
  -1  -1  -4   96.18    2.03
  -1  -1  -4   94.38    2.04
  -1  -1  -4   95.49    2.05
  -1  -1  -4   95.89    2.05
  -1  -1  -4   91.00    2.04
   1   1   4   93.65    2.04
   1   1   4   93.69    2.03
   1   1   4   93.93    2.05
   1   1   4   93.58    2.03
  -2  -1  -4    8.03    0.23
  -2  -1  -4    7.78    0.22
  -2  -1  -4    7.83    0.23
  -2  -1  -4    8.04    0.23
   2   1   4    8.07    0.23
   2   1   4    8.17    0.21
   2   1   4    7.96    0.24
   2   1   4    8.00    0.25
  -3  -1  -4    9.29    0.26
  -3  -1  -4    9.36    0.25
  -3  -1  -4    9.22    0.25
  -3  -1  -4    9.18    0.29
  -3  -1  -4    9.98    0.25
   3   1   4    8.77    0.28
   3   1   4    9.41    0.26
   3   1   4    9.17    0.28
   3   1   4    9.17    0.30
  -4  -1  -4   79.38    1.70
  -4  -1  -4   76.39    1.70
  -4  -1  -4   77.69    1.70
  -4  -1  -4   76.10    1.77
  -4  -1  -4   78.02    1.76
  -4  -1  -4   80.23    1.70
  -4  -1  -4   79.99    1.69
   4   1   4   80.93    1.70
   4   1   4   77.53    1.75
   4   1   4   77.47    1.79
   4   1   4   77.90    1.76
   4   1   4   79.75    1.72
   4   1   4   78.81    1.73
  -5  -1  -4    1.66    0.09
  -5  -1  -4    1.54    0.14
  -5  -1  -4    1.43    0.13
   5   1   4    1.46    0.10
   5   1   4    1.50    0.15
   5   1   4    1.73    0.14
   5   1   4    1.49    0.12
   5   1   4    1.59    0.15
  -6  -1  -4    1.17    0.09
  -6  -1  -4    1.15    0.13
  -6  -1  -4    1.27    0.13
   6   1   4    1.07    0.13
   6   1   4    0.89    0.14
   6   1   4    1.48    0.16
  -7  -1  -4    0.38    0.10
  -7  -1  -4    0.57    0.08
   7   1   4    0.69    0.15
   7   1   4    0.38    0.12
  -8  -1  -4    3.78    0.27
  -8  -1  -4    3.53    0.16
   8   1   4    3.23    0.28
   8   1   4    3.22    0.25
  -9  -1  -4    0.10    0.07
  -9  -1  -4    0.13    0.14
   9   1   4    0.20    0.14
   9   1   4    0.23    0.16
 -10  -1  -4    7.91    0.44
 -10  -1  -4    6.45    0.24
  10   1   4    7.15    0.42
   9  -2  -4   -0.03    0.15
  -9   2   4   -0.10    0.17
  -9   2   4    0.15    0.11
   8  -2  -4    1.41    0.21
   8  -2  -4    1.40    0.21
  -8   2   4    1.36    0.16
  -8   2   4    1.44    0.23
   7  -2  -4    7.73    0.37
   7  -2  -4    7.17    0.36
  -7   2   4    7.81    0.34
  -7   2   4    7.78    0.39
  -7   2   4    8.24    0.31
   6  -2  -4   13.20    0.46
   6  -2  -4   12.59    0.46
  -6   2   4   12.94    0.40
  -6   2   4   12.43    0.47
  -6   2   4   12.58    0.43
   5  -2  -4    1.03    0.13
   5  -2  -4    0.80    0.12
  -5   2   4    0.81    0.10
  -5   2   4    0.98    0.12
  -5   2   4    0.72    0.13
  -5   2   4    0.91    0.08
   4  -2  -4   44.76    1.09
   4  -2  -4   45.48    1.10
  -4   2   4   44.34    1.11
  -4   2   4   44.80    1.06
  -4   2   4   44.60    1.05
  -4   2   4   46.38    1.04
  -4   2   4   45.40    1.05
   3  -2  -4   14.90    0.42
   3  -2  -4   14.69    0.43
   3  -2  -4   14.52    0.42
   3  -2  -4   14.77    0.37
   3  -2  -4   14.86    0.36
  -3   2   4   14.22    0.40
  -3   2   4   14.89    0.44
  -3   2   4   14.45    0.40
  -3   2   4   14.91    0.40
  -3   2   4   14.83    0.41
  -3   2   4   14.92    0.40
   2  -2  -4   12.96    0.37
   2  -2  -4   13.05    0.34
   2  -2  -4   13.88    0.34
   2  -2  -4   13.09    0.38
  -2   2   4   13.12    0.37
  -2   2   4   13.00    0.36
  -2   2   4   12.89    0.36
  -2   2   4   13.61    0.38
   1  -2  -4    1.02    0.09
   1  -2  -4    1.06    0.08
   1  -2  -4    1.03    0.08
   1  -2  -4    1.04    0.08
  -1   2   4    0.98    0.09
  -1   2   4    1.11    0.09
  -1   2   4    1.08    0.10
  -1   2   4    1.09    0.09
   0  -2  -4    5.47    0.16
   0  -2  -4    5.58    0.20
   0  -2  -4    5.35    0.18
   0   2   4    5.46    0.18
   0   2   4    5.53    0.19
   0   2   4    5.45    0.19
  -1  -2  -4   57.30    1.27
  -1  -2  -4   56.81    1.25
  -1  -2  -4   56.45    1.27
  -1  -2  -4   55.23    1.26
  -1  -2  -4   58.80    1.31
   1   2   4   56.38    1.27
   1   2   4   57.00    1.25
   1   2   4   56.45    1.24
   1   2   4   55.78    1.26
  -2  -2  -4   46.19    1.02
  -2  -2  -4   46.08    1.02
  -2  -2  -4   44.70    1.01
  -2  -2  -4   44.83    1.01
  -2  -2  -4   43.66    1.03
   2   2   4   45.06    1.01
   2   2   4   43.84    1.02
   2   2   4   45.16    1.03
   2   2   4   44.58    1.00
  -3  -2  -4   90.24    2.00
  -3  -2  -4   93.59    2.01
  -3  -2  -4   91.91    2.00
  -3  -2  -4   91.81    2.03
  -3  -2  -4   92.72    2.01
   3   2   4   89.42    2.01
   3   2   4   92.67    2.04
   3   2   4   94.24    1.98
   3   2   4   92.04    2.01
  -4  -2  -4   84.67    1.86
  -4  -2  -4   85.86    1.86
  -4  -2  -4   83.25    1.90
  -4  -2  -4   87.53    1.90
  -4  -2  -4   85.45    1.86
   4   2   4   82.79    1.93
   4   2   4   84.98    1.91
   4   2   4   85.41    1.89
   4   2   4   86.78    1.87
  -5  -2  -4    3.40    0.18
  -5  -2  -4    3.19    0.17
  -5  -2  -4    3.00    0.13
  -5  -2  -4    3.27    0.14
   5   2   4    2.84    0.18
   5   2   4    3.11    0.19
   5   2   4    3.11    0.21
  -6  -2  -4   28.85    0.75
  -6  -2  -4   28.01    0.73
  -6  -2  -4   29.41    0.68
   6   2   4   28.62    0.75
   6   2   4   28.04    0.77
   6   2   4   27.21    0.79
  -7  -2  -4    2.16    0.18
  -7  -2  -4    1.85    0.14
  -7  -2  -4    1.85    0.19
   7   2   4    1.63    0.20
   7   2   4    2.19    0.19
  -8  -2  -4    0.29    0.08
  -8  -2  -4    0.27    0.13
   8   2   4    0.49    0.14
   8   2   4    0.24    0.15
  -9  -2  -4    0.31    0.15
  -9  -2  -4    0.42    0.09
   9   2   4    0.39    0.15
   9   2   4    0.28    0.17
 -10  -2  -4    4.84    0.23
 -10  -2  -4    5.04    0.38
  10   2   4    4.98    0.38
   9  -3  -4    2.14    0.27
  -9   3   4    2.17    0.18
  -9   3   4    2.23    0.31
   8  -3  -4    0.29    0.15
   8  -3  -4    0.49    0.16
  -8   3   4    0.20    0.16
  -8   3   4    0.15    0.09
   7  -3  -4    1.00    0.18
   7  -3  -4    1.00    0.17
  -7   3   4    1.11    0.13
  -7   3   4    1.16    0.19
   6  -3  -4    0.68    0.14
   6  -3  -4    0.87    0.15
  -6   3   4    0.66    0.15
  -6   3   4    0.65    0.10
   5  -3  -4   22.58    0.64
   5  -3  -4   21.85    0.65
  -5   3   4   22.49    0.59
  -5   3   4   21.60    0.65
  -5   3   4   21.46    0.58
  -5   3   4   21.38    0.53
   4  -3  -4   49.11    1.22
   4  -3  -4   49.90    1.20
  -4   3   4   51.60    1.14
  -4   3   4   49.07    1.16
  -4   3   4   49.19    1.17
  -4   3   4   50.56    1.16
  -4   3   4   49.87    1.23
   3  -3  -4   12.99    0.32
   3  -3  -4   13.09    0.39
   3  -3  -4   13.37    0.41
   3  -3  -4   12.95    0.35
   3  -3  -4   12.42    0.38
  -3   3   4   12.52    0.36
  -3   3   4   12.92    0.41
  -3   3   4   12.63    0.37
  -3   3   4   12.87    0.36
  -3   3   4   13.01    0.36
   2  -3  -4   76.78    1.67
   2  -3  -4   74.01    1.68
   2  -3  -4   74.16    1.63
   2  -3  -4   73.92    1.61
   2  -3  -4   73.63    1.65
  -2   3   4   74.99    1.67
  -2   3   4   74.55    1.64
  -2   3   4   71.52    1.65
  -2   3   4   73.41    1.64
  -2   3   4   73.07    1.70
   1  -3  -4   29.56    0.71
   1  -3  -4   30.59    0.72
   1  -3  -4   31.07    0.72
   1  -3  -4   30.72    0.75
   1  -3  -4   31.54    0.75
  -1   3   4   30.60    0.74
  -1   3   4   30.45    0.73
  -1   3   4   31.39    0.74
   0  -3  -4   12.16    0.33
   0  -3  -4   12.41    0.34
   0  -3  -4   11.39    0.33
   0  -3  -4   11.81    0.30
   0  -3  -4   12.09    0.35
   0   3   4   11.76    0.34
   0   3   4   11.99    0.34
   0   3   4   12.46    0.31
   0   3   4   12.21    0.33
  -1  -3  -4    9.17    0.27
  -1  -3  -4    8.94    0.28
  -1  -3  -4    8.96    0.27
  -1  -3  -4    8.99    0.26
   1   3   4    9.05    0.24
   1   3   4    9.15    0.25
   1   3   4    8.68    0.28
   1   3   4    9.17    0.27
  -2  -3  -4   42.60    1.00
  -2  -3  -4   43.82    0.98
  -2  -3  -4   43.57    0.99
  -2  -3  -4   43.22    1.00
   2   3   4   42.39    0.98
   2   3   4   43.45    1.00
   2   3   4   43.89    1.00
   2   3   4   43.15    0.97
  -3  -3  -4    7.52    0.24
  -3  -3  -4    7.41    0.25
  -3  -3  -4    8.20    0.25
  -3  -3  -4    7.60    0.26
  -3  -3  -4    7.60    0.24
   3   3   4    7.65    0.27
   3   3   4    7.98    0.24
   3   3   4    7.68    0.25
   3   3   4    7.84    0.23
   3   3   4    7.77    0.27
  -4  -3  -4   14.29    0.39
  -4  -3  -4   14.87    0.39
  -4  -3  -4   14.03    0.39
  -4  -3  -4   14.69    0.42
  -4  -3  -4   14.38    0.41
   4   3   4   13.68    0.40
   4   3   4   14.99    0.41
   4   3   4   14.57    0.36
   4   3   4   13.98    0.43
   4   3   4   14.37    0.44
  -5  -3  -4   59.48    1.34
  -5  -3  -4   60.25    1.34
  -5  -3  -4   60.41    1.34
  -5  -3  -4   59.07    1.38
  -5  -3  -4   59.26    1.37
   5   3   4   59.94    1.43
   5   3   4   57.74    1.37
   5   3   4   57.91    1.40
  -6  -3  -4   38.30    0.97
  -6  -3  -4   39.30    0.98
  -6  -3  -4   38.89    0.92
  -6  -3  -4   40.53    0.94
   6   3   4   40.54    0.99
   6   3   4   41.88    1.05
   6   3   4   37.57    1.01
  -7  -3  -4    0.03    0.09
  -7  -3  -4    0.16    0.11
  -7  -3  -4   -0.05    0.07
   7   3   4    0.06    0.11
   7   3   4   -0.02    0.11
   7   3   4   -0.01    0.09
  -8  -3  -4   12.38    0.49
  -8  -3  -4   11.86    0.38
   8   3   4   12.46    0.46
  -9  -3  -4    0.74    0.18
  -9  -3  -4    0.70    0.12
   9   3   4    0.86    0.17
 -10  -3  -4    0.08    0.17
 -10  -3  -4   -0.02    0.10
  10   3   4    0.02    0.17
   8  -4  -4    0.26    0.16
   8  -4  -4    0.05    0.15
  -8   4   4    0.00    0.08
  -8   4   4   -0.09    0.14
   7  -4  -4    2.93    0.27
   7  -4  -4    2.71    0.25
  -7   4   4    3.07    0.19
  -7   4   4    2.76    0.28
   6  -4  -4    1.22    0.17
   6  -4  -4    0.77    0.15
  -6   4   4    0.99    0.18
  -6   4   4    1.10    0.12
   5  -4  -4   10.98    0.40
   5  -4  -4   10.91    0.42
  -5   4   4   10.78    0.34
  -5   4   4   10.40    0.42
   4  -4  -4    0.01    0.08
   4  -4  -4    0.05    0.08
  -4   4   4   -0.01    0.08
  -4   4   4    0.08    0.05
  -4   4   4    0.05    0.06
   3  -4  -4   60.43    1.35
   3  -4  -4   59.54    1.39
   3  -4  -4   60.24    1.42
  -3   4   4   58.31    1.42
  -3   4   4   59.41    1.35
  -3   4   4   60.28    1.35
  -3   4   4   59.64    1.37
   2  -4  -4  123.04    2.77
   2  -4  -4  126.08    2.75
   2  -4  -4  125.90    2.76
   2  -4  -4  125.31    2.70
   2  -4  -4  126.11    2.73
  -2   4   4  126.42    2.75
  -2   4   4  125.80    2.74
  -2   4   4  132.54    2.81
  -2   4   4  124.79    2.80
  -2   4   4  123.59    2.74
   1  -4  -4   21.01    0.52
   1  -4  -4   20.31    0.52
   1  -4  -4   20.06    0.54
   1  -4  -4   20.67    0.54
   1  -4  -4   20.42    0.51
  -1   4   4   21.53    0.54
  -1   4   4   20.62    0.52
  -1   4   4   20.16    0.53
   0  -4  -4   35.17    0.86
   0  -4  -4   35.54    0.81
   0  -4  -4   35.72    0.84
   0  -4  -4   35.92    0.84
   0  -4  -4   37.38    0.85
   0   4   4   35.36    0.85
   0   4   4   35.49    0.86
   0   4   4   36.10    0.84
  -1  -4  -4   15.98    0.43
  -1  -4  -4   16.17    0.42
  -1  -4  -4   15.19    0.44
  -1  -4  -4   15.81    0.38
  -1  -4  -4   16.07    0.43
  -1  -4  -4   16.59    0.41
   1   4   4   15.61    0.43
   1   4   4   15.51    0.44
   1   4   4   16.46    0.38
   1   4   4   16.17    0.42
  -2  -4  -4    1.55    0.11
  -2  -4  -4    1.34    0.11
  -2  -4  -4    1.38    0.10
  -2  -4  -4    1.32    0.08
  -2  -4  -4    1.34    0.12
  -2  -4  -4    1.24    0.10
   2   4   4    1.32    0.08
   2   4   4    1.25    0.14
   2   4   4    1.25    0.10
   2   4   4    1.31    0.11
  -3  -4  -4    0.06    0.06
  -3  -4  -4    0.07    0.05
  -3  -4  -4    0.15    0.05
  -3  -4  -4    0.15    0.06
  -3  -4  -4    0.07    0.05
   3   4   4    0.11    0.06
   3   4   4    0.15    0.05
   3   4   4    0.12    0.05
   3   4   4    0.03    0.05
  -4  -4  -4   51.44    1.22
  -4  -4  -4   53.32    1.21
  -4  -4  -4   53.71    1.22
  -4  -4  -4   53.61    1.21
  -4  -4  -4   50.51    1.22
   4   4   4   51.61    1.18
   4   4   4   53.23    1.23
   4   4   4   53.07    1.25
   4   4   4   51.67    1.20
  -5  -4  -4   40.20    0.95
  -5  -4  -4   39.73    0.96
  -5  -4  -4   39.09    0.97
  -5  -4  -4   40.46    0.98
  -5  -4  -4   40.28    0.96
   5   4   4   41.44    0.98
   5   4   4   39.35    1.01
  -6  -4  -4    3.51    0.20
  -6  -4  -4    3.35    0.18
  -6  -4  -4    3.98    0.22
  -6  -4  -4    3.21    0.18
  -6  -4  -4    2.97    0.20
   6   4   4    3.58    0.24
   6   4   4    3.83    0.22
  -7  -4  -4   10.69    0.38
  -7  -4  -4    9.99    0.42
  -7  -4  -4   10.27    0.35
   7   4   4   11.58    0.41
   7   4   4   10.59    0.44
  -8  -4  -4    1.72    0.16
  -8  -4  -4    1.57    0.21
   8   4   4    1.61    0.19
  -9  -4  -4    0.70    0.18
  -9  -4  -4    0.92    0.14
   9   4   4    1.08    0.19
 -10  -4  -4    0.57    0.20
 -10  -4  -4    0.39    0.12
  10   4   4    0.33    0.18
   8  -5  -4    1.62    0.24
   8  -5  -4    1.32    0.23
  -8   5   4    1.58    0.26
  -8   5   4    1.63    0.15
   7  -5  -4    3.17    0.30
   7  -5  -4    2.95    0.28
  -7   5   4    3.33    0.31
  -7   5   4    2.78    0.19
   6  -5  -4    0.34    0.13
   6  -5  -4    0.25    0.13
  -6   5   4    0.21    0.08
  -6   5   4    0.12    0.13
   5  -5  -4    0.32    0.12
   5  -5  -4    0.31    0.12
  -5   5   4    0.47    0.14
  -5   5   4    0.39    0.08
   4  -5  -4    2.01    0.18
   4  -5  -4    2.08    0.17
   4  -5  -4    2.09    0.19
  -4   5   4    2.00    0.20
  -4   5   4    1.92    0.12
  -4   5   4    1.82    0.14
   3  -5  -4   66.66    1.52
   3  -5  -4   67.53    1.55
   3  -5  -4   66.84    1.58
  -3   5   4   66.54    1.53
  -3   5   4   65.93    1.59
  -3   5   4   67.12    1.51
  -3   5   4   65.26    1.50
   2  -5  -4    1.78    0.14
   2  -5  -4    1.81    0.14
   2  -5  -4    1.97    0.11
   2  -5  -4    1.94    0.14
   2  -5  -4    1.83    0.16
  -2   5   4    2.11    0.14
  -2   5   4    2.05    0.13
  -2   5   4    2.27    0.14
  -2   5   4    2.01    0.18
   1  -5  -4   29.83    0.75
   1  -5  -4   29.58    0.72
   1  -5  -4   30.10    0.73
   1  -5  -4   29.36    0.71
   1  -5  -4   29.29    0.74
  -1   5   4   28.68    0.78
  -1   5   4   29.55    0.74
  -1   5   4   29.27    0.72
  -1   5   4   29.32    0.73
   0  -5  -4   43.98    1.02
   0  -5  -4   44.30    0.99
   0  -5  -4   44.02    1.01
   0  -5  -4   44.71    1.01
   0  -5  -4   42.57    1.04
   0  -5  -4   43.90    1.03
   0   5   4   43.89    1.02
   0   5   4   42.10    1.03
   0   5   4   41.10    1.02
   0   5   4   43.90    1.07
  -1  -5  -4    0.47    0.08
  -1  -5  -4    0.49    0.06
  -1  -5  -4    0.38    0.07
  -1  -5  -4    0.57    0.07
  -1  -5  -4    0.34    0.07
  -1  -5  -4    0.45    0.07
  -1  -5  -4    0.47    0.08
   1   5   4    0.43    0.07
   1   5   4    0.50    0.10
   1   5   4    0.61    0.08
   1   5   4    0.26    0.07
   1   5   4    0.39    0.04
  -2  -5  -4    6.35    0.23
  -2  -5  -4    6.65    0.20
  -2  -5  -4    6.30    0.25
  -2  -5  -4    6.48    0.23
  -2  -5  -4    6.59    0.25
  -2  -5  -4    6.08    0.23
   2   5   4    6.76    0.24
   2   5   4    6.42    0.26
   2   5   4    6.68    0.19
   2   5   4    6.42    0.25
  -3  -5  -4    3.50    0.18
  -3  -5  -4    3.29    0.18
  -3  -5  -4    3.52    0.18
  -3  -5  -4    3.67    0.18
  -3  -5  -4    3.82    0.18
   3   5   4    3.61    0.15
   3   5   4    3.72    0.17
   3   5   4    3.69    0.19
   3   5   4    3.64    0.19
  -4  -5  -4    0.89    0.11
  -4  -5  -4    0.81    0.10
  -4  -5  -4    0.97    0.11
  -4  -5  -4    0.73    0.10
  -4  -5  -4    0.65    0.10
   4   5   4    0.74    0.09
   4   5   4    0.86    0.10
   4   5   4    0.90    0.12
  -5  -5  -4    1.06    0.12
  -5  -5  -4    1.39    0.13
  -5  -5  -4    1.31    0.13
  -5  -5  -4    1.40    0.14
  -5  -5  -4    1.46    0.14
   5   5   4    1.20    0.15
   5   5   4    1.28    0.13
  -6  -5  -4   29.51    0.78
  -6  -5  -4   29.96    0.77
  -6  -5  -4   30.18    0.78
  -6  -5  -4   30.62    0.77
  -6  -5  -4   29.18    0.82
  -6  -5  -4   29.78    0.78
   6   5   4   31.53    0.79
   6   5   4   28.85    0.83
  -7  -5  -4   24.15    0.67
  -7  -5  -4   23.10    0.68
  -7  -5  -4   24.06    0.73
   7   5   4   25.66    0.76
   7   5   4   25.46    0.70
  -8  -5  -4    0.49    0.15
  -8  -5  -4    0.36    0.11
   8   5   4    0.67    0.18
   8   5   4    0.46    0.14
  -9  -5  -4    6.05    0.30
  -9  -5  -4    6.12    0.39
   9   5   4    6.63    0.37
   7  -6  -4    1.32    0.23
   7  -6  -4    1.55    0.23
  -7   6   4    1.80    0.16
  -7   6   4    2.00    0.26
   6  -6  -4    0.56    0.16
   6  -6  -4    0.41    0.15
  -6   6   4    0.71    0.11
  -6   6   4    0.53    0.17
   5  -6  -4    1.07    0.17
   5  -6  -4    0.76    0.15
  -5   6   4    0.89    0.12
  -5   6   4    1.23    0.19
   4  -6  -4    5.16    0.30
   4  -6  -4    4.76    0.24
   4  -6  -4    5.04    0.27
  -4   6   4    5.23    0.23
  -4   6   4    4.66    0.30
  -4   6   4    5.19    0.20
   3  -6  -4    7.07    0.30
   3  -6  -4    6.92    0.31
   3  -6  -4    7.33    0.28
  -3   6   4    7.29    0.26
  -3   6   4    6.57    0.27
  -3   6   4    6.78    0.34
  -3   6   4    6.81    0.25
   2  -6  -4   25.71    0.68
   2  -6  -4   25.11    0.65
   2  -6  -4   26.91    0.71
   2  -6  -4   25.05    0.67
  -2   6   4   24.22    0.73
  -2   6   4   25.95    0.66
  -2   6   4   26.15    0.67
  -2   6   4   26.17    0.66
   1  -6  -4   95.52    2.14
   1  -6  -4   96.89    2.14
   1  -6  -4   96.89    2.18
   1  -6  -4   96.77    2.16
   1  -6  -4   99.04    2.13
   1  -6  -4   94.45    2.17
  -1   6   4   98.28    2.16
  -1   6   4   99.96    2.15
  -1   6   4   95.30    2.16
  -1   6   4   93.31    2.21
   0  -6  -4   16.43    0.47
   0  -6  -4   15.82    0.47
   0  -6  -4   16.51    0.43
   0  -6  -4   16.49    0.45
   0  -6  -4   15.85    0.45
   0  -6  -4   16.12    0.45
   0   6   4   16.12    0.46
   0   6   4   15.06    0.46
   0   6   4   16.34    0.49
   0   6   4   16.51    0.46
  -1  -6  -4   11.78    0.36
  -1  -6  -4   11.40    0.34
  -1  -6  -4   11.58    0.37
  -1  -6  -4   11.65    0.32
  -1  -6  -4   11.38    0.35
  -1  -6  -4   11.54    0.38
   1   6   4   11.95    0.36
   1   6   4   11.70    0.38
   1   6   4   11.88    0.37
   1   6   4   11.52    0.38
  -2  -6  -4    7.46    0.28
  -2  -6  -4    7.49    0.26
  -2  -6  -4    7.25    0.27
  -2  -6  -4    7.17    0.27
  -2  -6  -4    7.17    0.28
   2   6   4    7.24    0.28
   2   6   4    7.25    0.29
   2   6   4    7.35    0.27
  -3  -6  -4    1.09    0.12
  -3  -6  -4    1.11    0.12
  -3  -6  -4    1.08    0.12
  -3  -6  -4    1.11    0.13
  -3  -6  -4    1.39    0.13
   3   6   4    1.22    0.14
   3   6   4    0.95    0.11
  -4  -6  -4   32.61    0.81
  -4  -6  -4   32.74    0.84
  -4  -6  -4   32.27    0.82
  -4  -6  -4   33.20    0.83
  -4  -6  -4   32.20    0.82
   4   6   4   31.98    0.80
   4   6   4   32.32    0.84
   4   6   4   31.63    0.78
   4   6   4   31.22    0.84
  -5  -6  -4    2.37    0.18
  -5  -6  -4    2.90    0.19
  -5  -6  -4    2.42    0.18
  -5  -6  -4    2.69    0.18
  -5  -6  -4    2.22    0.18
  -5  -6  -4    2.91    0.19
   5   6   4    2.37    0.16
   5   6   4    2.37    0.16
   5   6   4    2.24    0.20
  -6  -6  -4    8.56    0.33
  -6  -6  -4    8.06    0.32
  -6  -6  -4    8.62    0.34
  -6  -6  -4    8.23    0.35
  -6  -6  -4    8.85    0.34
   6   6   4    8.21    0.37
   6   6   4    8.55    0.33
  -7  -6  -4    0.65    0.13
  -7  -6  -4    0.32    0.13
  -7  -6  -4    0.70    0.13
  -7  -6  -4    0.49    0.12
   7   6   4    0.52    0.15
   7   6   4    0.48    0.13
  -8  -6  -4   16.05    0.60
  -8  -6  -4   17.59    0.55
   8   6   4   16.79    0.63
   8   6   4   18.66    0.59
  -9  -6  -4    4.90    0.36
  -9  -6  -4    5.22    0.30
   9   6   4    5.15    0.35
   7  -7  -4    1.76    0.25
  -7   7   4    1.79    0.16
  -7   7   4    1.85    0.27
   6  -7  -4    9.00    0.44
   6  -7  -4    8.51    0.45
  -6   7   4    8.30    0.32
  -6   7   4    9.36    0.47
   5  -7  -4    2.97    0.27
   5  -7  -4    2.60    0.24
  -5   7   4    2.33    0.26
  -5   7   4    2.38    0.18
   4  -7  -4    0.64    0.13
   4  -7  -4    0.81    0.14
   4  -7  -4    0.53    0.15
  -4   7   4    0.65    0.16
  -4   7   4    0.67    0.11
   3  -7  -4    1.46    0.18
   3  -7  -4    1.99    0.18
   3  -7  -4    1.65    0.16
  -3   7   4    2.11    0.22
  -3   7   4    1.73    0.15
  -3   7   4    1.81    0.16
  -3   7   4    1.81    0.14
   2  -7  -4   19.80    0.59
   2  -7  -4   19.39    0.54
   2  -7  -4   18.96    0.56
   2  -7  -4   19.51    0.56
  -2   7   4   20.69    0.55
  -2   7   4   19.28    0.55
  -2   7   4   19.02    0.55
  -2   7   4   18.60    0.61
   1  -7  -4    8.02    0.31
   1  -7  -4    8.07    0.29
   1  -7  -4    7.74    0.31
   1  -7  -4    8.36    0.30
   1  -7  -4    7.87    0.27
  -1   7   4    8.15    0.35
  -1   7   4    7.81    0.30
  -1   7   4    7.87    0.30
   0  -7  -4   13.79    0.42
   0  -7  -4   13.08    0.43
   0  -7  -4   13.11    0.40
   0  -7  -4   13.68    0.43
   0  -7  -4   13.43    0.41
   0  -7  -4   14.02    0.41
   0   7   4   13.93    0.43
   0   7   4   13.97    0.46
   0   7   4   13.35    0.41
  -1  -7  -4   57.89    1.36
  -1  -7  -4   57.95    1.36
  -1  -7  -4   59.50    1.38
  -1  -7  -4   57.54    1.33
  -1  -7  -4   57.90    1.39
   1   7   4   57.74    1.38
   1   7   4   58.96    1.36
   1   7   4   58.55    1.37
  -2  -7  -4   -0.04    0.07
  -2  -7  -4   -0.02    0.07
  -2  -7  -4    0.02    0.08
  -2  -7  -4    0.03    0.08
   2   7   4   -0.02    0.07
   2   7   4    0.03    0.07
   2   7   4    0.04    0.08
  -3  -7  -4    0.23    0.09
  -3  -7  -4    0.23    0.09
  -3  -7  -4    0.25    0.09
  -3  -7  -4    0.19    0.09
   3   7   4    0.36    0.10
   3   7   4    0.01    0.08
   3   7   4    0.24    0.09
  -4  -7  -4    2.82    0.20
  -4  -7  -4    2.63    0.19
  -4  -7  -4    2.56    0.17
  -4  -7  -4    2.62    0.20
  -4  -7  -4    2.64    0.19
  -4  -7  -4    2.64    0.19
   4   7   4    2.95    0.19
   4   7   4    2.77    0.20
   4   7   4    3.11    0.21
  -5  -7  -4    2.78    0.20
  -5  -7  -4    2.39    0.19
  -5  -7  -4    2.66    0.19
  -5  -7  -4    2.54    0.20
  -5  -7  -4    2.66    0.21
   5   7   4    2.48    0.21
   5   7   4    2.73    0.19
  -6  -7  -4    0.50    0.12
  -6  -7  -4    0.43    0.12
  -6  -7  -4    0.42    0.11
  -6  -7  -4    0.37    0.12
  -6  -7  -4    0.39    0.12
   6   7   4    0.57    0.13
   6   7   4    0.39    0.14
  -7  -7  -4    9.32    0.40
  -7  -7  -4    8.70    0.37
  -7  -7  -4    8.81    0.37
  -7  -7  -4    8.52    0.37
   7   7   4    8.40    0.36
   7   7   4    8.77    0.42
  -8  -7  -4   13.77    0.55
  -8  -7  -4   12.60    0.48
   8   7   4   13.56    0.50
   8   7   4   14.60    0.58
  -9  -7  -4    0.59    0.18
  -9  -7  -4    0.56    0.15
   9   7   4    0.64    0.18
   6  -8  -4    3.02    0.31
   6  -8  -4    2.50    0.28
  -6   8   4    2.79    0.21
   5  -8  -4    0.34    0.16
   5  -8  -4    0.33    0.15
  -5   8   4    0.15    0.10
   4  -8  -4    4.00    0.30
   4  -8  -4    4.61    0.30
  -4   8   4    4.21    0.24
   3  -8  -4    1.56    0.17
   3  -8  -4    1.29    0.18
   3  -8  -4    1.59    0.18
  -3   8   4    1.46    0.20
  -3   8   4    1.14    0.14
   2  -8  -4    3.73    0.24
   2  -8  -4    4.05    0.26
   2  -8  -4    3.67    0.22
   2  -8  -4    3.99    0.24
  -2   8   4    3.43    0.21
  -2   8   4    3.97    0.23
  -2   8   4    3.76    0.21
  -2   8   4    4.07    0.28
   1  -8  -4   15.97    0.45
   1  -8  -4   15.49    0.51
   1  -8  -4   15.85    0.51
   1  -8  -4   15.74    0.49
   1  -8  -4   15.18    0.48
  -1   8   4   15.79    0.53
  -1   8   4   16.11    0.50
  -1   8   4   16.49    0.50
  -1   8   4   15.79    0.48
   0  -8  -4   41.25    1.03
   0  -8  -4   41.47    1.03
   0  -8  -4   40.00    1.01
   0  -8  -4   41.58    1.05
   0  -8  -4   40.26    1.06
   0  -8  -4   42.84    1.02
   0   8   4   40.97    1.03
   0   8   4   42.69    1.05
   0   8   4   42.39    1.07
   0   8   4   43.35    1.05
  -1  -8  -4   19.23    0.55
  -1  -8  -4   19.72    0.58
  -1  -8  -4   18.27    0.58
  -1  -8  -4   18.88    0.56
   1   8   4   18.95    0.57
   1   8   4   19.14    0.58
   1   8   4   18.93    0.56
  -2  -8  -4    6.79    0.29
  -2  -8  -4    6.59    0.28
  -2  -8  -4    6.16    0.28
  -2  -8  -4    5.73    0.29
   2   8   4    6.72    0.29
   2   8   4    6.14    0.28
   2   8   4    6.50    0.30
  -3  -8  -4   57.34    1.36
  -3  -8  -4   56.58    1.38
  -3  -8  -4   54.39    1.35
  -3  -8  -4   57.41    1.35
   3   8   4   56.33    1.38
   3   8   4   54.48    1.35
   3   8   4   55.43    1.36
  -4  -8  -4    3.29    0.23
  -4  -8  -4    3.04    0.22
  -4  -8  -4    3.06    0.22
   4   8   4    3.09    0.21
   4   8   4    3.24    0.23
   4   8   4    2.92    0.23
  -5  -8  -4    3.98    0.25
  -5  -8  -4    4.39    0.26
  -5  -8  -4    3.68    0.24
   5   8   4    3.97    0.24
   5   8   4    4.16    0.27
  -6  -8  -4   -0.05    0.15
  -6  -8  -4   -0.03    0.10
  -6  -8  -4   -0.08    0.09
  -6  -8  -4    0.00    0.11
  -6  -8  -4    0.04    0.11
   6   8   4    0.31    0.13
  -7  -8  -4    7.83    0.37
  -7  -8  -4    7.90    0.37
  -7  -8  -4    8.19    0.37
  -7  -8  -4    7.51    0.38
   7   8   4    8.65    0.42
  -8  -8  -4    0.22    0.13
  -8  -8  -4   -0.05    0.13
  -8  -8  -4    0.04    0.13
   8   8   4    0.23    0.17
   6  -9  -4   -0.12    0.15
  -6   9   4    0.11    0.10
   5  -9  -4    9.75    0.45
   5  -9  -4    8.61    0.47
  -5   9   4    8.22    0.35
   4  -9  -4    6.71    0.37
   4  -9  -4    7.69    0.41
  -4   9   4    6.71    0.31
   3  -9  -4    0.51    0.14
   3  -9  -4    0.48    0.15
   3  -9  -4    0.58    0.14
  -3   9   4    0.43    0.11
   2  -9  -4    3.32    0.23
   2  -9  -4    3.22    0.25
   2  -9  -4    2.73    0.24
   2  -9  -4    2.81    0.22
  -2   9   4    2.88    0.21
  -2   9   4    2.93    0.22
   1  -9  -4    0.54    0.14
   1  -9  -4    0.64    0.13
   1  -9  -4    0.69    0.13
   1  -9  -4    0.62    0.13
  -1   9   4    0.65    0.12
  -1   9   4    0.86    0.14
   0  -9  -4    0.18    0.11
   0  -9  -4    0.07    0.10
   0  -9  -4    0.31    0.10
   0   9   4    0.23    0.11
   0   9   4    0.14    0.09
  -1  -9  -4   22.23    0.63
  -1  -9  -4   23.45    0.65
  -1  -9  -4   22.64    0.68
  -1  -9  -4   21.93    0.66
   1   9   4   22.00    0.65
   1   9   4   21.29    0.64
  -2  -9  -4   48.25    1.22
  -2  -9  -4   47.96    1.20
  -2  -9  -4   46.30    1.17
  -2  -9  -4   47.49    1.18
   2   9   4   47.03    1.19
   2   9   4   46.03    1.18
  -3  -9  -4   20.06    0.60
  -3  -9  -4   18.96    0.59
  -3  -9  -4   19.56    0.59
   3   9   4   18.83    0.60
   3   9   4   19.43    0.60
  -4  -9  -4    0.92    0.15
  -4  -9  -4    0.90    0.15
  -4  -9  -4    1.05    0.16
   4   9   4    0.98    0.16
   4   9   4    0.73    0.14
  -5  -9  -4    3.57    0.25
  -5  -9  -4    3.31    0.24
  -5  -9  -4    3.23    0.25
   5   9   4    2.93    0.26
   5   9   4    2.93    0.24
  -6  -9  -4    0.08    0.12
  -6  -9  -4    0.16    0.13
   6   9   4    0.16    0.13
  -7  -9  -4    0.78    0.17
  -7  -9  -4    0.64    0.17
   7   9   4    0.81    0.19
  -8  -9  -4    0.95    0.19
   8   9   4    0.97    0.22
   5 -10  -4    5.69    0.39
  -5  10   4    5.45    0.30
   4 -10  -4   -0.13    0.14
   4 -10  -4    0.07    0.16
  -4  10   4    0.06    0.10
   3 -10  -4   16.42    0.61
   3 -10  -4   15.14    0.57
   3 -10  -4   16.31    0.57
  -3  10   4   15.01    0.52
   2 -10  -4    0.03    0.12
   2 -10  -4    0.07    0.12
   2 -10  -4    0.09    0.13
   2 -10  -4    0.05    0.12
  -2  10   4    0.19    0.10
  -2  10   4    0.07    0.11
   1 -10  -4    0.27    0.14
   1 -10  -4    0.53    0.14
  -1  10   4    0.30    0.12
  -1  10   4    0.34    0.12
   0 -10  -4    0.00    0.11
   0 -10  -4    0.02    0.14
   0 -10  -4    0.18    0.12
   0  10   4    0.06    0.11
  -1 -10  -4   16.63    0.55
  -1 -10  -4   16.07    0.52
  -1 -10  -4   16.09    0.56
   1  10   4   17.07    0.56
  -2 -10  -4    9.10    0.39
  -2 -10  -4    8.52    0.37
  -2 -10  -4    8.38    0.37
   2  10   4    8.74    0.39
  -3 -10  -4    1.53    0.18
  -3 -10  -4    1.69    0.20
  -3 -10  -4    1.34    0.18
   3  10   4    1.51    0.19
  -4 -10  -4   12.95    0.48
  -4 -10  -4   12.93    0.48
  -4 -10  -4   12.75    0.48
   4  10   4   12.36    0.48
   4  10   4   12.35    0.48
  -5 -10  -4    6.75    0.37
  -5 -10  -4    7.11    0.35
  -5 -10  -4    8.29    0.37
   5  10   4    6.87    0.37
   5  10   4    7.15    0.36
  -6 -10  -4    2.88    0.26
  -6 -10  -4    3.14    0.27
   6  10   4    3.12    0.29
  -7 -10  -4    0.16    0.15
  -7 -10  -4    0.12    0.14
   7  10   4    0.22    0.16
   4 -11  -4    5.28    0.39
   3 -11  -4    5.60    0.37
   3 -11  -4    5.97    0.38
  -3  11   4    5.62    0.32
   2 -11  -4    0.16    0.14
   2 -11  -4    0.02    0.22
   2 -11  -4   -0.21    0.12
  -2  11   4   -0.05    0.12
  -2  11   4    0.02    0.11
   1 -11  -4    1.18    0.19
   1 -11  -4    1.47    0.21
  -1  11   4    1.61    0.21
  -1  11   4    1.52    0.19
   0 -11  -4    0.93    0.18
   0 -11  -4    0.97    0.18
   0  11   4    0.74    0.16
  -1 -11  -4    2.70    0.25
  -1 -11  -4    2.45    0.24
  -1 -11  -4    2.67    0.23
   1  11   4    2.55    0.24
  -2 -11  -4    0.13    0.12
  -2 -11  -4    0.33    0.15
  -2 -11  -4    0.35    0.14
   2  11   4    0.04    0.12
  -3 -11  -4   27.95    0.82
  -3 -11  -4   25.96    0.80
  -3 -11  -4   27.82    0.81
   3  11   4   27.29    0.82
  -4 -11  -4   18.77    0.63
  -4 -11  -4   17.73    0.62
  -4 -11  -4   18.10    0.63
   4  11   4   17.93    0.62
  -5 -11  -4    1.58    0.22
  -5 -11  -4    1.57    0.21
  -5 -11  -4    1.86    0.22
   5  11   4    1.73    0.22
  -6 -11  -4    3.34    0.29
  -6 -11  -4    3.24    0.29
   2 -12  -4    5.00    0.36
  -2  12   4    4.14    0.39
  -2  12   4    4.78    0.32
   1 -12  -4    0.49    0.19
   1 -12  -4    0.94    0.30
  -1  12   4    0.41    0.17
   0 -12  -4    0.87    0.20
   0 -12  -4    1.09    0.20
   0  12   4    0.91    0.19
  -1 -12  -4    0.46    0.17
  -1 -12  -4    0.47    0.17
   1  12   4    0.13    0.15
  -2 -12  -4    0.88    0.19
  -2 -12  -4    0.93    0.17
  -2 -12  -4    0.86    0.19
   2  12   4    0.98    0.20
  -3 -12  -4    0.24    0.14
  -3 -12  -4    0.28    0.17
  -3 -12  -4    0.20    0.16
   3  12   4    0.35    0.16
  -4 -12  -4    0.17    0.16
  -4 -12  -4    0.21    0.15
  -4 -12  -4    0.19    0.15
   4  12   4    0.12    0.14
  -5 -12  -4   14.70    0.58
  -5 -12  -4   14.20    0.60
  -5 -12  -4   14.15    0.57
   5  12   4   15.18    0.58
   2  12  -5    0.12    0.18
  -2 -12   5   -0.06    0.19
  -2 -12   5   -0.02    0.15
   1  12  -5    4.50    0.36
  -1 -12   5    4.68    0.44
  -1 -12   5    4.08    0.33
   0  12  -5    1.29    0.22
   0 -12   5    1.69    0.24
   0 -12   5    1.39    0.29
   1 -12   5    0.23    0.17
   1 -12   5    0.28    0.21
   4  11  -5    8.92    0.47
  -4 -11   5    9.59    0.45
   3  11  -5    2.40    0.26
  -3 -11   5    2.03    0.22
  -3 -11   5    2.03    0.23
   2  11  -5    4.79    0.35
  -2 -11   5    4.89    0.40
  -2 -11   5    4.87    0.32
   1  11  -5   13.43    0.52
  -1 -11   5   10.68    0.58
  -1 -11   5   11.86    0.49
   0  11  -5    1.64    0.22
   0  11  -5    1.24    0.19
   0 -11   5    1.63    0.22
   0 -11   5    1.67    0.28
  -1  11  -5    4.43    0.32
  -1  11  -5    4.09    0.29
  -1  11  -5    3.41    0.35
   1 -11   5    4.29    0.33
   1 -11   5    4.94    0.41
  -2  11  -5    2.79    0.33
  -2  11  -5    2.63    0.23
   2 -11   5    2.97    0.34
   2 -11   5    2.80    0.28
   2 -11   5    2.43    0.27
  -3  11  -5    0.28    0.13
   3 -11   5    0.17    0.18
   6  10  -5    3.40    0.30
  -6 -10   5    2.68    0.28
   5  10  -5    0.26    0.16
  -5 -10   5    0.32    0.15
   4  10  -5    0.13    0.15
  -4 -10   5    0.05    0.13
   3  10  -5    4.39    0.32
  -3 -10   5    3.68    0.26
  -3 -10   5    4.03    0.29
   2  10  -5   23.22    0.73
  -2 -10   5   22.47    0.69
  -2 -10   5   23.58    0.70
   1  10  -5    9.44    0.41
  -1 -10   5    8.43    0.49
  -1 -10   5    9.46    0.41
   0  10  -5    8.96    0.40
   0  10  -5    8.44    0.38
   0 -10   5    9.36    0.41
   0 -10   5    8.31    0.49
  -1  10  -5    3.45    0.33
  -1  10  -5    3.73    0.28
  -1  10  -5    3.64    0.26
   1 -10   5    3.49    0.28
   1 -10   5    3.83    0.36
  -2  10  -5   -0.04    0.16
  -2  10  -5    0.11    0.11
   2 -10   5    0.02    0.13
   2 -10   5    0.19    0.16
   2 -10   5    0.01    0.13
  -3  10  -5    1.93    0.29
  -3  10  -5    2.10    0.19
   3 -10   5    1.79    0.27
   3 -10   5    2.30    0.27
   3 -10   5    1.60    0.22
  -4  10  -5    0.25    0.11
  -4  10  -5    0.23    0.20
   4 -10   5    0.18    0.18
   4 -10   5    0.18    0.16
   7   9  -5   22.35    0.83
  -7  -9   5   21.86    0.78
  -7  -9   5   23.96    0.78
   6   9  -5    1.11    0.20
  -6  -9   5    1.28    0.20
  -6  -9   5    1.17    0.21
   5   9  -5   -0.05    0.12
  -5  -9   5    0.26    0.14
   4   9  -5    0.06    0.13
  -4  -9   5    0.15    0.12
   3   9  -5    3.53    0.27
  -3  -9   5    3.58    0.24
  -3  -9   5    3.28    0.26
   2   9  -5    7.23    0.36
  -2  -9   5    7.52    0.34
  -2  -9   5    7.64    0.33
   1   9  -5   17.93    0.58
  -1  -9   5   18.54    0.57
  -1  -9   5   17.73    0.67
  -1  -9   5   18.15    0.55
   0   9  -5   14.07    0.48
   0   9  -5   14.46    0.49
   0  -9   5   13.99    0.49
   0  -9   5   14.24    0.60
  -1   9  -5   10.49    0.39
  -1   9  -5   10.80    0.49
  -1   9  -5   10.57    0.40
   1  -9   5   10.53    0.43
   1  -9   5   10.41    0.51
  -2   9  -5    5.66    0.38
  -2   9  -5    5.82    0.29
   2  -9   5    6.27    0.41
   2  -9   5    6.07    0.33
   2  -9   5    6.22    0.35
  -3   9  -5    5.68    0.27
  -3   9  -5    5.68    0.41
   3  -9   5    5.15    0.35
   3  -9   5    4.87    0.38
   3  -9   5    5.95    0.34
  -4   9  -5    0.21    0.10
  -4   9  -5    0.34    0.19
   4  -9   5    0.24    0.14
   4  -9   5    0.57    0.18
   4  -9   5    0.15    0.16
  -5   9  -5    0.03    0.19
  -5   9  -5    0.15    0.09
   5  -9   5    0.10    0.16
   7   8  -5    4.51    0.36
  -7  -8   5    5.03    0.34
  -7  -8   5    4.16    0.34
   6   8  -5   -0.06    0.12
  -6  -8   5   -0.08    0.12
  -6  -8   5    0.04    0.12
   5   8  -5    8.77    0.40
  -5  -8   5    8.84    0.39
  -5  -8   5    8.08    0.39
   4   8  -5    4.87    0.30
  -4  -8   5    5.00    0.29
  -4  -8   5    4.97    0.29
   3   8  -5    1.57    0.19
  -3  -8   5    0.87    0.15
  -3  -8   5    1.42    0.15
   2   8  -5   -0.08    0.10
  -2  -8   5    0.02    0.09
  -2  -8   5    0.03    0.09
  -2  -8   5    0.09    0.09
   1   8  -5   20.85    0.60
   1   8  -5   19.87    0.60
  -1  -8   5   19.12    0.57
  -1  -8   5   20.20    0.59
  -1  -8   5   20.31    0.69
   0   8  -5   17.40    0.53
   0   8  -5   16.94    0.52
   0  -8   5   17.42    0.64
   0  -8   5   16.64    0.53
  -1   8  -5    3.09    0.21
  -1   8  -5    2.80    0.20
  -1   8  -5    2.68    0.26
   1  -8   5    2.15    0.25
   1  -8   5    3.06    0.22
   1  -8   5    2.57    0.23
  -2   8  -5   19.93    0.57
  -2   8  -5   19.43    0.69
  -2   8  -5   19.47    0.55
   2  -8   5   19.49    0.61
   2  -8   5   20.28    0.71
   2  -8   5   19.96    0.64
  -3   8  -5    1.76    0.24
  -3   8  -5    1.64    0.15
   3  -8   5    1.41    0.20
   3  -8   5    1.76    0.20
   3  -8   5    1.54    0.24
  -4   8  -5    1.89    0.15
  -4   8  -5    1.78    0.26
   4  -8   5    2.12    0.24
   4  -8   5    1.85    0.21
   4  -8   5    1.80    0.25
  -5   8  -5    0.27    0.09
  -5   8  -5    0.51    0.20
   5  -8   5    0.40    0.17
   5  -8   5    0.29    0.15
  -6   8  -5    6.84    0.48
  -6   8  -5    6.62    0.39
  -6   8  -5    6.49    0.24
   6  -8   5    6.18    0.39
   6  -8   5    6.05    0.43
   8   7  -5    4.20    0.35
  -8  -7   5    5.18    0.35
  -8  -7   5    3.95    0.35
   7   7  -5   -0.16    0.13
  -7  -7   5    0.06    0.12
  -7  -7   5   -0.05    0.14
   6   7  -5   11.76    0.46
  -6  -7   5   12.12    0.49
  -6  -7   5   12.08    0.47
   5   7  -5   15.76    0.54
  -5  -7   5   16.09    0.55
  -5  -7   5   16.57    0.54
   4   7  -5    6.02    0.31
  -4  -7   5    5.63    0.29
  -4  -7   5    6.11    0.31
   3   7  -5    7.13    0.32
   3   7  -5    6.92    0.33
  -3  -7   5    7.16    0.31
  -3  -7   5    6.54    0.30
  -3  -7   5    6.40    0.32
  -3  -7   5    6.97    0.27
   2   7  -5    2.32    0.19
   2   7  -5    1.90    0.18
  -2  -7   5    2.23    0.16
  -2  -7   5    2.03    0.19
  -2  -7   5    1.99    0.17
  -2  -7   5    1.94    0.18
   1   7  -5    0.30    0.10
   1   7  -5    0.44    0.09
   1   7  -5    0.38    0.10
  -1  -7   5    0.36    0.10
  -1  -7   5    0.44    0.10
  -1  -7   5    0.35    0.09
   0   7  -5    5.53    0.26
   0   7  -5    5.16    0.24
   0   7  -5    5.38    0.25
   0  -7   5    5.27    0.25
   0  -7   5    5.30    0.32
   0  -7   5    5.10    0.22
  -1   7  -5   39.63    0.98
  -1   7  -5   40.16    0.99
  -1   7  -5   39.16    1.08
  -1   7  -5   40.58    0.99
   1  -7   5   40.41    1.01
   1  -7   5   40.72    1.04
   1  -7   5   39.69    1.11
  -2   7  -5   19.34    0.52
  -2   7  -5   17.53    0.63
  -2   7  -5   18.68    0.52
   2  -7   5   18.22    0.65
   2  -7   5   18.05    0.56
   2  -7   5   18.77    0.59
  -3   7  -5    0.34    0.14
  -3   7  -5    0.21    0.08
   3  -7   5    0.24    0.14
   3  -7   5    0.45    0.12
   3  -7   5    0.45    0.13
  -4   7  -5   18.65    0.50
  -4   7  -5   18.76    0.69
   4  -7   5   18.86    0.63
   4  -7   5   18.07    0.67
  -5   7  -5    5.99    0.39
  -5   7  -5    6.07    0.23
   5  -7   5    6.17    0.36
   5  -7   5    5.46    0.33
   5  -7   5    5.74    0.37
  -6   7  -5    1.19    0.20
  -6   7  -5    1.41    0.25
  -6   7  -5    1.03    0.10
   6  -7   5    0.92    0.21
   6  -7   5    0.95    0.19
   6  -7   5    1.14    0.21
  -7   7  -5    0.36    0.20
  -7   7  -5    0.26    0.15
   7  -7   5   -0.04    0.15
   8   6  -5    0.26    0.16
  -8  -6   5   -0.01    0.13
  -8  -6   5    0.09    0.16
  -8  -6   5    0.04    0.13
  -8  -6   5   -0.14    0.12
   7   6  -5    4.84    0.35
  -7  -6   5    5.79    0.33
  -7  -6   5    5.33    0.35
   6   6  -5   13.56    0.50
   6   6  -5   13.16    0.53
  -6  -6   5   14.60    0.53
  -6  -6   5   13.98    0.49
   5   6  -5    0.24    0.13
   5   6  -5    0.09    0.10
  -5  -6   5    0.15    0.11
  -5  -6   5    0.08    0.10
   4   6  -5    9.81    0.39
   4   6  -5    9.59    0.37
  -4  -6   5    9.93    0.38
  -4  -6   5    9.18    0.39
  -4  -6   5    9.84    0.37
   3   6  -5   38.23    1.00
   3   6  -5   39.33    0.98
  -3  -6   5   38.08    0.97
  -3  -6   5   37.54    0.94
  -3  -6   5   37.49    1.00
  -3  -6   5   39.34    0.98
   2   6  -5    4.89    0.25
   2   6  -5    4.69    0.24
  -2  -6   5    4.92    0.24
  -2  -6   5    4.73    0.21
  -2  -6   5    4.62    0.24
  -2  -6   5    4.87    0.25
   1   6  -5    0.20    0.08
   1   6  -5    0.16    0.08
   1   6  -5    0.21    0.08
  -1  -6   5    0.31    0.08
  -1  -6   5    0.17    0.07
  -1  -6   5    0.31    0.09
  -1  -6   5    0.22    0.09
   0   6  -5   17.94    0.50
   0   6  -5   17.66    0.50
   0   6  -5   17.92    0.52
   0  -6   5   17.35    0.52
   0  -6   5   17.43    0.51
   0  -6   5   17.51    0.48
   0  -6   5   17.62    0.59
   0  -6   5   17.44    0.50
  -1   6  -5   13.26    0.40
  -1   6  -5   12.60    0.39
  -1   6  -5   13.05    0.48
  -1   6  -5   13.53    0.41
   1  -6   5   14.42    0.45
   1  -6   5   13.19    0.50
   1  -6   5   13.74    0.41
   1  -6   5   13.80    0.42
  -2   6  -5    1.96    0.15
  -2   6  -5    2.27    0.22
  -2   6  -5    2.17    0.14
  -2   6  -5    2.21    0.15
   2  -6   5    2.35    0.15
   2  -6   5    1.79    0.16
   2  -6   5    2.35    0.19
   2  -6   5    1.91    0.22
  -3   6  -5   46.85    1.22
  -3   6  -5   45.11    1.06
   3  -6   5   46.58    1.17
   3  -6   5   43.62    1.22
   3  -6   5   44.84    1.16
  -4   6  -5   10.29    0.46
  -4   6  -5   10.96    0.32
   4  -6   5   10.18    0.45
   4  -6   5   10.64    0.42
   4  -6   5   10.43    0.40
  -5   6  -5    1.23    0.10
  -5   6  -5    1.19    0.21
   5  -6   5    1.24    0.18
   5  -6   5    1.16    0.19
   5  -6   5    1.06    0.18
  -6   6  -5    7.64    0.38
  -6   6  -5    8.04    0.24
  -6   6  -5    7.88    0.44
   6  -6   5    8.17    0.42
   6  -6   5    8.42    0.43
   6  -6   5    8.22    0.38
  -7   6  -5    0.37    0.18
  -7   6  -5    0.17    0.13
   7  -6   5    0.52    0.16
   7  -6   5    0.33    0.17
   7  -6   5    0.13    0.14
  -8   6  -5    0.08    0.19
   8  -6   5    0.13    0.16
   8   5  -5    1.00    0.20
  -8  -5   5    0.98    0.17
  -8  -5   5    0.85    0.19
  -8  -5   5    0.57    0.18
  -8  -5   5    0.94    0.18
   7   5  -5    2.60    0.26
  -7  -5   5    2.64    0.23
  -7  -5   5    2.40    0.22
  -7  -5   5    3.01    0.26
  -7  -5   5    2.88    0.27
   6   5  -5    2.36    0.23
  -6  -5   5    2.55    0.22
  -6  -5   5    2.38    0.20
  -6  -5   5    2.46    0.21
  -6  -5   5    2.39    0.23
   5   5  -5   39.62    1.00
  -5  -5   5   39.74    1.04
  -5  -5   5   39.51    1.01
  -5  -5   5   39.48    1.01
  -5  -5   5   39.51    1.00
   4   5  -5   46.73    1.13
   4   5  -5   43.78    1.15
  -4  -5   5   45.99    1.14
  -4  -5   5   45.33    1.15
  -4  -5   5   45.47    1.12
   3   5  -5    0.00    0.07
   3   5  -5    0.14    0.08
  -3  -5   5   -0.01    0.07
  -3  -5   5    0.11    0.08
  -3  -5   5    0.00    0.07
   2   5  -5   16.79    0.50
   2   5  -5   16.40    0.48
   2   5  -5   17.01    0.49
  -2  -5   5   16.73    0.44
  -2  -5   5   16.18    0.50
  -2  -5   5   16.46    0.49
  -2  -5   5   16.28    0.48
   1   5  -5   33.43    0.84
   1   5  -5   33.36    0.86
   1   5  -5   33.39    0.83
  -1  -5   5   33.47    0.86
  -1  -5   5   34.47    0.82
  -1  -5   5   34.99    0.86
  -1  -5   5   33.53    0.83
   0   5  -5    1.42    0.12
   0   5  -5    1.55    0.13
   0   5  -5    1.51    0.13
   0  -5   5    1.38    0.12
   0  -5   5    1.32    0.11
   0  -5   5    1.11    0.12
   0  -5   5    1.18    0.15
   0  -5   5    1.53    0.14
  -1   5  -5    1.30    0.16
  -1   5  -5    1.14    0.10
  -1   5  -5    1.11    0.11
  -1   5  -5    1.01    0.11
   1  -5   5    1.15    0.10
   1  -5   5    1.10    0.11
   1  -5   5    1.12    0.16
   1  -5   5    1.20    0.12
   1  -5   5    1.12    0.12
  -2   5  -5   26.48    0.67
  -2   5  -5   27.42    0.67
  -2   5  -5   27.24    0.78
  -2   5  -5   27.49    0.67
   2  -5   5   26.82    0.71
   2  -5   5   26.85    0.79
   2  -5   5   27.62    0.74
   2  -5   5   27.83    0.69
   2  -5   5   26.07    0.68
  -3   5  -5   25.90    0.77
  -3   5  -5   25.28    0.62
   3  -5   5   25.34    0.77
   3  -5   5   25.48    0.66
   3  -5   5   25.88    0.72
  -4   5  -5    0.41    0.13
  -4   5  -5    0.33    0.06
   4  -5   5    0.18    0.10
   4  -5   5    0.41    0.09
   4  -5   5    0.12    0.11
   4  -5   5    0.29    0.11
  -5   5  -5   31.79    0.94
  -5   5  -5   32.30    0.88
  -5   5  -5   32.12    0.74
   5  -5   5   30.85    0.93
   5  -5   5   32.04    0.87
   5  -5   5   32.66    0.83
   5  -5   5   31.95    0.90
  -6   5  -5    0.61    0.14
  -6   5  -5    0.50    0.16
   6  -5   5    0.48    0.14
   6  -5   5    0.52    0.12
   6  -5   5    0.56    0.15
   6  -5   5    0.76    0.17
  -7   5  -5    0.55    0.18
  -7   5  -5    0.83    0.17
   7  -5   5    0.86    0.16
   7  -5   5    0.66    0.17
   7  -5   5    0.54    0.17
   8  -5   5    1.46    0.21
   8  -5   5    1.15    0.21
   8  -5   5    1.27    0.22
   9   4  -5    1.41    0.24
  -9  -4   5    1.35    0.24
  -9  -4   5    1.80    0.21
  -9  -4   5    1.64    0.25
   8   4  -5    0.50    0.17
  -8  -4   5    0.85    0.18
  -8  -4   5    0.81    0.19
  -8  -4   5    0.74    0.16
   7   4  -5    0.64    0.16
  -7  -4   5    0.69    0.16
  -7  -4   5    0.56    0.15
  -7  -4   5    0.75    0.14
  -7  -4   5    0.58    0.14
   6   4  -5    5.64    0.32
  -6  -4   5    5.58    0.28
  -6  -4   5    7.03    0.32
  -6  -4   5    6.76    0.30
  -6  -4   5    5.66    0.31
   5   4  -5   27.97    0.75
   5   4  -5   27.08    0.80
  -5  -4   5   29.53    0.80
  -5  -4   5   28.52    0.79
  -5  -4   5   28.25    0.76
  -5  -4   5   28.24    0.77
  -5  -4   5   29.27    0.76
   4   4  -5    0.38    0.09
   4   4  -5    0.38    0.10
  -4  -4   5    0.59    0.10
  -4  -4   5    0.58    0.11
  -4  -4   5    0.65    0.10
  -4  -4   5    0.65    0.11
  -4  -4   5    0.34    0.09
   3   4  -5   31.27    0.80
   3   4  -5   30.55    0.82
  -3  -4   5   31.83    0.79
  -3  -4   5   31.33    0.82
  -3  -4   5   31.12    0.80
  -3  -4   5   32.12    0.81
   2   4  -5   41.68    0.99
   2   4  -5   40.36    1.01
   2   4  -5   41.23    0.98
  -2  -4   5   41.39    0.98
  -2  -4   5   40.80    0.98
  -2  -4   5   40.32    0.99
  -2  -4   5   40.66    1.01
   1   4  -5   11.59    0.37
   1   4  -5   12.10    0.35
   1   4  -5   11.54    0.35
  -1  -4   5   11.96    0.38
  -1  -4   5   11.29    0.37
  -1  -4   5   11.39    0.35
   0   4  -5    3.96    0.18
   0   4  -5    4.51    0.18
   0   4  -5    4.39    0.19
   0  -4   5    4.37    0.23
   0  -4   5    4.32    0.19
   0  -4   5    4.52    0.18
   0  -4   5    4.43    0.18
   0  -4   5    4.63    0.22
  -1   4  -5    1.30    0.10
  -1   4  -5    1.56    0.12
  -1   4  -5    1.55    0.16
  -1   4  -5    1.59    0.11
   1  -4   5    1.30    0.15
   1  -4   5    1.80    0.13
   1  -4   5    1.71    0.13
   1  -4   5    1.43    0.10
   1  -4   5    1.52    0.12
   1  -4   5    1.60    0.13
  -2   4  -5   24.54    0.60
  -2   4  -5   25.35    0.60
  -2   4  -5   24.15    0.69
  -2   4  -5   25.33    0.61
   2  -4   5   24.83    0.67
   2  -4   5   24.82    0.64
   2  -4   5   23.91    0.71
   2  -4   5   25.27    0.63
  -3   4  -5    0.39    0.06
  -3   4  -5    0.53    0.12
   3  -4   5    0.44    0.11
   3  -4   5    0.37    0.10
   3  -4   5    0.47    0.08
   3  -4   5    0.46    0.09
   3  -4   5    0.56    0.09
  -4   4  -5   35.07    0.89
  -4   4  -5   33.56    0.78
  -4   4  -5   33.54    0.94
   4  -4   5   34.59    0.87
   4  -4   5   33.32    0.89
   4  -4   5   33.02    0.93
   4  -4   5   34.09    0.84
  -5   4  -5   32.99    0.89
  -5   4  -5   33.58    0.76
  -5   4  -5   33.93    0.95
   5  -4   5   32.90    0.85
   5  -4   5   32.94    0.90
   5  -4   5   33.75    0.87
   5  -4   5   33.74    0.95
  -6   4  -5    0.94    0.18
  -6   4  -5    0.71    0.14
   6  -4   5    0.86    0.13
   6  -4   5    0.66    0.14
   6  -4   5    1.01    0.18
   6  -4   5    0.79    0.14
  -7   4  -5    7.52    0.36
  -7   4  -5    7.86    0.41
   7  -4   5    7.46    0.38
   7  -4   5    7.73    0.34
   7  -4   5    6.91    0.34
   7  -4   5    6.95    0.40
   8  -4   5    0.39    0.15
   8  -4   5    0.27    0.13
   8  -4   5    0.64    0.18
   9   3  -5    0.52    0.19
  -9  -3   5    0.30    0.14
  -9  -3   5    0.39    0.18
  -9  -3   5    0.36    0.19
   8   3  -5    0.12    0.15
  -8  -3   5    0.25    0.12
  -8  -3   5    0.08    0.14
  -8  -3   5    0.19    0.15
   7   3  -5    2.88    0.26
  -7  -3   5    3.34    0.26
  -7  -3   5    3.63    0.24
  -7  -3   5    4.15    0.25
  -7  -3   5    3.65    0.28
   6   3  -5    4.43    0.28
  -6  -3   5    4.72    0.27
  -6  -3   5    4.80    0.25
  -6  -3   5    4.62    0.25
  -6  -3   5    4.19    0.26
   5   3  -5    1.19    0.16
   5   3  -5    1.26    0.13
  -5  -3   5    1.42    0.16
  -5  -3   5    1.65    0.15
  -5  -3   5    1.29    0.14
  -5  -3   5    1.29    0.15
  -5  -3   5    1.47    0.16
   4   3  -5   13.52    0.44
   4   3  -5   13.42    0.42
  -4  -3   5   13.50    0.41
  -4  -3   5   13.41    0.42
  -4  -3   5   13.85    0.44
  -4  -3   5   13.34    0.44
  -4  -3   5   13.42    0.42
   3   3  -5  110.17    2.52
   3   3  -5  113.68    2.50
  -3  -3   5  111.48    2.51
  -3  -3   5  111.57    2.52
  -3  -3   5  115.58    2.49
  -3  -3   5  114.53    2.50
   2   3  -5   27.37    0.67
   2   3  -5   25.48    0.69
   2   3  -5   26.50    0.67
  -2  -3   5   26.99    0.67
  -2  -3   5   26.14    0.68
  -2  -3   5   26.53    0.69
  -2  -3   5   26.42    0.67
   1   3  -5   18.84    0.52
   1   3  -5   20.61    0.51
   1   3  -5   19.16    0.51
  -1  -3   5   19.16    0.51
  -1  -3   5   19.56    0.51
  -1  -3   5   19.52    0.53
  -1  -3   5   19.50    0.53
   0   3  -5   15.34    0.42
   0   3  -5   14.68    0.40
   0   3  -5   14.57    0.40
   0  -3   5   14.69    0.42
   0  -3   5   14.60    0.45
   0  -3   5   14.46    0.40
   0  -3   5   15.07    0.44
  -1   3  -5    9.65    0.29
  -1   3  -5    9.63    0.30
  -1   3  -5    9.72    0.28
  -1   3  -5    9.37    0.28
   1  -3   5    9.93    0.28
   1  -3   5    9.76    0.32
   1  -3   5    9.72    0.31
   1  -3   5    9.55    0.30
   1  -3   5   10.87    0.41
  -2   3  -5   24.59    0.60
  -2   3  -5   23.02    0.56
  -2   3  -5   22.63    0.55
  -2   3  -5   22.14    0.63
  -2   3  -5   22.62    0.55
   2  -3   5   22.88    0.59
   2  -3   5   23.34    0.57
   2  -3   5   21.34    0.64
   2  -3   5   22.38    0.60
   2  -3   5   22.32    0.58
  -3   3  -5    4.79    0.22
  -3   3  -5    4.90    0.17
  -3   3  -5    5.08    0.25
   3  -3   5    5.24    0.21
   3  -3   5    5.08    0.21
   3  -3   5    4.97    0.21
   3  -3   5    5.17    0.24
  -4   3  -5   24.20    0.67
  -4   3  -5   24.57    0.71
  -4   3  -5   24.22    0.57
   4  -3   5   24.32    0.64
   4  -3   5   23.42    0.67
   4  -3   5   24.76    0.71
   4  -3   5   25.05    0.64
   4  -3   5   24.36    0.64
  -5   3  -5    0.18    0.05
  -5   3  -5    0.07    0.10
  -5   3  -5    0.10    0.09
   5  -3   5    0.13    0.10
   5  -3   5    0.08    0.08
   5  -3   5    0.12    0.08
   5  -3   5    0.15    0.09
  -6   3  -5   28.75    0.83
  -6   3  -5   28.15    0.79
   6  -3   5   26.87    0.82
   6  -3   5   27.41    0.78
   6  -3   5   27.07    0.75
   6  -3   5   27.63    0.75
  -7   3  -5    8.95    0.41
  -7   3  -5    7.79    0.37
   7  -3   5    8.09    0.37
   7  -3   5    7.80    0.34
   7  -3   5    7.74    0.40
   7  -3   5    7.84    0.34
   8  -3   5    0.04    0.15
   8  -3   5    0.37    0.16
   8  -3   5    0.37    0.13
   9  -3   5    1.19    0.20
   9  -3   5    1.25    0.24
   9   2  -5    0.20    0.17
  -9  -2   5    0.18    0.16
  -9  -2   5    0.39    0.15
  -9  -2   5    0.34    0.19
   8   2  -5   10.10    0.47
  -8  -2   5   10.92    0.42
  -8  -2   5   10.65    0.49
  -8  -2   5   10.92    0.47
   7   2  -5    0.06    0.12
  -7  -2   5    0.27    0.13
  -7  -2   5    0.29    0.10
  -7  -2   5    0.21    0.12
   6   2  -5    1.35    0.17
  -6  -2   5    1.29    0.15
  -6  -2   5    1.44    0.15
  -6  -2   5    1.22    0.17
  -6  -2   5    1.40    0.15
  -6  -2   5    1.16    0.16
   5   2  -5    1.10    0.15
   5   2  -5    1.26    0.12
   5   2  -5    1.26    0.14
  -5  -2   5    1.17    0.13
  -5  -2   5    0.98    0.14
  -5  -2   5    0.85    0.12
  -5  -2   5    0.96    0.13
  -5  -2   5    1.07    0.12
   4   2  -5   29.11    0.77
   4   2  -5   28.92    0.77
   4   2  -5   29.81    0.74
  -4  -2   5   29.58    0.77
  -4  -2   5   29.10    0.74
  -4  -2   5   29.16    0.76
  -4  -2   5   29.07    0.77
  -4  -2   5   29.31    0.74
   3   2  -5    5.27    0.23
   3   2  -5    5.13    0.21
  -3  -2   5    5.12    0.21
  -3  -2   5    5.22    0.23
  -3  -2   5    5.03    0.23
  -3  -2   5    5.15    0.21
  -3  -2   5    5.17    0.21
   2   2  -5   30.35    0.76
   2   2  -5   30.56    0.69
   2   2  -5   30.51    0.75
   2   2  -5   31.27    0.74
  -2  -2   5   30.14    0.74
  -2  -2   5   29.23    0.74
  -2  -2   5   30.45    0.76
  -2  -2   5   30.24    0.77
   1   2  -5   69.94    1.60
   1   2  -5   69.58    1.62
   1   2  -5   74.14    1.57
   1   2  -5   74.13    1.60
  -1  -2   5   71.29    1.60
  -1  -2   5   72.22    1.59
  -1  -2   5   69.25    1.62
  -1  -2   5   72.14    1.62
   0   2  -5   29.54    0.71
   0   2  -5   28.98    0.73
   0   2  -5   29.70    0.71
   0   2  -5   29.17    0.70
   0  -2   5   29.48    0.75
   0  -2   5   30.31    0.71
   0  -2   5   31.36    0.76
   0  -2   5   29.59    0.73
  -1   2  -5   30.05    0.70
  -1   2  -5   29.72    0.71
  -1   2  -5   28.84    0.69
  -1   2  -5   29.05    0.69
  -1   2  -5   29.66    0.71
   1  -2   5   28.72    0.71
   1  -2   5   28.85    0.72
   1  -2   5   29.03    0.69
   1  -2   5   29.99    0.73
   1  -2   5   28.41    0.75
  -2   2  -5    3.97    0.15
  -2   2  -5    4.05    0.15
  -2   2  -5    3.97    0.15
  -2   2  -5    3.97    0.18
  -2   2  -5    4.47    0.16
   2  -2   5    4.19    0.18
   2  -2   5    4.17    0.16
   2  -2   5    4.05    0.18
   2  -2   5    3.87    0.21
  -3   2  -5   12.20    0.37
  -3   2  -5   11.73    0.39
  -3   2  -5   11.61    0.31
  -3   2  -5   12.22    0.31
  -3   2  -5   11.92    0.31
   3  -2   5   11.72    0.34
   3  -2   5   11.53    0.40
   3  -2   5   11.66    0.36
   3  -2   5   11.69    0.35
   3  -2   5   12.21    0.38
  -4   2  -5    0.31    0.09
  -4   2  -5    0.32    0.05
  -4   2  -5    0.31    0.05
  -4   2  -5    0.34    0.08
   4  -2   5    0.35    0.10
   4  -2   5    0.33    0.07
   4  -2   5    0.20    0.08
   4  -2   5    0.22    0.07
   4  -2   5    0.32    0.08
  -5   2  -5   16.61    0.39
  -5   2  -5   16.80    0.53
  -5   2  -5   16.46    0.51
   5  -2   5   16.07    0.46
   5  -2   5   15.76    0.49
   5  -2   5   15.86    0.48
   5  -2   5   15.96    0.54
  -6   2  -5   36.15    0.96
  -6   2  -5   37.78    0.99
   6  -2   5   37.39    1.01
   6  -2   5   37.71    0.92
   6  -2   5   35.50    0.95
   6  -2   5   35.27    0.93
  -7   2  -5    0.50    0.13
  -7   2  -5    0.46    0.13
   7  -2   5    0.64    0.13
   7  -2   5    0.81    0.14
   7  -2   5    0.36    0.14
  -8   2  -5    3.89    0.28
   8  -2   5    3.58    0.27
   8  -2   5    3.86    0.31
  -9   2  -5   14.74    0.56
   9  -2   5   13.78    0.54
   9  -2   5   13.56    0.59
   9   1  -5    5.80    0.39
  -9  -1   5    5.47    0.37
  -9  -1   5    6.22    0.42
   8   1  -5    2.61    0.26
  -8  -1   5    3.41    0.28
  -8  -1   5    3.13    0.29
  -8  -1   5    3.39    0.25
   7   1  -5    0.21    0.13
  -7  -1   5    0.15    0.10
  -7  -1   5    0.08    0.12
  -7  -1   5    0.13    0.11
   6   1  -5   13.60    0.46
   6   1  -5   13.66    0.49
  -6  -1   5   13.93    0.44
  -6  -1   5   14.32    0.44
  -6  -1   5   13.45    0.47
  -6  -1   5   13.35    0.44
  -6  -1   5   14.37    0.50
   5   1  -5    1.32    0.15
   5   1  -5    1.27    0.15
  -5  -1   5    1.14    0.14
  -5  -1   5    1.52    0.14
  -5  -1   5    1.51    0.14
  -5  -1   5    1.27    0.13
  -5  -1   5    1.55    0.16
   4   1  -5    3.63    0.21
   4   1  -5    3.68    0.20
   4   1  -5    3.62    0.17
   4   1  -5    3.94    0.20
  -4  -1   5    4.13    0.21
  -4  -1   5    3.97    0.19
  -4  -1   5    4.10    0.21
  -4  -1   5    3.73    0.18
  -4  -1   5    4.01    0.20
   3   1  -5   12.00    0.35
   3   1  -5   11.76    0.37
   3   1  -5   12.69    0.39
  -3  -1   5   11.74    0.37
  -3  -1   5   12.29    0.36
  -3  -1   5   12.56    0.37
  -3  -1   5   11.66    0.38
  -3  -1   5   12.34    0.36
   2   1  -5  102.89    2.31
   2   1  -5  105.30    2.34
   2   1  -5  108.92    2.25
  -2  -1   5  107.38    2.31
  -2  -1   5  104.05    2.31
  -2  -1   5  106.05    2.33
  -2  -1   5  104.22    2.34
   1   1  -5   18.61    0.47
   1   1  -5   17.27    0.48
   1   1  -5   17.94    0.44
   1   1  -5   17.20    0.47
  -1  -1   5   17.54    0.48
  -1  -1   5   18.07    0.49
  -1  -1   5   18.53    0.47
  -1  -1   5   17.54    0.47
   0   1  -5   17.59    0.45
   0   1  -5   16.46    0.46
   0   1  -5   17.16    0.44
   0   1  -5   17.17    0.44
   0  -1   5   16.88    0.48
   0  -1   5   17.23    0.46
   0  -1   5   17.45    0.47
   0  -1   5   17.78    0.45
  -1   1  -5  236.34    5.00
  -1   1  -5  233.47    5.00
  -1   1  -5  236.05    4.98
  -1   1  -5  232.21    5.00
  -1   1  -5  240.93    4.99
   1  -1   5  233.16    5.03
   1  -1   5  236.47    5.02
   1  -1   5  229.64    4.98
   1  -1   5  234.49    5.00
   1  -1   5  231.94    5.01
  -2   1  -5   69.17    1.52
  -2   1  -5   68.08    1.51
  -2   1  -5   67.38    1.56
  -2   1  -5   70.03    1.52
  -2   1  -5   68.49    1.52
   2  -1   5   71.81    1.55
   2  -1   5   71.06    1.54
   2  -1   5   69.79    1.56
   2  -1   5   65.81    1.58
   2  -1   5   69.67    1.49
  -3   1  -5   12.19    0.31
  -3   1  -5   11.99    0.32
  -3   1  -5   12.04    0.30
  -3   1  -5   12.78    0.32
  -3   1  -5   12.69    0.30
  -3   1  -5   11.82    0.37
   3  -1   5   12.04    0.33
   3  -1   5   11.66    0.36
   3  -1   5   12.13    0.37
   3  -1   5   12.28    0.40
   3  -1   5   11.70    0.36
   3  -1   5   12.66    0.33
  -4   1  -5    1.95    0.15
  -4   1  -5    1.90    0.10
  -4   1  -5    2.15    0.10
  -4   1  -5    2.00    0.15
   4  -1   5    1.92    0.15
   4  -1   5    2.08    0.12
   4  -1   5    1.99    0.16
  -5   1  -5   13.49    0.44
  -5   1  -5   12.64    0.43
  -5   1  -5   12.70    0.42
  -5   1  -5   13.47    0.33
   5  -1   5   13.77    0.42
   5  -1   5   13.46    0.39
   5  -1   5   13.28    0.42
   5  -1   5   14.20    0.47
   5  -1   5   13.12    0.41
  -6   1  -5    0.10    0.09
  -6   1  -5    0.18    0.04
  -6   1  -5    0.25    0.09
  -6   1  -5    0.20    0.10
   6  -1   5    0.08    0.08
   6  -1   5    0.18    0.12
   6  -1   5    0.23    0.09
   6  -1   5    0.08    0.10
  -7   1  -5   15.66    0.52
  -7   1  -5   14.94    0.52
   7  -1   5   15.89    0.57
   7  -1   5   15.99    0.52
   8  -1   5    3.81    0.30
   8  -1   5    3.29    0.25
  -9   1  -5    0.75    0.18
   9  -1   5    0.73    0.17
   9  -1   5    0.96    0.21
   9   0  -5   10.32    0.50
  -9   0   5   10.82    0.49
  -9   0   5    9.95    0.42
  -9   0   5   10.40    0.53
   8   0  -5    0.24    0.15
  -8   0   5    0.24    0.13
  -8   0   5    0.40    0.12
  -8   0   5    0.22    0.15
   7   0  -5   14.43    0.53
   7   0  -5   13.90    0.63
  -7   0   5   14.70    0.55
  -7   0   5   14.53    0.47
  -7   0   5   15.04    0.52
   6   0  -5   10.47    0.40
   6   0  -5   10.84    0.42
  -6   0   5   10.72    0.40
  -6   0   5   10.65    0.35
  -6   0   5   10.25    0.42
  -6   0   5   10.85    0.37
   5   0  -5    5.70    0.27
   5   0  -5    5.57    0.27
  -5   0   5    6.05    0.28
  -5   0   5    5.53    0.24
  -5   0   5    5.71    0.26
  -5   0   5    5.71    0.25
  -5   0   5    5.84    0.24
   4   0  -5    2.58    0.18
   4   0  -5    2.78    0.13
   4   0  -5    2.66    0.17
   4   0  -5    2.54    0.17
  -4   0   5    2.96    0.17
  -4   0   5    2.57    0.17
  -4   0   5    2.58    0.18
  -4   0   5    2.66    0.16
  -4   0   5    2.62    0.15
   3   0  -5    0.02    0.06
   3   0  -5    0.17    0.05
   3   0  -5    0.16    0.07
  -3   0   5    0.13    0.07
  -3   0   5    0.12    0.06
  -3   0   5    0.14    0.06
  -3   0   5    0.15    0.06
  -3   0   5    0.21    0.06
   2   0  -5    3.47    0.16
   2   0  -5    3.53    0.12
   2   0  -5    3.45    0.18
   2   0  -5    3.45    0.16
  -2   0   5    3.36    0.17
  -2   0   5    3.63    0.17
  -2   0   5    3.85    0.17
  -2   0   5    3.97    0.16
   1   0  -5   61.93    1.40
   1   0  -5   60.00    1.33
   1   0  -5   59.77    1.37
  -1   0   5   59.30    1.38
  -1   0   5   61.44    1.37
  -1   0   5   61.70    1.37
  -1   0   5   60.59    1.39
  -1   0   5   62.41    1.35
   0   0  -5  136.55    3.00
   0   0  -5  138.50    3.04
   0   0  -5  140.35    3.02
   0   0  -5  142.64    3.01
   0   0   5  139.89    3.04
   0   0   5  141.18    3.02
   0   0   5  140.10    3.02
  -1   0  -5   19.74    0.50
  -1   0  -5   19.08    0.48
  -1   0  -5   19.60    0.50
  -1   0  -5   20.32    0.50
  -1   0  -5   19.84    0.49
   1   0   5   19.15    0.51
   1   0   5   19.54    0.48
   1   0   5   20.30    0.51
   1   0   5   19.38    0.51
   1   0   5   18.92    0.50
  -2   0  -5   29.50    0.70
  -2   0  -5   30.10    0.71
  -2   0  -5   29.92    0.71
  -2   0  -5   30.89    0.72
  -2   0  -5   30.80    0.74
   2   0   5   30.28    0.73
   2   0   5   29.41    0.74
   2   0   5   30.94    0.68
   2   0   5   30.69    0.73
   2   0   5   30.64    0.75
  -3   0  -5   22.27    0.55
  -3   0  -5   23.79    0.54
  -3   0  -5   22.89    0.59
  -3   0  -5   22.97    0.55
  -3   0  -5   21.75    0.60
  -3   0  -5   22.70    0.54
   3   0   5   23.52    0.54
   3   0   5   22.43    0.61
   3   0   5   23.57    0.56
   3   0   5   22.99    0.59
  -4   0  -5    0.13    0.04
  -4   0  -5    0.13    0.05
  -4   0  -5    0.09    0.06
  -4   0  -5    0.09    0.06
   4   0   5    0.11    0.05
   4   0   5    0.16    0.07
   4   0   5    0.21    0.06
   4   0   5    0.11    0.06
   4   0   5    0.14    0.06
  -5   0  -5    0.19    0.08
  -5   0  -5    0.28    0.08
  -5   0  -5    0.36    0.05
  -5   0  -5    0.35    0.09
   5   0   5    0.35    0.08
   5   0   5    0.28    0.08
   5   0   5    0.28    0.08
   5   0   5    0.40    0.09
   5   0   5    0.19    0.09
  -6   0  -5   10.59    0.38
  -6   0  -5   11.08    0.28
  -6   0  -5   10.04    0.37
   6   0   5   10.22    0.37
   6   0   5   10.08    0.37
   6   0   5   10.16    0.41
   6   0   5   10.12    0.36
  -7   0  -5   16.63    0.54
  -7   0  -5   17.68    0.42
  -7   0  -5   17.06    0.54
   7   0   5   15.60    0.53
   7   0   5   17.07    0.59
  -8   0  -5   13.71    0.57
  -8   0  -5   14.17    0.52
  -8   0  -5   14.45    0.36
   8   0   5   13.40    0.50
   8   0   5   14.29    0.56
  -9   0  -5    2.49    0.26
   9   0   5    2.62    0.25
   9   0   5    2.71    0.29
   9  -1  -5    1.45    0.24
  -9   1   5    1.08    0.24
  -9   1   5    1.07    0.20
  -9   1   5    1.34    0.18
   8  -1  -5    9.07    0.44
  -8   1   5    9.03    0.41
  -8   1   5   10.03    0.48
  -8   1   5    8.89    0.37
   7  -1  -5   13.84    0.51
   7  -1  -5   14.17    0.53
  -7   1   5   13.79    0.54
  -7   1   5   13.84    0.46
  -7   1   5   14.82    0.50
   6  -1  -5    0.27    0.11
   6  -1  -5    0.08    0.10
  -6   1   5    0.41    0.13
  -6   1   5    0.25    0.07
  -6   1   5    0.26    0.10
  -6   1   5    0.18    0.08
   5  -1  -5   23.85    0.67
   5  -1  -5   24.69    0.68
  -5   1   5   22.78    0.63
  -5   1   5   23.02    0.62
  -5   1   5   23.85    0.62
  -5   1   5   22.73    0.68
  -5   1   5   23.88    0.65
   4  -1  -5    5.11    0.24
   4  -1  -5    4.99    0.24
  -4   1   5    4.75    0.22
  -4   1   5    5.03    0.24
  -4   1   5    5.44    0.22
  -4   1   5    4.92    0.21
  -4   1   5    5.41    0.22
   3  -1  -5    1.89    0.11
   3  -1  -5    1.97    0.15
   3  -1  -5    2.16    0.15
   3  -1  -5    2.05    0.14
  -3   1   5    1.94    0.13
  -3   1   5    1.96    0.14
  -3   1   5    2.11    0.14
  -3   1   5    1.69    0.14
  -3   1   5    1.88    0.13
   2  -1  -5    8.15    0.22
   2  -1  -5    7.75    0.25
   2  -1  -5    7.37    0.28
   2  -1  -5    7.56    0.26
  -2   1   5    8.20    0.27
  -2   1   5    8.04    0.26
  -2   1   5    8.54    0.28
  -2   1   5    8.39    0.27
   1  -1  -5   55.31    1.30
   1  -1  -5   57.27    1.27
   1  -1  -5   57.52    1.25
   1  -1  -5   57.26    1.28
  -1   1   5   57.05    1.30
  -1   1   5   57.32    1.28
  -1   1   5   55.51    1.29
   0  -1  -5   20.32    0.48
   0  -1  -5   19.26    0.52
   0  -1  -5   20.56    0.50
   0  -1  -5   20.30    0.50
   0  -1  -5   20.11    0.49
   0   1   5   19.73    0.52
   0   1   5   19.49    0.51
   0   1   5   19.80    0.48
  -1  -1  -5    5.66    0.21
  -1  -1  -5    5.81    0.19
  -1  -1  -5    6.15    0.21
  -1  -1  -5    5.88    0.20
  -1  -1  -5    5.83    0.21
   1   1   5    6.23    0.21
   1   1   5    5.74    0.20
   1   1   5    5.49    0.19
   1   1   5    5.79    0.20
  -2  -1  -5  176.97    3.80
  -2  -1  -5  174.01    3.82
  -2  -1  -5  179.35    3.79
  -2  -1  -5  175.79    3.79
  -2  -1  -5  183.50    3.81
   2   1   5  177.82    3.77
   2   1   5  174.68    3.81
   2   1   5  173.47    3.81
   2   1   5  177.91    3.80
   2   1   5  179.46    3.81
  -3  -1  -5   21.18    0.57
  -3  -1  -5   21.82    0.58
  -3  -1  -5   22.06    0.54
  -3  -1  -5   22.09    0.53
  -3  -1  -5   21.84    0.53
  -3  -1  -5   21.91    0.54
   3   1   5   22.18    0.55
   3   1   5   21.54    0.57
   3   1   5   23.01    0.50
   3   1   5   22.14    0.56
   3   1   5   22.45    0.59
  -4  -1  -5    7.85    0.28
  -4  -1  -5    8.15    0.24
  -4  -1  -5    8.29    0.30
  -4  -1  -5    8.28    0.23
  -4  -1  -5    7.85    0.24
   4   1   5    8.15    0.28
   4   1   5    7.52    0.30
   4   1   5    8.31    0.29
  -5  -1  -5   13.47    0.43
  -5  -1  -5   13.11    0.35
  -5  -1  -5   12.90    0.41
   5   1   5   13.42    0.42
   5   1   5   12.87    0.44
   5   1   5   13.33    0.41
  -6  -1  -5    0.18    0.09
  -6  -1  -5    0.16    0.09
  -6  -1  -5    0.15    0.06
   6   1   5    0.04    0.10
   6   1   5    0.07    0.08
   6   1   5    0.24    0.10
  -7  -1  -5    0.55    0.08
  -7  -1  -5    0.31    0.11
  -7  -1  -5    0.74    0.12
   7   1   5    0.56    0.14
   7   1   5    0.52    0.12
  -8  -1  -5    9.96    0.41
  -8  -1  -5   10.06    0.31
  -8  -1  -5   11.03    0.45
   8   1   5   10.87    0.48
   8   1   5   11.00    0.44
  -9  -1  -5   11.43    0.50
  -9  -1  -5   11.32    0.33
   9   1   5   11.88    0.55
   9   1   5   12.19    0.50
 -10  -1  -5    1.81    0.25
  10   1   5    2.03    0.29
  10   1   5    1.85    0.25
   9  -2  -5    0.68    0.20
  -9   2   5    0.92    0.23
  -9   2   5    0.40    0.13
   8  -2  -5    6.19    0.37
   8  -2  -5    6.28    0.38
  -8   2   5    7.24    0.43
   7  -2  -5    0.14    0.12
   7  -2  -5    0.20    0.14
  -7   2   5    0.07    0.11
  -7   2   5    0.18    0.10
  -7   2   5    0.13    0.14
   6  -2  -5   29.16    0.82
   6  -2  -5   28.50    0.82
  -6   2   5   29.77    0.85
  -6   2   5   27.96    0.78
  -6   2   5   28.87    0.76
   5  -2  -5   12.30    0.43
   5  -2  -5   12.59    0.44
  -5   2   5   12.79    0.40
  -5   2   5   12.48    0.37
  -5   2   5   11.83    0.40
  -5   2   5   12.59    0.45
   4  -2  -5    0.01    0.07
   4  -2  -5    0.00    0.07
  -4   2   5    0.05    0.05
  -4   2   5   -0.02    0.06
  -4   2   5    0.49    0.09
  -4   2   5    0.01    0.07
  -4   2   5    0.12    0.07
   3  -2  -5    2.37    0.17
   3  -2  -5    2.33    0.16
   3  -2  -5    2.48    0.12
   3  -2  -5    2.53    0.11
   3  -2  -5    2.52    0.16
  -3   2   5    2.43    0.14
  -3   2   5    2.66    0.17
  -3   2   5    2.71    0.15
  -3   2   5    2.58    0.15
  -3   2   5    2.43    0.14
   2  -2  -5    0.22    0.06
   2  -2  -5    0.20    0.07
   2  -2  -5    0.20    0.05
   2  -2  -5    0.12    0.06
   2  -2  -5    0.15    0.05
  -2   2   5    0.10    0.07
  -2   2   5    0.24    0.06
  -2   2   5    0.22    0.07
  -2   2   5    0.11    0.06
  -2   2   5    0.30    0.07
   1  -2  -5    7.32    0.22
   1  -2  -5    7.06    0.23
   1  -2  -5    7.33    0.23
   1  -2  -5    7.37    0.26
  -1   2   5    7.27    0.25
  -1   2   5    7.20    0.24
  -1   2   5    7.28    0.25
   0  -2  -5    0.28    0.06
   0  -2  -5    0.11    0.05
   0  -2  -5    0.33    0.05
   0  -2  -5    0.05    0.04
   0  -2  -5    0.20    0.05
   0   2   5    0.26    0.06
   0   2   5    0.18    0.05
   0   2   5    0.24    0.06
  -1  -2  -5  110.43    2.41
  -1  -2  -5  111.12    2.40
  -1  -2  -5  107.54    2.42
  -1  -2  -5  111.63    2.41
   1   2   5  114.01    2.40
   1   2   5  112.02    2.39
   1   2   5  109.54    2.42
   1   2   5  109.80    2.41
  -2  -2  -5  177.47    3.72
  -2  -2  -5  176.98    3.74
  -2  -2  -5  176.92    3.73
  -2  -2  -5  171.17    3.74
  -2  -2  -5  172.91    3.72
   2   2   5  170.71    3.73
   2   2   5  175.40    3.72
   2   2   5  170.68    3.73
   2   2   5  171.68    3.71
   2   2   5  173.12    3.73
  -3  -2  -5   11.62    0.32
  -3  -2  -5   11.56    0.32
  -3  -2  -5   11.83    0.36
  -3  -2  -5   11.82    0.33
  -3  -2  -5   11.69    0.33
   3   2   5   11.22    0.33
   3   2   5   10.98    0.34
   3   2   5   12.03    0.36
   3   2   5   11.53    0.33
   3   2   5   11.11    0.36
   3   2   5   11.33    0.30
  -4  -2  -5   20.61    0.57
  -4  -2  -5   21.24    0.56
  -4  -2  -5   21.02    0.53
  -4  -2  -5   22.10    0.52
  -4  -2  -5   21.00    0.52
   4   2   5   20.65    0.59
   4   2   5   20.48    0.57
   4   2   5   20.63    0.55
  -5  -2  -5    4.73    0.22
  -5  -2  -5    4.93    0.18
  -5  -2  -5    4.90    0.17
  -5  -2  -5    5.18    0.23
   5   2   5    4.70    0.26
   5   2   5    4.57    0.23
   5   2   5    4.70    0.22
  -6  -2  -5    0.86    0.09
  -6  -2  -5    0.97    0.13
  -6  -2  -5    1.00    0.13
   6   2   5    0.94    0.15
   6   2   5    0.77    0.12
   6   2   5    1.02    0.14
  -7  -2  -5    1.23    0.15
  -7  -2  -5    1.36    0.12
  -7  -2  -5    1.25    0.15
   7   2   5    1.20    0.16
   7   2   5    1.58    0.18
   7   2   5    1.12    0.17
  -8  -2  -5    3.70    0.25
  -8  -2  -5    3.73    0.19
  -8  -2  -5    3.40    0.27
   8   2   5    3.69    0.32
   8   2   5    3.39    0.27
  -9  -2  -5    2.54    0.27
  -9  -2  -5    3.06    0.18
   9   2   5    2.49    0.26
   9   2   5    3.04    0.31
 -10  -2  -5    2.19    0.17
 -10  -2  -5    2.05    0.27
  10   2   5    2.05    0.26
   8  -3  -5    0.23    0.15
   8  -3  -5    0.20    0.16
  -8   3   5    0.05    0.16
  -8   3   5    0.14    0.10
   7  -3  -5    9.01    0.43
   7  -3  -5    9.17    0.43
  -7   3   5    9.15    0.44
   6  -3  -5   44.57    1.15
   6  -3  -5   43.91    1.16
  -6   3   5   43.96    1.18
  -6   3   5   43.06    1.07
   5  -3  -5    6.93    0.31
   5  -3  -5    6.90    0.32
  -5   3   5    6.50    0.32
  -5   3   5    6.59    0.27
  -5   3   5    6.66    0.30
  -5   3   5    6.65    0.24
   4  -3  -5   12.64    0.44
   4  -3  -5   12.91    0.42
  -4   3   5   12.70    0.39
  -4   3   5   12.42    0.44
  -4   3   5   12.91    0.37
  -4   3   5   12.83    0.39
  -4   3   5   12.10    0.40
   3  -3  -5   31.76    0.74
   3  -3  -5   32.20    0.75
   3  -3  -5   31.44    0.80
   3  -3  -5   30.79    0.82
   3  -3  -5   31.58    0.81
  -3   3   5   31.65    0.77
  -3   3   5   32.66    0.80
  -3   3   5   31.31    0.78
  -3   3   5   31.84    0.84
  -3   3   5   31.89    0.78
   2  -3  -5    9.32    0.28
   2  -3  -5    9.29    0.30
   2  -3  -5   10.13    0.33
   2  -3  -5    9.46    0.28
   2  -3  -5   10.12    0.33
  -2   3   5    9.13    0.30
  -2   3   5    9.01    0.34
  -2   3   5    9.40    0.30
  -2   3   5    9.91    0.33
  -2   3   5    9.59    0.31
   1  -3  -5    0.73    0.08
   1  -3  -5    0.76    0.09
   1  -3  -5    0.79    0.10
   1  -3  -5    0.73    0.08
   1  -3  -5    0.91    0.09
  -1   3   5    0.61    0.08
  -1   3   5    0.88    0.09
  -1   3   5    1.07    0.13
  -1   3   5    0.81    0.09
   0  -3  -5    8.25    0.26
   0  -3  -5    8.55    0.26
   0  -3  -5    8.29    0.26
   0  -3  -5    7.95    0.27
   0  -3  -5    8.13    0.22
   0   3   5    8.04    0.27
   0   3   5    7.75    0.25
   0   3   5    7.83    0.24
   0   3   5    7.78    0.27
  -1  -3  -5    7.32    0.24
  -1  -3  -5    7.25    0.23
  -1  -3  -5    6.80    0.23
  -1  -3  -5    6.50    0.24
   1   3   5    6.27    0.24
   1   3   5    6.61    0.21
   1   3   5    7.08    0.23
   1   3   5    7.16    0.21
   1   3   5    6.88    0.23
  -2  -3  -5   23.78    0.57
  -2  -3  -5   22.59    0.59
  -2  -3  -5   22.62    0.59
  -2  -3  -5   22.63    0.58
   2   3   5   23.42    0.56
   2   3   5   23.74    0.58
   2   3   5   23.57    0.58
   2   3   5   21.76    0.64
   2   3   5   23.88    0.60
   2   3   5   23.16    0.57
  -3  -3  -5   82.96    1.86
  -3  -3  -5   85.44    1.86
  -3  -3  -5   83.21    1.89
  -3  -3  -5   84.68    1.88
  -3  -3  -5   82.83    1.87
   3   3   5   84.04    1.86
   3   3   5   83.01    1.87
   3   3   5   85.52    1.84
   3   3   5   83.52    1.90
   3   3   5   86.93    1.89
  -4  -3  -5   40.92    1.00
  -4  -3  -5   39.97    0.96
  -4  -3  -5   41.31    0.97
  -4  -3  -5   41.81    0.96
  -4  -3  -5   41.56    0.99
   4   3   5   41.44    0.98
   4   3   5   42.39    1.01
   4   3   5   41.06    0.98
   4   3   5   39.48    1.01
   4   3   5   41.93    0.93
  -5  -3  -5    0.40    0.08
  -5  -3  -5    0.45    0.10
  -5  -3  -5    0.39    0.07
  -5  -3  -5    0.43    0.07
  -5  -3  -5    0.73    0.11
   5   3   5    0.36    0.10
   5   3   5    0.50    0.12
   5   3   5    0.42    0.09
  -6  -3  -5   27.11    0.73
  -6  -3  -5   26.17    0.66
  -6  -3  -5   28.84    0.75
  -6  -3  -5   27.14    0.69
   6   3   5   27.81    0.80
   6   3   5   28.06    0.77
   6   3   5   27.37    0.74
  -7  -3  -5    1.21    0.12
  -7  -3  -5    1.46    0.16
  -7  -3  -5    1.54    0.21
   7   3   5    1.34    0.17
   7   3   5    1.22    0.17
   7   3   5    1.26    0.20
  -8  -3  -5    0.50    0.10
  -8  -3  -5    0.50    0.15
  -8  -3  -5    0.41    0.13
   8   3   5    0.56    0.15
   8   3   5    0.37    0.16
  -9  -3  -5    0.33    0.16
  -9  -3  -5    0.27    0.10
   9   3   5    0.63    0.17
 -10  -3  -5    5.32    0.26
 -10  -3  -5    5.06    0.37
  10   3   5    5.26    0.37
   8  -4  -5    1.33    0.22
   8  -4  -5    1.59    0.24
  -8   4   5    2.04    0.17
  -8   4   5    2.14    0.29
   7  -4  -5    2.41    0.25
   7  -4  -5    2.43    0.25
  -7   4   5    2.82    0.29
  -7   4   5    2.19    0.18
   6  -4  -5    0.03    0.12
   6  -4  -5    0.02    0.12
  -6   4   5    0.14    0.13
  -6   4   5    0.05    0.08
   5  -4  -5   31.12    0.85
   5  -4  -5   28.71    0.86
  -5   4   5   30.65    0.79
  -5   4   5   31.96    0.87
  -5   4   5   31.42    0.89
   4  -4  -5   34.24    0.88
   4  -4  -5   33.46    0.90
  -4   4   5   34.43    0.82
  -4   4   5   33.73    0.92
  -4   4   5   34.09    0.84
  -4   4   5   32.01    0.85
   3  -4  -5   14.72    0.42
   3  -4  -5   15.58    0.46
   3  -4  -5   15.33    0.48
  -3   4   5   15.40    0.43
  -3   4   5   14.61    0.49
  -3   4   5   14.94    0.45
  -3   4   5   14.53    0.42
   2  -4  -5    3.14    0.14
   2  -4  -5    3.18    0.18
   2  -4  -5    3.27    0.16
   2  -4  -5    3.36    0.17
   2  -4  -5    2.81    0.18
  -2   4   5    3.19    0.17
  -2   4   5    3.14    0.16
  -2   4   5    3.25    0.17
  -2   4   5    2.79    0.20
   1  -4  -5    8.70    0.30
   1  -4  -5    8.20    0.26
   1  -4  -5    8.26    0.29
   1  -4  -5    8.64    0.27
   1  -4  -5    9.13    0.28
  -1   4   5    8.20    0.33
  -1   4   5    8.39    0.29
  -1   4   5    8.44    0.28
  -1   4   5    8.24    0.29
   0  -4  -5   10.82    0.32
   0  -4  -5   11.50    0.33
   0  -4  -5   10.77    0.29
   0  -4  -5   11.41    0.35
   0  -4  -5   10.85    0.33
   0  -4  -5   11.05    0.33
   0   4   5   11.13    0.33
   0   4   5   10.43    0.33
   0   4   5   10.92    0.28
   0   4   5   10.20    0.34
  -1  -4  -5   32.78    0.79
  -1  -4  -5   32.94    0.81
  -1  -4  -5   32.97    0.80
  -1  -4  -5   31.77    0.78
  -1  -4  -5   35.43    0.86
  -1  -4  -5   32.00    0.79
  -1  -4  -5   32.79    0.73
   1   4   5   32.34    0.81
   1   4   5   33.75    0.79
   1   4   5   32.13    0.83
   1   4   5   33.77    0.75
   1   4   5   31.86    0.79
  -2  -4  -5   40.11    0.95
  -2  -4  -5   42.26    0.95
  -2  -4  -5   40.58    0.96
  -2  -4  -5   40.43    0.97
  -2  -4  -5   39.79    0.97
   2   4   5   40.80    0.95
   2   4   5   39.98    0.97
   2   4   5   40.63    0.94
   2   4   5   40.41    0.92
   2   4   5   40.79    0.95
   2   4   5   40.31    0.99
  -3  -4  -5   42.12    0.99
  -3  -4  -5   41.93    1.00
  -3  -4  -5   41.66    0.99
  -3  -4  -5   41.84    1.01
  -3  -4  -5   41.73    1.00
   3   4   5   41.92    0.98
   3   4   5   41.53    0.97
   3   4   5   41.65    1.01
   3   4   5   43.81    1.01
   3   4   5   41.86    1.03
  -4  -4  -5    3.81    0.19
  -4  -4  -5    3.99    0.20
  -4  -4  -5    3.95    0.20
  -4  -4  -5    4.11    0.19
  -4  -4  -5    4.08    0.18
   4   4   5    3.82    0.21
   4   4   5    3.99    0.18
   4   4   5    4.17    0.17
   4   4   5    3.52    0.21
   4   4   5    3.89    0.19
  -5  -4  -5   42.77    1.03
  -5  -4  -5   43.62    1.06
  -5  -4  -5   42.82    1.03
  -5  -4  -5   44.96    1.06
  -5  -4  -5   43.86    1.04
   5   4   5   42.23    1.09
   5   4   5   43.08    1.10
   5   4   5   43.48    1.04
  -6  -4  -5   16.67    0.50
  -6  -4  -5   15.91    0.46
  -6  -4  -5   16.26    0.47
  -6  -4  -5   16.09    0.50
   6   4   5   16.81    0.54
   6   4   5   16.76    0.56
   6   4   5   15.39    0.49
  -7  -4  -5    0.23    0.11
  -7  -4  -5    0.17    0.09
  -7  -4  -5    0.33    0.12
   7   4   5    0.25    0.13
   7   4   5    0.10    0.11
  -8  -4  -5    2.13    0.17
  -8  -4  -5    1.53    0.21
  -8  -4  -5    2.10    0.20
   8   4   5    2.09    0.24
   8   4   5    1.57    0.20
  -9  -4  -5    0.10    0.10
  -9  -4  -5    0.12    0.14
   9   4   5    0.08    0.14
   8  -5  -5   -0.17    0.17
  -8   5   5    0.05    0.18
  -8   5   5    0.08    0.09
   7  -5  -5    0.70    0.18
   7  -5  -5    0.92    0.20
  -7   5   5    0.69    0.12
  -7   5   5    0.79    0.20
   6  -5  -5    1.81    0.22
   6  -5  -5    1.42    0.20
  -6   5   5    1.61    0.23
  -6   5   5    2.16    0.17
   5  -5  -5   19.98    0.62
   5  -5  -5   19.43    0.64
  -5   5   5   19.24    0.55
  -5   5   5   19.49    0.65
   4  -5  -5    3.22    0.22
   4  -5  -5    2.84    0.23
  -4   5   5    3.07    0.16
  -4   5   5    2.96    0.18
  -4   5   5    2.94    0.25
   3  -5  -5   35.61    0.87
   3  -5  -5   34.54    0.93
   3  -5  -5   35.51    0.90
  -3   5   5   35.93    0.87
  -3   5   5   35.76    0.87
  -3   5   5   35.30    0.96
  -3   5   5   35.30    0.89
   2  -5  -5   89.16    1.99
   2  -5  -5   90.07    2.00
   2  -5  -5   88.71    1.96
   2  -5  -5   87.04    2.03
   2  -5  -5   87.68    2.02
  -2   5   5   91.01    1.99
  -2   5   5   88.10    2.00
  -2   5   5   91.49    2.01
  -2   5   5   89.08    2.08
   1  -5  -5    2.87    0.15
   1  -5  -5    2.69    0.14
   1  -5  -5    2.63    0.16
   1  -5  -5    2.76    0.17
   1  -5  -5    2.74    0.16
   1  -5  -5    2.59    0.14
  -1   5   5    2.69    0.16
  -1   5   5    2.43    0.21
  -1   5   5    2.55    0.16
  -1   5   5    2.77    0.17
   0  -5  -5   12.33    0.38
   0  -5  -5   12.80    0.34
   0  -5  -5   12.77    0.38
   0  -5  -5   12.46    0.40
   0  -5  -5   13.36    0.37
   0  -5  -5   13.16    0.38
   0   5   5   12.72    0.39
   0   5   5   12.61    0.39
   0   5   5   12.53    0.43
   0   5   5   12.38    0.37
  -1  -5  -5    0.49    0.09
  -1  -5  -5    0.35    0.07
  -1  -5  -5    0.40    0.08
  -1  -5  -5    0.33    0.08
  -1  -5  -5    0.23    0.07
  -1  -5  -5    0.30    0.07
  -1  -5  -5    0.25    0.05
   1   5   5    0.09    0.06
   1   5   5    0.21    0.07
   1   5   5    0.39    0.08
   1   5   5    0.43    0.10
  -2  -5  -5    8.34    0.30
  -2  -5  -5    8.72    0.29
  -2  -5  -5    8.39    0.29
  -2  -5  -5    8.93    0.26
  -2  -5  -5    8.66    0.28
  -2  -5  -5    8.55    0.30
   2   5   5    8.34    0.24
   2   5   5    8.56    0.29
   2   5   5    7.85    0.30
   2   5   5    8.28    0.31
  -3  -5  -5    5.81    0.25
  -3  -5  -5    6.28    0.25
  -3  -5  -5    6.11    0.23
  -3  -5  -5    6.52    0.26
  -3  -5  -5    5.80    0.24
   3   5   5    6.31    0.21
   3   5   5    6.08    0.24
   3   5   5    6.09    0.25
   3   5   5    6.31    0.27
  -4  -5  -5   13.56    0.42
  -4  -5  -5   13.03    0.41
  -4  -5  -5   13.53    0.41
  -4  -5  -5   13.09    0.40
  -4  -5  -5   12.64    0.40
   4   5   5   12.60    0.38
   4   5   5   12.84    0.43
   4   5   5   12.28    0.41
   4   5   5   12.91    0.38
  -5  -5  -5   16.86    0.50
  -5  -5  -5   17.41    0.50
  -5  -5  -5   17.00    0.51
  -5  -5  -5   17.23    0.51
  -5  -5  -5   18.08    0.52
   5   5   5   17.46    0.55
   5   5   5   17.64    0.50
  -6  -5  -5    0.75    0.11
  -6  -5  -5    0.41    0.09
  -6  -5  -5    0.63    0.12
  -6  -5  -5    0.65    0.11
  -6  -5  -5    0.89    0.13
   6   5   5    0.68    0.12
   6   5   5    0.66    0.14
  -7  -5  -5    9.51    0.41
  -7  -5  -5    9.91    0.36
  -7  -5  -5    9.90    0.38
   7   5   5   10.20    0.43
   7   5   5    9.56    0.39
  -8  -5  -5    6.14    0.29
  -8  -5  -5    5.89    0.31
  -8  -5  -5    5.38    0.35
   8   5   5    5.97    0.36
   8   5   5    5.83    0.32
  -9  -5  -5    0.39    0.12
  -9  -5  -5    0.29    0.16
   9   5   5    0.29    0.16
   7  -6  -5    3.89    0.33
   7  -6  -5    3.71    0.33
  -7   6   5    3.25    0.34
  -7   6   5    3.66    0.23
   6  -6  -5    0.39    0.16
   6  -6  -5    0.25    0.14
  -6   6   5    0.25    0.16
  -6   6   5    0.56    0.11
   5  -6  -5    0.14    0.13
   5  -6  -5    0.26    0.13
  -5   6   5    0.33    0.15
  -5   6   5    0.20    0.09
   4  -6  -5   17.21    0.56
   4  -6  -5   17.60    0.59
  -4   6   5   16.99    0.48
  -4   6   5   16.82    0.50
  -4   6   5   17.52    0.61
   3  -6  -5   13.89    0.49
   3  -6  -5   14.21    0.44
   3  -6  -5   14.64    0.46
  -3   6   5   13.75    0.41
  -3   6   5   13.32    0.44
  -3   6   5   13.99    0.43
  -3   6   5   13.23    0.51
   2  -6  -5   17.39    0.46
   2  -6  -5   17.62    0.51
   2  -6  -5   17.76    0.48
   2  -6  -5   17.06    0.50
   2  -6  -5   17.51    0.54
  -2   6   5   18.00    0.52
  -2   6   5   17.46    0.50
  -2   6   5   17.48    0.50
  -2   6   5   17.17    0.57
   1  -6  -5   19.16    0.49
   1  -6  -5   17.61    0.53
   1  -6  -5   17.55    0.49
   1  -6  -5   18.32    0.53
   1  -6  -5   18.26    0.49
   1  -6  -5   17.89    0.52
  -1   6   5   18.26    0.52
  -1   6   5   18.36    0.51
  -1   6   5   18.04    0.52
  -1   6   5   17.20    0.57
   0  -6  -5   10.51    0.34
   0  -6  -5   11.42    0.32
   0  -6  -5   11.02    0.34
   0  -6  -5   10.98    0.37
   0  -6  -5   10.60    0.35
   0  -6  -5   10.76    0.36
   0   6   5   10.72    0.36
   0   6   5   10.78    0.35
   0   6   5   11.49    0.37
   0   6   5   10.55    0.40
  -1  -6  -5    0.96    0.11
  -1  -6  -5    1.27    0.12
  -1  -6  -5    1.18    0.13
  -1  -6  -5    1.14    0.11
  -1  -6  -5    1.10    0.12
   1   6   5    1.09    0.13
   1   6   5    1.37    0.15
   1   6   5    1.09    0.12
   1   6   5    1.14    0.12
  -2  -6  -5   10.56    0.37
  -2  -6  -5   10.79    0.36
  -2  -6  -5   10.57    0.35
  -2  -6  -5   11.07    0.36
   2   6   5   10.56    0.36
   2   6   5   10.23    0.37
   2   6   5   11.22    0.39
  -3  -6  -5    6.90    0.28
  -3  -6  -5    6.97    0.27
  -3  -6  -5    6.93    0.29
  -3  -6  -5    6.90    0.27
  -3  -6  -5    7.10    0.28
   3   6   5    6.67    0.29
   3   6   5    6.91    0.27
   3   6   5    6.71    0.30
  -4  -6  -5   76.34    1.72
  -4  -6  -5   70.70    1.69
  -4  -6  -5   75.83    1.69
  -4  -6  -5   74.31    1.70
  -4  -6  -5   74.47    1.71
   4   6   5   70.85    1.65
   4   6   5   72.32    1.68
  -5  -6  -5    2.94    0.20
  -5  -6  -5    2.93    0.20
  -5  -6  -5    3.13    0.20
  -5  -6  -5    3.08    0.21
  -5  -6  -5    2.92    0.19
   5   6   5    2.67    0.18
   5   6   5    2.78    0.22
   5   6   5    2.94    0.18
  -6  -6  -5   18.37    0.58
  -6  -6  -5   18.42    0.56
  -6  -6  -5   17.92    0.55
  -6  -6  -5   18.15    0.54
  -6  -6  -5   18.47    0.56
   6   6   5   17.89    0.54
   6   6   5   18.36    0.60
  -7  -6  -5   23.77    0.73
  -7  -6  -5   24.17    0.70
  -7  -6  -5   21.98    0.66
  -7  -6  -5   23.67    0.69
   7   6   5   23.94    0.69
   7   6   5   24.13    0.75
  -8  -6  -5    0.00    0.11
  -8  -6  -5    0.02    0.13
  -8  -6  -5   -0.05    0.10
   8   6   5    0.17    0.13
   8   6   5   -0.11    0.13
  -9  -6  -5    2.00    0.25
  -9  -6  -5    1.64    0.19
   9   6   5    2.72    0.26
   7  -7  -5    0.25    0.18
  -7   7   5    0.20    0.10
  -7   7   5    0.17    0.19
   6  -7  -5    1.36    0.21
   6  -7  -5    1.67    0.24
  -6   7   5    1.72    0.26
  -6   7   5    1.23    0.15
   5  -7  -5    0.41    0.14
   5  -7  -5    0.27    0.16
  -5   7   5    0.16    0.09
  -5   7   5    0.35    0.17
   4  -7  -5    3.67    0.25
   4  -7  -5    3.60    0.29
  -4   7   5    3.28    0.30
  -4   7   5    3.40    0.21
   3  -7  -5   13.36    0.49
   3  -7  -5   13.43    0.45
   3  -7  -5   12.62    0.44
  -3   7   5   12.71    0.42
  -3   7   5   13.28    0.51
  -3   7   5   13.20    0.44
   2  -7  -5   23.30    0.67
   2  -7  -5   22.65    0.63
   2  -7  -5   22.64    0.64
   2  -7  -5   22.76    0.62
  -2   7   5   23.08    0.63
  -2   7   5   23.49    0.63
  -2   7   5   22.11    0.70
  -2   7   5   21.50    0.63
   1  -7  -5   92.36    2.04
   1  -7  -5   92.48    2.05
   1  -7  -5   91.21    2.08
   1  -7  -5   89.75    2.05
   1  -7  -5   92.89    2.09
  -1   7   5   94.99    2.07
  -1   7   5   90.18    2.08
  -1   7   5   92.85    2.08
  -1   7   5   85.77    2.13
   0  -7  -5   17.50    0.54
   0  -7  -5   17.18    0.50
   0  -7  -5   17.16    0.52
   0  -7  -5   17.20    0.49
   0  -7  -5   17.60    0.51
   0  -7  -5   17.11    0.53
   0   7   5   17.86    0.51
   0   7   5   17.66    0.56
   0   7   5   17.20    0.52
   0   7   5   16.92    0.51
  -1  -7  -5    6.42    0.27
  -1  -7  -5    6.39    0.25
  -1  -7  -5    6.51    0.29
  -1  -7  -5    6.78    0.27
  -1  -7  -5    6.77    0.28
   1   7   5    6.52    0.28
   1   7   5    6.51    0.28
   1   7   5    6.42    0.30
  -2  -7  -5    2.55    0.18
  -2  -7  -5    2.63    0.18
  -2  -7  -5    2.93    0.20
  -2  -7  -5    2.62    0.19
   2   7   5    2.44    0.20
   2   7   5    2.74    0.20
   2   7   5    2.61    0.18
  -3  -7  -5    0.08    0.08
  -3  -7  -5    0.08    0.09
  -3  -7  -5   -0.02    0.08
  -3  -7  -5    0.04    0.08
   3   7   5    0.27    0.10
   3   7   5    0.13    0.09
  -4  -7  -5   10.58    0.37
  -4  -7  -5    9.69    0.37
  -4  -7  -5    9.50    0.35
  -4  -7  -5    9.49    0.36
  -4  -7  -5    9.53    0.36
   4   7   5    9.69    0.35
   4   7   5    9.20    0.37
   4   7   5    7.78    0.37
  -5  -7  -5    2.66    0.20
  -5  -7  -5    2.51    0.20
  -5  -7  -5    3.35    0.22
  -5  -7  -5    2.57    0.21
  -5  -7  -5    2.64    0.20
   5   7   5    2.76    0.23
   5   7   5    2.86    0.20
  -6  -7  -5   20.98    0.64
  -6  -7  -5   21.12    0.63
  -6  -7  -5   20.44    0.63
  -6  -7  -5   20.64    0.62
  -6  -7  -5   20.47    0.61
   6   7   5   20.87    0.67
  -7  -7  -5    1.54    0.20
  -7  -7  -5    1.00    0.16
  -7  -7  -5    0.91    0.16
  -7  -7  -5    1.36    0.18
   7   7   5    1.28    0.20
   7   7   5    1.13    0.17
  -8  -7  -5    6.33    0.34
  -8  -7  -5    6.60    0.33
  -8  -7  -5    6.65    0.38
   8   7   5    6.43    0.41
   8   7   5    6.45    0.35
  -9  -7  -5    5.06    0.31
  -9  -7  -5    4.41    0.36
   9   7   5    4.65    0.34
   6  -8  -5    0.60    0.18
  -6   8   5    0.84    0.14
   5  -8  -5    0.06    0.15
   5  -8  -5   -0.03    0.12
  -5   8   5   -0.14    0.08
  -5   8   5   -0.03    0.16
   4  -8  -5    0.04    0.14
   4  -8  -5   -0.01    0.11
  -4   8   5   -0.05    0.14
  -4   8   5    0.11    0.09
   3  -8  -5    1.94    0.22
   3  -8  -5    1.93    0.20
   3  -8  -5    1.82    0.19
  -3   8   5    1.88    0.17
  -3   8   5    2.68    0.27
  -3   8   5    2.25    0.20
   2  -8  -5   32.05    0.87
   2  -8  -5   32.36    0.90
   2  -8  -5   32.46    0.84
   2  -8  -5   33.50    0.86
  -2   8   5   31.77    0.85
  -2   8   5   33.82    0.87
  -2   8   5   30.74    0.92
   1  -8  -5    9.44    0.35
   1  -8  -5    9.27    0.32
   1  -8  -5    9.58    0.35
   1  -8  -5    9.24    0.37
   1  -8  -5    9.55    0.38
  -1   8   5    9.88    0.37
  -1   8   5    9.34    0.41
  -1   8   5    9.50    0.35
   0  -8  -5    0.88    0.13
   0  -8  -5    0.97    0.12
   0  -8  -5    1.03    0.14
   0  -8  -5    0.98    0.15
   0  -8  -5    0.83    0.13
   0   8   5    0.88    0.13
   0   8   5    1.09    0.14
   0   8   5    1.15    0.16
  -1  -8  -5   35.78    0.93
  -1  -8  -5   36.90    0.94
  -1  -8  -5   35.78    0.96
  -1  -8  -5   37.20    0.98
   1   8   5   36.98    0.97
   1   8   5   37.18    0.96
   1   8   5   38.44    0.98
  -2  -8  -5    1.58    0.16
  -2  -8  -5    1.74    0.18
  -2  -8  -5    1.96    0.17
  -2  -8  -5    1.94    0.18
   2   8   5    1.68    0.17
   2   8   5    1.96    0.19
   2   8   5    1.79    0.19
  -3  -8  -5    6.38    0.30
  -3  -8  -5    6.94    0.31
  -3  -8  -5    7.19    0.34
  -3  -8  -5    6.67    0.31
   3   8   5    7.34    0.33
   3   8   5    7.30    0.31
   3   8   5    6.66    0.32
  -4  -8  -5    0.06    0.10
  -4  -8  -5    0.30    0.11
  -4  -8  -5    0.43    0.12
   4   8   5    0.11    0.10
   4   8   5    0.10    0.11
   4   8   5    0.14    0.10
  -5  -8  -5    5.97    0.30
  -5  -8  -5    5.39    0.30
  -5  -8  -5    6.64    0.31
   5   8   5    6.46    0.34
   5   8   5    6.09    0.29
  -6  -8  -5    1.60    0.20
  -6  -8  -5    1.71    0.19
  -6  -8  -5    2.37    0.22
  -6  -8  -5    2.04    0.21
  -6  -8  -5    1.93    0.20
   6   8   5    1.81    0.22
  -7  -8  -5   15.51    0.55
  -7  -8  -5   15.58    0.57
  -7  -8  -5   16.49    0.56
  -7  -8  -5   16.88    0.57
   7   8   5   16.24    0.61
  -8  -8  -5   13.09    0.51
  -8  -8  -5   13.60    0.56
  -8  -8  -5   14.02    0.51
  -8  -8  -5   13.48    0.52
   8   8   5   13.19    0.58
   5  -9  -5    0.65    0.20
   5  -9  -5    0.67    0.18
  -5   9   5    0.84    0.14
   4  -9  -5    0.34    0.17
   4  -9  -5    0.47    0.16
  -4   9   5    0.20    0.11
   3  -9  -5    0.20    0.14
   3  -9  -5    0.15    0.13
   3  -9  -5   -0.03    0.11
  -3   9   5    0.18    0.11
   2  -9  -5    3.04    0.26
   2  -9  -5    2.54    0.23
   2  -9  -5    2.42    0.22
   2  -9  -5    2.85    0.22
  -2   9   5    2.63    0.23
  -2   9   5    2.18    0.30
  -2   9   5    2.52    0.21
   1  -9  -5    5.61    0.30
   1  -9  -5    6.48    0.30
   1  -9  -5    5.31    0.30
  -1   9   5    4.91    0.29
  -1   9   5    6.17    0.34
  -1   9   5    5.63    0.28
   0  -9  -5   55.70    1.35
   0  -9  -5   55.13    1.33
   0  -9  -5   55.60    1.38
   0   9   5   58.35    1.38
   0   9   5   53.53    1.38
  -1  -9  -5    9.66    0.38
  -1  -9  -5    9.54    0.41
  -1  -9  -5    9.42    0.40
  -1  -9  -5    9.98    0.37
   1   9   5    9.89    0.40
   1   9   5   10.30    0.40
  -2  -9  -5    1.46    0.17
  -2  -9  -5    1.86    0.19
  -2  -9  -5    1.84    0.18
   2   9   5    1.66    0.19
   2   9   5    1.21    0.17
  -3  -9  -5   14.63    0.49
  -3  -9  -5   14.11    0.49
  -3  -9  -5   14.48    0.49
   3   9   5   13.02    0.48
   3   9   5   14.24    0.50
  -4  -9  -5    1.26    0.17
  -4  -9  -5    1.45    0.19
  -4  -9  -5    1.11    0.17
   4   9   5    1.37    0.18
   4   9   5    1.44    0.18
  -5  -9  -5    2.83    0.25
  -5  -9  -5    2.32    0.22
  -5  -9  -5    2.42    0.23
   5   9   5    2.44    0.24
   5   9   5    2.52    0.21
  -6  -9  -5    0.07    0.13
  -6  -9  -5    0.19    0.12
  -6  -9  -5    0.07    0.12
   6   9   5   -0.12    0.13
  -7  -9  -5    0.93    0.17
  -7  -9  -5    1.10    0.19
   7   9   5    1.00    0.21
  -8  -9  -5    0.46    0.17
  -8  -9  -5    0.60    0.18
   8   9   5    0.26    0.19
   4 -10  -5    2.52    0.27
   4 -10  -5    2.52    0.28
  -4  10   5    1.88    0.20
   3 -10  -5    5.60    0.34
   3 -10  -5    5.15    0.36
   3 -10  -5    4.85    0.33
  -3  10   5    5.42    0.30
   2 -10  -5    0.68    0.16
   2 -10  -5    0.63    0.16
   2 -10  -5    0.84    0.17
  -2  10   5    0.89    0.17
  -2  10   5    0.94    0.16
   1 -10  -5    7.73    0.36
   1 -10  -5    7.51    0.37
  -1  10   5    6.54    0.33
  -1  10   5    7.60    0.36
   0 -10  -5    3.51    0.27
   0 -10  -5    2.93    0.21
   0 -10  -5    3.59    0.27
   0  10   5    3.26    0.26
  -1 -10  -5    1.32    0.18
  -1 -10  -5    1.48    0.19
  -1 -10  -5    1.39    0.17
   1  10   5    1.53    0.19
  -2 -10  -5   23.59    0.74
  -2 -10  -5   25.91    0.74
  -2 -10  -5   26.16    0.73
   2  10   5   24.43    0.74
   2  10   5   23.88    0.74
  -3 -10  -5    3.00    0.25
  -3 -10  -5    3.11    0.26
  -3 -10  -5    2.80    0.25
   3  10   5    3.17    0.27
   3  10   5    3.33    0.27
  -4 -10  -5    0.16    0.13
  -4 -10  -5    0.03    0.12
  -4 -10  -5    0.26    0.13
   4  10   5    0.23    0.13
   4  10   5    0.11    0.12
  -5 -10  -5    2.67    0.25
  -5 -10  -5    3.75    0.28
  -5 -10  -5    3.34    0.28
   5  10   5    3.56    0.29
   5  10   5    3.23    0.26
  -6 -10  -5    2.35    0.24
  -6 -10  -5    2.21    0.24
  -6 -10  -5    1.80    0.34
   6  10   5    2.18    0.25
  -7 -10  -5    3.39    0.29
  -7 -10  -5    3.42    0.30
   7  10   5    3.99    0.35
   3 -11  -5    0.81    0.20
   3 -11  -5    0.43    0.17
  -3  11   5    0.63    0.15
   2 -11  -5    1.76    0.23
   2 -11  -5    1.80    0.23
  -2  11   5    1.70    0.22
  -2  11   5    1.62    0.19
   1 -11  -5    1.50    0.21
   1 -11  -5    2.00    0.23
  -1  11   5    2.37    0.24
   0 -11  -5    0.23    0.15
   0 -11  -5    0.25    0.14
   0  11   5    0.12    0.13
  -1 -11  -5   12.41    0.51
  -1 -11  -5   12.62    0.46
  -1 -11  -5   12.60    0.50
   1  11   5   12.44    0.50
  -2 -11  -5   12.40    0.49
  -2 -11  -5   12.34    0.47
  -2 -11  -5   13.01    0.51
   2  11   5   11.74    0.49
  -3 -11  -5    0.50    0.15
  -3 -11  -5    0.49    0.16
  -3 -11  -5    0.45    0.15
   3  11   5    0.45    0.16
  -4 -11  -5   13.72    0.53
  -4 -11  -5   14.09    0.54
  -4 -11  -5   13.84    0.54
   4  11   5   12.97    0.52
  -5 -11  -5    2.95    0.27
  -5 -11  -5    2.89    0.27
  -5 -11  -5    2.68    0.26
   5  11   5    3.11    0.43
   5  11   5    2.50    0.25
  -6 -11  -5   -0.06    0.14
  -6 -11  -5    0.11    0.16
   6  11   5   -0.12    0.15
   2 -12  -5    0.38    0.18
  -2  12   5    0.17    0.13
  -2  12   5   -0.02    0.14
   1 -12  -5    0.40    0.18
  -1  12   5    0.39    0.16
   0 -12  -5    6.96    0.40
   0 -12  -5    6.04    0.44
   0  12   5    7.21    0.40
  -1 -12  -5    3.79    0.32
  -1 -12  -5    3.41    0.30
   1  12   5    4.15    0.33
  -2 -12  -5    0.05    0.15
  -2 -12  -5    0.14    0.13
  -2 -12  -5   -0.15    0.14
   2  12   5    0.29    0.16
  -3 -12  -5   12.34    0.51
  -3 -12  -5   12.68    0.52
  -3 -12  -5   12.61    0.54
   3  12   5   12.50    0.53
  -4 -12  -5   12.91    0.53
  -4 -12  -5   13.42    0.55
  -4 -12  -5   12.38    0.66
   4  12   5   13.46    0.55
   4  11  -6    5.54    0.40
  -4 -11   6    5.25    0.36
   3  11  -6   14.24    0.59
  -3 -11   6   14.63    0.55
  -3 -11   6   14.16    0.54
   2  11  -6    3.34    0.30
  -2 -11   6    2.40    0.32
  -2 -11   6    3.29    0.28
   1  11  -6    4.74    0.35
  -1 -11   6    4.10    0.40
  -1 -11   6    5.14    0.34
   0  11  -6    1.03    0.20
   0 -11   6    0.84    0.19
   0 -11   6    0.71    0.23
  -1  11  -6    1.16    0.19
   1 -11   6    1.16    0.26
   1 -11   6    1.62    0.23
  -2  11  -6    0.51    0.15
  -2  11  -6    0.40    0.22
   2 -11   6    0.55    0.19
   2 -11   6    1.01    0.24
   5  10  -6    1.14    0.22
  -5 -10   6    0.87    0.20
   4  10  -6   13.90    0.56
  -4 -10   6   13.38    0.53
   3  10  -6    6.94    0.39
  -3 -10   6    6.25    0.37
  -3 -10   6    6.20    0.35
   2  10  -6    1.60    0.22
  -2 -10   6    1.83    0.21
  -2 -10   6    1.59    0.26
  -2 -10   6    1.57    0.19
   1  10  -6   12.07    0.51
  -1 -10   6   13.15    0.49
  -1 -10   6   13.27    0.61
   0  10  -6    6.39    0.34
   0  10  -6    5.84    0.35
   0 -10   6    6.29    0.36
   0 -10   6    6.21    0.44
  -1  10  -6    1.13    0.17
  -1  10  -6    1.48    0.19
   1 -10   6    1.16    0.24
   1 -10   6    1.59    0.21
  -2  10  -6    1.21    0.17
  -2  10  -6    1.30    0.25
   2 -10   6    1.35    0.25
   2 -10   6    1.09    0.20
  -3  10  -6    1.06    0.25
  -3  10  -6    1.12    0.16
   3 -10   6    1.31    0.23
   3 -10   6    1.21    0.21
   3 -10   6    1.34    0.26
  -4  10  -6    0.16    0.11
   4 -10   6    0.31    0.20
   6   9  -6    0.28    0.16
  -6  -9   6    0.27    0.16
  -6  -9   6    0.20    0.17
   5   9  -6    0.92    0.19
  -5  -9   6    1.17    0.20
   4   9  -6    4.14    0.32
  -4  -9   6    5.07    0.32
   3   9  -6    2.14    0.23
  -3  -9   6    1.47    0.19
   2   9  -6   13.28    0.50
  -2  -9   6   13.21    0.46
  -2  -9   6   12.34    0.46
   1   9  -6    0.90    0.16
  -1  -9   6    0.79    0.15
  -1  -9   6    0.71    0.16
  -1  -9   6    0.70    0.19
   0   9  -6   22.23    0.67
   0   9  -6   23.32    0.70
   0  -9   6   23.79    0.70
   0  -9   6   22.24    0.81
  -1   9  -6   12.38    0.44
  -1   9  -6   12.11    0.45
   1  -9   6   13.22    0.48
   1  -9   6   12.51    0.57
  -2   9  -6   -0.14    0.13
  -2   9  -6   -0.02    0.09
   2  -9   6   -0.13    0.14
   2  -9   6   -0.01    0.12
  -3   9  -6    0.08    0.16
  -3   9  -6    0.07    0.10
   3  -9   6    0.14    0.15
   3  -9   6    0.15    0.17
   3  -9   6    0.33    0.14
  -4   9  -6    1.02    0.24
  -4   9  -6    1.12    0.14
   4  -9   6    0.96    0.23
   4  -9   6    1.40    0.23
  -5   9  -6    4.01    0.46
  -5   9  -6    3.88    0.22
   5  -9   6    3.74    0.37
   7   8  -6    1.77    0.26
  -7  -8   6    1.62    0.25
  -7  -8   6    1.65    0.23
   6   8  -6    1.69    0.21
  -6  -8   6    2.00    0.24
  -6  -8   6    1.19    0.21
   5   8  -6    0.92    0.18
  -5  -8   6    0.72    0.18
  -5  -8   6    0.68    0.16
   4   8  -6    0.04    0.12
  -4  -8   6   -0.02    0.12
  -4  -8   6    0.01    0.11
   3   8  -6    4.41    0.29
  -3  -8   6    4.34    0.27
   2   8  -6   18.07    0.58
  -2  -8   6   17.48    0.53
  -2  -8   6   17.17    0.55
  -2  -8   6   16.66    0.59
   1   8  -6    0.15    0.11
   1   8  -6    0.17    0.11
  -1  -8   6    0.23    0.14
  -1  -8   6    0.21    0.10
  -1  -8   6    0.02    0.08
   0   8  -6   29.36    0.80
   0   8  -6   27.86    0.77
   0  -8   6   27.76    0.78
   0  -8   6   29.27    0.92
  -1   8  -6    4.80    0.26
  -1   8  -6    5.57    0.27
   1  -8   6    4.92    0.36
   1  -8   6    4.92    0.28
  -2   8  -6    1.71    0.16
  -2   8  -6    1.71    0.23
   2  -8   6    1.55    0.19
   2  -8   6    1.80    0.25
   2  -8   6    2.06    0.22
  -3   8  -6    7.18    0.30
  -3   8  -6    7.72    0.44
   3  -8   6    7.15    0.38
   3  -8   6    7.14    0.36
   3  -8   6    6.59    0.42
  -4   8  -6    0.02    0.16
  -4   8  -6   -0.01    0.08
   4  -8   6    0.09    0.14
   4  -8   6    0.11    0.15
  -5   8  -6    0.01    0.08
  -5   8  -6   -0.03    0.17
   5  -8   6    0.21    0.16
   5  -8   6    0.28    0.17
  -6   8  -6    5.65    0.24
  -6   8  -6    5.96    0.47
   6  -8   6    6.23    0.43
   7   7  -6    4.23    0.36
  -7  -7   6    3.89    0.34
  -7  -7   6    4.46    0.33
   6   7  -6    0.41    0.14
  -6  -7   6    0.42    0.15
  -6  -7   6    0.52    0.16
   5   7  -6   10.31    0.42
  -5  -7   6    9.58    0.41
  -5  -7   6    9.40    0.43
   4   7  -6    0.03    0.11
  -4  -7   6   -0.03    0.10
  -4  -7   6    0.00    0.11
   3   7  -6    0.62    0.14
  -3  -7   6    0.83    0.15
  -3  -7   6    0.62    0.13
   2   7  -6    0.64    0.13
  -2  -7   6    0.76    0.13
  -2  -7   6    0.76    0.12
  -2  -7   6    0.71    0.14
  -2  -7   6    0.84    0.14
   1   7  -6   40.30    1.00
   1   7  -6   39.11    1.01
   1   7  -6   37.84    0.97
  -1  -7   6   38.63    1.08
  -1  -7   6   36.10    1.00
  -1  -7   6   38.53    0.96
  -1  -7   6   37.92    0.96
   0   7  -6   29.45    0.80
   0   7  -6   29.62    0.78
   0   7  -6   31.26    0.80
   0  -7   6   28.89    0.78
   0  -7   6   28.38    0.78
   0  -7   6   30.33    0.91
   0  -7   6   29.47    0.76
  -1   7  -6    0.95    0.13
  -1   7  -6    1.37    0.14
  -1   7  -6    0.92    0.13
   1  -7   6    0.87    0.13
   1  -7   6    1.18    0.20
  -2   7  -6   15.75    0.47
  -2   7  -6   16.63    0.48
  -2   7  -6   15.79    0.59
   2  -7   6   17.11    0.53
   2  -7   6   15.71    0.61
   2  -7   6   16.43    0.56
  -3   7  -6    0.82    0.18
  -3   7  -6    0.93    0.12
   3  -7   6    0.92    0.17
   3  -7   6    0.87    0.15
   3  -7   6    1.03    0.19
  -4   7  -6    2.30    0.27
  -4   7  -6    2.74    0.17
   4  -7   6    1.78    0.25
   4  -7   6    2.55    0.25
  -5   7  -6   -0.04    0.12
  -5   7  -6    0.10    0.16
  -5   7  -6    0.13    0.07
   5  -7   6    0.08    0.14
   5  -7   6    0.12    0.14
  -6   7  -6    0.16    0.08
  -6   7  -6    0.34    0.18
  -6   7  -6    0.17    0.14
   6  -7   6   -0.05    0.14
   6  -7   6    0.21    0.16
   6  -7   6    0.05    0.16
  -7   7  -6    0.56    0.22
  -7   7  -6    0.27    0.26
   7  -7   6    0.26    0.20
   7  -7   6    0.29    0.17
   8   6  -6    7.43    0.45
  -8  -6   6    6.43    0.42
  -8  -6   6    6.96    0.40
   7   6  -6    1.89    0.25
  -7  -6   6    2.15    0.25
  -7  -6   6    2.45    0.24
   6   6  -6    8.87    0.44
   6   6  -6    8.51    0.40
  -6  -6   6    8.95    0.40
  -6  -6   6    9.50    0.43
   5   6  -6   16.48    0.56
  -5  -6   6   17.23    0.57
  -5  -6   6   17.95    0.59
   4   6  -6    2.50    0.23
   4   6  -6    2.50    0.22
  -4  -6   6    3.01    0.24
  -4  -6   6    2.84    0.22
   3   6  -6    1.49    0.17
   3   6  -6    1.18    0.16
  -3  -6   6    1.56    0.16
  -3  -6   6    1.38    0.17
  -3  -6   6    1.57    0.17
   2   6  -6    8.15    0.35
   2   6  -6    8.63    0.34
  -2  -6   6    8.86    0.35
  -2  -6   6    8.21    0.35
  -2  -6   6    8.90    0.33
  -2  -6   6    8.66    0.30
   1   6  -6   19.49    0.59
   1   6  -6   20.32    0.58
   1   6  -6   20.57    0.59
  -1  -6   6   20.06    0.57
  -1  -6   6   19.88    0.60
  -1  -6   6   21.07    0.61
  -1  -6   6   20.25    0.65
  -1  -6   6   20.83    0.56
   0   6  -6   14.12    0.42
   0   6  -6   13.26    0.42
   0   6  -6   13.52    0.44
   0  -6   6   13.19    0.42
   0  -6   6   13.21    0.51
   0  -6   6   13.24    0.44
   0  -6   6   13.29    0.40
  -1   6  -6   35.37    0.89
  -1   6  -6   36.10    0.87
  -1   6  -6   34.58    0.88
   1  -6   6   35.18    0.89
   1  -6   6   34.17    0.89
   1  -6   6   35.58    1.00
  -2   6  -6   39.07    1.06
  -2   6  -6   37.91    0.98
  -2   6  -6   40.23    0.94
  -2   6  -6   38.21    0.93
   2  -6   6   38.36    1.01
   2  -6   6   37.29    1.07
   2  -6   6   36.92    0.97
   2  -6   6   38.78    0.95
  -3   6  -6    0.38    0.14
  -3   6  -6    0.39    0.08
   3  -6   6    0.34    0.09
   3  -6   6    0.03    0.12
   3  -6   6    0.45    0.13
  -4   6  -6    9.21    0.30
  -4   6  -6    9.79    0.46
   4  -6   6    9.29    0.40
   4  -6   6    8.74    0.44
  -5   6  -6    3.18    0.31
  -5   6  -6    3.00    0.16
  -5   6  -6    3.46    0.26
   5  -6   6    3.05    0.24
   5  -6   6    3.17    0.27
   5  -6   6    2.51    0.27
  -6   6  -6    2.46    0.29
  -6   6  -6    2.22    0.24
  -6   6  -6    2.20    0.14
   6  -6   6    1.95    0.24
   6  -6   6    2.39    0.24
   6  -6   6    1.86    0.26
  -7   6  -6    0.21    0.14
  -7   6  -6    0.03    0.16
   7  -6   6    0.12    0.15
   7  -6   6   -0.17    0.15
   7  -6   6    0.24    0.15
   8   5  -6    1.38    0.23
  -8  -5   6    0.74    0.18
  -8  -5   6    1.25    0.20
  -8  -5   6    1.04    0.22
  -8  -5   6    1.27    0.19
   7   5  -6   17.61    0.65
  -7  -5   6   18.12    0.61
  -7  -5   6   18.10    0.62
  -7  -5   6   18.18    0.60
  -7  -5   6   17.77    0.65
   6   5  -6   20.78    0.69
  -6  -5   6   20.91    0.65
  -6  -5   6   18.01    0.70
  -6  -5   6   21.10    0.68
  -6  -5   6   21.50    0.68
   5   5  -6    0.91    0.15
  -5  -5   6    1.13    0.17
  -5  -5   6    1.02    0.15
   4   5  -6   15.66    0.50
   4   5  -6   16.43    0.53
  -4  -5   6   15.65    0.52
  -4  -5   6   14.99    0.50
  -4  -5   6   14.45    0.51
   3   5  -6   11.51    0.42
   3   5  -6   11.79    0.40
  -3  -5   6   11.12    0.39
  -3  -5   6   11.32    0.42
  -3  -5   6   11.30    0.41
   2   5  -6    0.14    0.09
   2   5  -6    0.28    0.09
  -2  -5   6    0.29    0.09
  -2  -5   6    0.32    0.07
  -2  -5   6    0.36    0.10
  -2  -5   6    0.30    0.08
   1   5  -6    4.26    0.22
   1   5  -6    4.35    0.23
   1   5  -6    4.27    0.21
  -1  -5   6    4.34    0.20
  -1  -5   6    4.31    0.24
  -1  -5   6    4.54    0.21
  -1  -5   6    4.46    0.23
   0   5  -6   26.72    0.69
   0   5  -6   27.34    0.68
   0   5  -6   26.89    0.71
   0  -5   6   26.49    0.72
   0  -5   6   25.76    0.70
   0  -5   6   26.68    0.78
   0  -5   6   25.84    0.68
   0  -5   6   25.88    0.67
  -1   5  -6   40.00    0.95
  -1   5  -6   38.98    0.97
  -1   5  -6   39.49    0.96
   1  -5   6   40.84    0.99
   1  -5   6   39.92    0.94
   1  -5   6   39.86    0.99
   1  -5   6   39.54    0.97
   1  -5   6   39.11    1.07
  -2   5  -6    0.03    0.06
  -2   5  -6    0.05    0.06
  -2   5  -6    0.11    0.06
  -2   5  -6    0.04    0.09
   2  -5   6    0.01    0.10
   2  -5   6   -0.02    0.07
   2  -5   6    0.16    0.07
   2  -5   6    0.09    0.07
  -3   5  -6   18.05    0.47
  -3   5  -6   17.51    0.59
   3  -5   6   17.73    0.56
   3  -5   6   17.13    0.51
   3  -5   6   17.09    0.61
   3  -5   6   18.08    0.54
  -4   5  -6    6.31    0.35
  -4   5  -6    6.63    0.23
  -4   5  -6    5.74    0.30
   4  -5   6    6.48    0.32
   4  -5   6    5.90    0.35
   4  -5   6    6.32    0.27
  -5   5  -6    3.01    0.24
  -5   5  -6    2.79    0.14
  -5   5  -6    2.94    0.28
   5  -5   6    2.70    0.24
   5  -5   6    3.04    0.29
   5  -5   6    2.57    0.21
   5  -5   6    2.89    0.20
  -6   5  -6    6.24    0.38
  -6   5  -6    6.53    0.35
  -6   5  -6    6.64    0.21
   6  -5   6    6.30    0.31
   6  -5   6    6.83    0.40
   6  -5   6    6.24    0.35
   6  -5   6    6.61    0.33
  -7   5  -6    0.00    0.12
  -7   5  -6    0.08    0.15
   7  -5   6   -0.07    0.12
   7  -5   6    0.14    0.16
   7  -5   6    0.05    0.12
   8  -5   6    0.33    0.17
   8  -5   6    0.26    0.18
   8   4  -6    0.20    0.17
  -8  -4   6    0.13    0.16
  -8  -4   6    0.37    0.17
  -8  -4   6    0.17    0.13
  -8  -4   6    0.35    0.14
   7   4  -6    8.18    0.42
  -7  -4   6    8.61    0.41
  -7  -4   6    8.37    0.38
  -7  -4   6    8.59    0.38
  -7  -4   6    8.45    0.42
   6   4  -6    1.12    0.18
  -6  -4   6    0.92    0.15
  -6  -4   6    1.17    0.18
  -6  -4   6    1.15    0.16
  -6  -4   6    1.14    0.17
   5   4  -6    8.80    0.35
   5   4  -6    8.57    0.39
  -5  -4   6    9.29    0.36
  -5  -4   6    8.99    0.35
  -5  -4   6    9.16    0.39
  -5  -4   6    9.40    0.36
   4   4  -6   69.77    1.73
   4   4  -6   75.64    1.70
  -4  -4   6   72.07    1.72
  -4  -4   6   73.09    1.69
  -4  -4   6   71.69    1.73
  -4  -4   6   71.46    1.68
  -4  -4   6   76.32    1.71
   3   4  -6    5.78    0.26
   3   4  -6    5.66    0.27
  -3  -4   6    5.63    0.27
  -3  -4   6    5.91    0.26
  -3  -4   6    5.84    0.28
   2   4  -6    7.04    0.27
   2   4  -6    6.53    0.28
  -2  -4   6    6.91    0.27
  -2  -4   6    6.63    0.29
  -2  -4   6    7.14    0.29
   1   4  -6    1.13    0.13
   1   4  -6    1.45    0.13
   1   4  -6    1.38    0.13
  -1  -4   6    1.29    0.12
  -1  -4   6    1.44    0.15
  -1  -4   6    1.19    0.13
  -1  -4   6    1.43    0.11
   0   4  -6   14.31    0.41
   0   4  -6   13.97    0.43
   0   4  -6   14.16    0.41
   0  -4   6   14.89    0.49
   0  -4   6   14.32    0.45
   0  -4   6   13.67    0.40
   0  -4   6   13.96    0.43
   0  -4   6   13.91    0.40
  -1   4  -6    0.70    0.09
  -1   4  -6    0.94    0.10
  -1   4  -6    0.89    0.10
   1  -4   6    0.80    0.13
   1  -4   6    0.73    0.10
   1  -4   6    0.80    0.10
   1  -4   6    0.93    0.12
   1  -4   6    0.90    0.09
   1  -4   6    1.05    0.12
  -2   4  -6   34.94    0.84
  -2   4  -6   34.60    0.83
  -2   4  -6   35.37    0.83
   2  -4   6   35.14    0.87
   2  -4   6   35.58    0.88
   2  -4   6   33.48    0.94
  -3   4  -6   26.97    0.67
  -3   4  -6   27.66    0.79
  -3   4  -6   26.75    0.74
  -3   4  -6   26.64    0.65
   3  -4   6   27.02    0.71
   3  -4   6   27.19    0.80
   3  -4   6   28.09    0.75
   3  -4   6   28.48    0.71
  -4   4  -6    0.65    0.12
  -4   4  -6    0.21    0.06
  -4   4  -6    0.11    0.11
   4  -4   6    0.15    0.11
   4  -4   6    0.27    0.10
   4  -4   6    0.22    0.08
   4  -4   6    0.15    0.10
   4  -4   6    0.21    0.08
  -5   4  -6   10.86    0.42
  -5   4  -6   10.61    0.46
  -5   4  -6   10.81    0.30
   5  -4   6   11.05    0.38
   5  -4   6   10.58    0.39
   5  -4   6   10.32    0.41
   5  -4   6   10.02    0.45
  -6   4  -6    7.32    0.40
  -6   4  -6    8.17    0.37
   6  -4   6    8.21    0.35
   6  -4   6    7.72    0.37
   6  -4   6    7.94    0.41
   6  -4   6    7.47    0.33
  -7   4  -6    1.04    0.18
  -7   4  -6    1.08    0.21
   7  -4   6    1.04    0.18
   7  -4   6    1.39    0.22
   7  -4   6    1.33    0.18
   7  -4   6    1.41    0.18
  -8   4  -6    0.10    0.13
   8  -4   6   -0.01    0.12
   8  -4   6   -0.02    0.14
   8  -4   6    0.07    0.15
   9   3  -6    0.11    0.17
  -9  -3   6    0.21    0.17
  -9  -3   6    0.09    0.14
  -9  -3   6   -0.05    0.16
   8   3  -6    0.28    0.17
  -8  -3   6    0.32    0.17
  -8  -3   6    0.28    0.16
  -8  -3   6    0.31    0.14
   7   3  -6    0.74    0.17
  -7  -3   6    0.40    0.13
  -7  -3   6    0.53    0.14
  -7  -3   6    0.56    0.16
  -7  -3   6    0.42    0.15
   6   3  -6    3.65    0.29
  -6  -3   6    2.97    0.22
  -6  -3   6    3.03    0.25
  -6  -3   6    2.58    0.21
  -6  -3   6    2.79    0.24
   5   3  -6   27.51    0.81
   5   3  -6   28.48    0.75
  -5  -3   6   27.59    0.80
  -5  -3   6   28.80    0.80
  -5  -3   6   28.24    0.76
  -5  -3   6   28.50    0.78
  -5  -3   6   29.75    0.78
   4   3  -6    0.15    0.08
   4   3  -6    0.16    0.09
  -4  -3   6    0.16    0.09
  -4  -3   6    0.34    0.10
  -4  -3   6    0.45    0.10
  -4  -3   6    0.22    0.08
  -4  -3   6    0.18    0.08
   3   3  -6   20.51    0.57
   3   3  -6   19.91    0.59
  -3  -3   6   19.96    0.59
  -3  -3   6   20.67    0.56
  -3  -3   6   20.49    0.59
  -3  -3   6   21.12    0.55
  -3  -3   6   19.78    0.56
   2   3  -6   31.74    0.85
   2   3  -6   34.10    0.78
   2   3  -6   34.27    0.88
  -2  -3   6   32.47    0.86
  -2  -3   6   34.45    0.86
  -2  -3   6   34.04    0.83
  -2  -3   6   33.41    0.82
   1   3  -6   -0.02    0.05
   1   3  -6    0.10    0.06
   1   3  -6    0.04    0.05
   1   3  -6    0.01    0.06
  -1  -3   6    0.08    0.08
  -1  -3   6    0.00    0.05
  -1  -3   6    0.06    0.06
   0   3  -6    8.66    0.29
   0   3  -6    8.75    0.29
   0   3  -6    9.08    0.31
   0   3  -6    9.52    0.29
   0  -3   6    9.43    0.35
   0  -3   6    9.21    0.33
   0  -3   6    9.04    0.31
   0  -3   6    9.30    0.29
  -1   3  -6    0.04    0.05
  -1   3  -6    0.05    0.06
  -1   3  -6   -0.01    0.05
  -1   3  -6    0.08    0.05
  -1   3  -6    0.03    0.05
   1  -3   6    0.01    0.07
   1  -3   6    0.00    0.06
   1  -3   6    0.13    0.07
   1  -3   6    0.07    0.05
   1  -3   6    0.09    0.05
  -2   3  -6   25.21    0.63
  -2   3  -6   25.95    0.67
  -2   3  -6   24.52    0.62
  -2   3  -6   25.54    0.62
   2  -3   6   26.69    0.67
   2  -3   6   25.43    0.72
   2  -3   6   24.24    0.66
  -3   3  -6   16.75    0.49
  -3   3  -6   17.03    0.53
  -3   3  -6   16.30    0.42
  -3   3  -6   16.10    0.41
   3  -3   6   16.51    0.47
   3  -3   6   15.15    0.53
   3  -3   6   16.05    0.49
   3  -3   6   16.08    0.47
  -4   3  -6   40.19    0.93
  -4   3  -6   41.29    1.03
  -4   3  -6   39.99    1.06
   4  -3   6   39.69    0.99
   4  -3   6   40.40    0.99
   4  -3   6   39.90    1.07
   4  -3   6   39.68    1.03
   4  -3   6   41.46    0.99
  -5   3  -6   43.88    1.00
  -5   3  -6   46.80    1.17
  -5   3  -6   45.29    1.13
   5  -3   6   43.29    1.09
   5  -3   6   44.18    1.08
   5  -3   6   42.83    1.18
   5  -3   6   43.64    1.13
  -6   3  -6    0.26    0.11
  -6   3  -6    0.22    0.12
   6  -3   6    0.08    0.09
   6  -3   6    0.34    0.11
   6  -3   6    0.22    0.13
   6  -3   6    0.17    0.11
  -7   3  -6    5.25    0.43
  -7   3  -6    5.39    0.31
  -7   3  -6    5.18    0.31
   7  -3   6    5.03    0.31
   7  -3   6    5.58    0.36
   7  -3   6    4.91    0.29
  -8   3  -6    0.36    0.15
   8  -3   6    0.14    0.13
   8  -3   6    0.13    0.16
   9  -3   6    0.02    0.17
   9  -3   6    0.03    0.13
   9   2  -6    0.09    0.17
  -9  -2   6    0.13    0.17
  -9  -2   6    0.12    0.13
  -9  -2   6    0.14    0.17
   8   2  -6    1.20    0.22
  -8  -2   6    0.96    0.17
  -8  -2   6    1.42    0.22
  -8  -2   6    0.79    0.19
   7   2  -6    0.31    0.15
  -7  -2   6    0.30    0.12
  -7  -2   6    0.36    0.15
  -7  -2   6    0.28    0.14
  -7  -2   6    0.33    0.12
   6   2  -6    2.66    0.24
  -6  -2   6    2.24    0.20
  -6  -2   6    2.18    0.19
  -6  -2   6    2.47    0.22
  -6  -2   6    2.31    0.22
   5   2  -6   43.89    1.14
   5   2  -6   44.08    1.07
   5   2  -6   45.25    1.11
  -5  -2   6   43.67    1.12
  -5  -2   6   45.78    1.10
  -5  -2   6   43.92    1.13
  -5  -2   6   43.46    1.12
  -5  -2   6   45.04    1.10
   4   2  -6    4.87    0.23
   4   2  -6    4.98    0.25
   4   2  -6    5.02    0.26
  -4  -2   6    5.22    0.24
  -4  -2   6    5.42    0.25
  -4  -2   6    4.89    0.24
  -4  -2   6    4.78    0.23
  -4  -2   6    5.30    0.26
   3   2  -6   64.88    1.58
   3   2  -6   68.49    1.56
  -3  -2   6   68.06    1.59
  -3  -2   6   67.66    1.55
  -3  -2   6   69.31    1.56
  -3  -2   6   69.14    1.56
  -3  -2   6   66.53    1.58
   2   2  -6   24.75    0.65
   2   2  -6   24.56    0.64
   2   2  -6   24.56    0.66
   2   2  -6   25.47    0.59
  -2  -2   6   25.10    0.67
  -2  -2   6   24.53    0.66
  -2  -2   6   24.25    0.63
  -2  -2   6   24.30    0.64
   1   2  -6   52.46    1.20
   1   2  -6   50.45    1.19
   1   2  -6   53.05    1.16
   1   2  -6   49.23    1.21
  -1  -2   6   51.92    1.23
  -1  -2   6   53.70    1.19
  -1  -2   6   50.39    1.21
  -1  -2   6   51.90    1.20
  -1  -2   6   50.05    1.22
   0   2  -6   31.90    0.82
   0   2  -6   32.93    0.80
   0   2  -6   33.65    0.79
   0   2  -6   33.28    0.80
   0  -2   6   32.97    0.84
   0  -2   6   33.83    0.82
   0  -2   6   33.40    0.80
   0  -2   6   33.05    0.84
  -1   2  -6    1.48    0.11
  -1   2  -6    1.40    0.12
  -1   2  -6    1.11    0.10
  -1   2  -6    0.97    0.09
  -1   2  -6    1.28    0.11
   1  -2   6    0.96    0.12
   1  -2   6    1.31    0.14
   1  -2   6    1.16    0.10
   1  -2   6    1.26    0.11
   1  -2   6    1.33    0.13
  -2   2  -6   67.44    1.53
  -2   2  -6   69.95    1.52
  -2   2  -6   69.23    1.56
  -2   2  -6   67.03    1.51
   2  -2   6   69.39    1.47
   2  -2   6   66.28    1.55
   2  -2   6   69.68    1.54
   2  -2   6   68.83    1.57
   2  -2   6   64.56    1.60
  -3   2  -6   62.03    1.40
  -3   2  -6   61.63    1.39
  -3   2  -6   64.48    1.38
  -3   2  -6   62.17    1.46
   3  -2   6   63.18    1.45
   3  -2   6   60.53    1.50
   3  -2   6   64.41    1.45
  -4   2  -6   53.37    1.32
  -4   2  -6   55.40    1.31
  -4   2  -6   53.33    1.21
   4  -2   6   55.35    1.30
   4  -2   6   53.61    1.28
   4  -2   6   54.67    1.35
   4  -2   6   54.43    1.28
   4  -2   6   53.57    1.25
  -5   2  -6    4.04    0.15
  -5   2  -6    4.00    0.25
  -5   2  -6    4.32    0.24
   5  -2   6    4.06    0.20
   5  -2   6    4.15    0.27
   5  -2   6    4.07    0.22
   5  -2   6    3.87    0.23
  -6   2  -6   11.09    0.42
  -6   2  -6   11.57    0.44
  -6   2  -6   12.29    0.45
  -6   2  -6   11.84    0.30
   6  -2   6   10.90    0.42
   6  -2   6   10.79    0.40
   6  -2   6   10.82    0.46
  -7   2  -6    9.02    0.40
  -7   2  -6    8.86    0.38
   7  -2   6    9.04    0.44
   7  -2   6    8.43    0.37
   7  -2   6    8.76    0.38
  -8   2  -6    0.03    0.11
   8  -2   6    0.06    0.14
   8  -2   6    0.10    0.11
  -9   2  -6    2.77    0.27
   9  -2   6    2.88    0.27
   9  -2   6    2.83    0.31
   9   1  -6    0.10    0.17
  -9  -1   6    0.10    0.17
  -9  -1   6    0.13    0.16
  -9  -1   6    0.07    0.13
   8   1  -6    2.39    0.26
  -8  -1   6    2.36    0.25
  -8  -1   6    2.20    0.21
  -8  -1   6    2.76    0.29
   7   1  -6    0.02    0.12
  -7  -1   6   -0.03    0.10
  -7  -1   6   -0.05    0.11
  -7  -1   6    0.05    0.12
   6   1  -6    2.81    0.22
   6   1  -6    3.15    0.25
  -6  -1   6    2.93    0.21
  -6  -1   6    2.61    0.21
  -6  -1   6    3.04    0.24
  -6  -1   6    2.88    0.24
   5   1  -6    8.93    0.36
   5   1  -6    8.34    0.34
  -5  -1   6    8.34    0.32
  -5  -1   6    8.49    0.35
  -5  -1   6    9.14    0.34
  -5  -1   6    8.18    0.32
  -5  -1   6    8.16    0.34
   4   1  -6   22.81    0.64
   4   1  -6   22.08    0.64
   4   1  -6   22.71    0.59
  -4  -1   6   21.92    0.61
  -4  -1   6   21.65    0.63
  -4  -1   6   22.35    0.63
  -4  -1   6   22.17    0.63
  -4  -1   6   22.78    0.61
   3   1  -6    4.70    0.22
   3   1  -6    4.84    0.21
   3   1  -6    4.60    0.23
  -3  -1   6    4.82    0.21
  -3  -1   6    4.87    0.23
  -3  -1   6    4.51    0.23
  -3  -1   6    4.51    0.22
  -3  -1   6    5.17    0.22
   2   1  -6   32.67    0.73
   2   1  -6   33.22    0.83
   2   1  -6   32.30    0.80
  -2  -1   6   31.27    0.79
  -2  -1   6   32.59    0.80
  -2  -1   6   33.03    0.83
  -2  -1   6   31.26    0.81
   1   1  -6   88.28    1.98
   1   1  -6   91.37    1.94
   1   1  -6   87.98    2.00
   1   1  -6   88.96    1.97
  -1  -1   6   91.06    1.97
  -1  -1   6   90.41    1.98
  -1  -1   6   86.68    2.00
  -1  -1   6   87.04    1.98
  -1  -1   6   88.17    2.00
   0   1  -6    8.55    0.27
   0   1  -6    8.43    0.29
   0   1  -6    8.40    0.27
   0   1  -6    8.59    0.28
   0  -1   6    8.78    0.30
   0  -1   6    8.60    0.28
   0  -1   6    9.19    0.30
   0  -1   6    8.76    0.31
  -1   1  -6    0.56    0.08
  -1   1  -6    0.65    0.09
  -1   1  -6    0.56    0.08
  -1   1  -6    0.57    0.08
  -1   1  -6    0.69    0.08
   1  -1   6    0.79    0.09
   1  -1   6    0.95    0.09
   1  -1   6    0.54    0.09
   1  -1   6    0.44    0.09
   1  -1   6    0.53    0.09
  -2   1  -6   90.72    2.03
  -2   1  -6   93.03    2.07
  -2   1  -6   93.30    2.04
  -2   1  -6   91.71    2.03
  -2   1  -6   93.94    2.04
   2  -1   6   96.71    2.00
   2  -1   6   92.64    2.08
   2  -1   6   93.16    2.05
   2  -1   6   91.51    2.06
   2  -1   6   91.01    2.10
  -3   1  -6   26.45    0.65
  -3   1  -6   28.14    0.64
  -3   1  -6   27.03    0.71
  -3   1  -6   26.76    0.65
   3  -1   6   25.61    0.72
   3  -1   6   27.78    0.70
   3  -1   6   27.22    0.69
  -4   1  -6    2.91    0.19
  -4   1  -6    2.69    0.13
   4  -1   6    2.57    0.15
   4  -1   6    2.89    0.17
   4  -1   6    2.83    0.20
   4  -1   6    2.76    0.15
   4  -1   6    2.76    0.17
  -5   1  -6   20.40    0.49
  -5   1  -6   19.17    0.59
  -5   1  -6   20.13    0.59
  -5   1  -6   19.06    0.58
   5  -1   6   19.95    0.62
   5  -1   6   20.54    0.57
   5  -1   6   19.45    0.56
   5  -1   6   19.76    0.55
  -6   1  -6   37.85    0.99
  -6   1  -6   37.04    0.97
  -6   1  -6   37.53    0.84
   6  -1   6   35.38    0.95
   6  -1   6   37.21    1.03
   6  -1   6   37.26    0.96
  -7   1  -6    2.51    0.23
  -7   1  -6    2.26    0.11
  -7   1  -6    2.74    0.24
   7  -1   6    2.42    0.25
   7  -1   6    2.53    0.22
  -8   1  -6    8.88    0.41
   8  -1   6    9.82    0.47
   8  -1   6    9.50    0.41
  -9   1  -6    0.66    0.17
   9  -1   6    0.28    0.15
   9  -1   6    0.59    0.19
   9   0  -6    5.81    0.41
  -9   0   6    5.60    0.38
  -9   0   6    5.54    0.33
  -9   0   6    5.19    0.41
   8   0  -6    6.83    0.41
  -8   0   6    6.15    0.37
  -8   0   6    6.23    0.40
  -8   0   6    6.59    0.33
   7   0  -6    0.01    0.12
   7   0  -6   -0.02    0.12
  -7   0   6   -0.07    0.11
  -7   0   6    0.00    0.09
  -7   0   6   -0.21    0.11
   6   0  -6    4.46    0.30
   6   0  -6    5.46    0.29
  -6   0   6    5.14    0.26
  -6   0   6    5.75    0.29
  -6   0   6    5.70    0.28
  -6   0   6    5.07    0.24
  -6   0   6    5.36    0.31
   5   0  -6    0.07    0.09
   5   0  -6    0.03    0.10
  -5   0   6    0.05    0.08
  -5   0   6   -0.04    0.06
  -5   0   6    0.06    0.07
  -5   0   6    0.06    0.09
  -5   0   6    0.09    0.09
   4   0  -6    5.60    0.22
   4   0  -6    5.93    0.27
   4   0  -6    6.33    0.27
  -4   0   6    6.21    0.25
  -4   0   6    5.97    0.25
  -4   0   6    5.99    0.26
  -4   0   6    6.28    0.28
  -4   0   6    5.67    0.25
   3   0  -6   21.19    0.61
   3   0  -6   22.29    0.60
   3   0  -6   21.97    0.58
  -3   0   6   22.42    0.59
  -3   0   6   21.95    0.61
  -3   0   6   22.64    0.59
  -3   0   6   22.39    0.61
  -3   0   6   22.15    0.61
   2   0  -6  153.63    3.40
   2   0  -6  154.54    3.44
   2   0  -6  160.87    3.34
   2   0  -6  155.72    3.40
  -2   0   6  155.26    3.42
  -2   0   6  157.38    3.43
  -2   0   6  158.63    3.40
  -2   0   6  156.98    3.41
  -2   0   6  157.84    3.42
   1   0  -6  106.36    2.28
   1   0  -6  105.31    2.24
   1   0  -6  103.40    2.31
   1   0  -6  101.61    2.27
  -1   0   6  103.98    2.29
  -1   0   6  103.10    2.26
  -1   0   6  101.68    2.30
  -1   0   6  100.15    2.30
  -1   0   6  105.74    2.28
   0   0  -6    6.70    0.22
   0   0  -6    6.31    0.23
   0   0  -6    6.63    0.23
   0   0  -6    6.53    0.24
   0   0   6    6.55    0.23
   0   0   6    6.42    0.25
   0   0   6    6.73    0.24
  -1   0  -6   15.90    0.43
  -1   0  -6   16.62    0.45
  -1   0  -6   15.98    0.42
  -1   0  -6   15.70    0.43
   1   0   6   16.13    0.44
   1   0   6   15.55    0.45
   1   0   6   15.43    0.44
   1   0   6   15.13    0.44
   1   0   6   16.15    0.42
  -2   0  -6    0.64    0.08
  -2   0  -6    0.62    0.09
  -2   0  -6    0.59    0.08
  -2   0  -6    0.53    0.07
  -2   0  -6    0.62    0.07
   2   0   6    0.49    0.08
   2   0   6    0.55    0.08
   2   0   6    0.49    0.09
   2   0   6    0.39    0.07
  -3   0  -6    2.41    0.12
  -3   0  -6    2.54    0.12
  -3   0  -6    2.39    0.12
  -3   0  -6    2.58    0.15
   3   0   6    2.40    0.17
   3   0   6    2.27    0.13
   3   0   6    2.41    0.15
   3   0   6    2.59    0.15
  -4   0  -6    1.53    0.15
  -4   0  -6    1.53    0.08
  -4   0  -6    1.52    0.14
  -4   0  -6    1.33    0.10
   4   0   6    1.32    0.12
   4   0   6    1.38    0.15
   4   0   6    1.60    0.13
   4   0   6    1.65    0.15
  -5   0  -6   12.49    0.34
  -5   0  -6   14.08    0.44
  -5   0  -6   12.10    0.42
   5   0   6   13.93    0.47
   5   0   6   12.82    0.41
   5   0   6   12.68    0.41
  -6   0  -6    1.88    0.18
  -6   0  -6    1.67    0.18
  -6   0  -6    1.98    0.11
   6   0   6    2.00    0.21
   6   0   6    1.94    0.18
   6   0   6    2.26    0.18
  -7   0  -6   11.91    0.45
  -7   0  -6   11.83    0.45
  -7   0  -6   12.33    0.33
   7   0   6   12.68    0.50
   7   0   6   11.68    0.44
  -8   0  -6    6.76    0.35
  -8   0  -6    7.11    0.22
   8   0   6    7.49    0.36
   8   0   6    7.08    0.40
  -9   0  -6    1.36    0.21
   9   0   6    1.15    0.19
   9   0   6    1.20    0.23
   8  -1  -6    0.00    0.15
  -8   1   6    0.06    0.15
  -8   1   6    0.20    0.14
  -8   1   6    0.07    0.11
   7  -1  -6    6.64    0.37
   7  -1  -6    6.59    0.36
  -7   1   6    6.61    0.38
  -7   1   6    7.05    0.36
  -7   1   6    7.06    0.32
   6  -1  -6   12.74    0.47
   6  -1  -6   12.03    0.47
  -6   1   6   12.46    0.40
  -6   1   6   12.30    0.48
  -6   1   6   13.38    0.44
  -6   1   6   11.95    0.45
   5  -1  -6    1.99    0.19
   5  -1  -6    1.65    0.18
  -5   1   6    1.97    0.15
  -5   1   6    1.69    0.16
  -5   1   6    1.93    0.20
  -5   1   6    1.40    0.15
  -5   1   6    1.68    0.16
   4  -1  -6    4.00    0.22
   4  -1  -6    4.02    0.23
   4  -1  -6    4.01    0.17
  -4   1   6    3.65    0.20
  -4   1   6    3.78    0.20
  -4   1   6    3.87    0.20
  -4   1   6    3.69    0.21
  -4   1   6    3.93    0.23
   3  -1  -6   40.96    0.99
   3  -1  -6   41.96    1.02
   3  -1  -6   41.59    0.95
   3  -1  -6   40.18    1.01
  -3   1   6   41.12    0.98
  -3   1   6   40.36    0.98
  -3   1   6   40.04    0.98
  -3   1   6   39.43    0.99
  -3   1   6   38.54    1.00
   2  -1  -6    8.91    0.25
   2  -1  -6    8.86    0.29
   2  -1  -6    9.15    0.32
   2  -1  -6    8.89    0.28
  -2   1   6    8.70    0.30
  -2   1   6    8.53    0.31
  -2   1   6    9.20    0.31
  -2   1   6    8.43    0.30
  -2   1   6    9.25    0.32
   1  -1  -6    2.07    0.14
   1  -1  -6    2.16    0.13
   1  -1  -6    2.07    0.11
   1  -1  -6    1.91    0.13
   1  -1  -6    1.97    0.12
  -1   1   6    2.02    0.13
  -1   1   6    1.98    0.14
  -1   1   6    1.94    0.14
  -1   1   6    1.97    0.11
  -1   1   6    1.93    0.15
   0  -1  -6   51.28    1.16
   0  -1  -6   51.86    1.13
   0  -1  -6   50.83    1.17
   0  -1  -6   51.78    1.16
   0  -1  -6   49.53    1.19
   0   1   6   50.34    1.19
   0   1   6   49.30    1.17
   0   1   6   50.56    1.19
   0   1   6   51.62    1.18
   0   1   6   50.16    1.14
  -1  -1  -6   17.03    0.45
  -1  -1  -6   16.45    0.46
  -1  -1  -6   16.47    0.45
  -1  -1  -6   17.16    0.46
   1   1   6   17.18    0.47
   1   1   6   16.97    0.47
   1   1   6   16.92    0.46
   1   1   6   16.58    0.45
   1   1   6   17.13    0.45
  -2  -1  -6    6.53    0.23
  -2  -1  -6    6.51    0.23
  -2  -1  -6    6.16    0.22
  -2  -1  -6    6.51    0.23
  -2  -1  -6    5.95    0.24
   2   1   6    6.53    0.24
   2   1   6    6.73    0.23
   2   1   6    6.61    0.21
   2   1   6    6.16    0.23
   2   1   6    6.39    0.24
  -3  -1  -6   28.14    0.68
  -3  -1  -6   28.69    0.79
  -3  -1  -6   28.26    0.71
  -3  -1  -6   28.27    0.68
  -3  -1  -6   27.67    0.72
  -3  -1  -6   27.49    0.68
   3   1   6   28.85    0.70
   3   1   6   28.01    0.71
   3   1   6   28.25    0.70
   3   1   6   27.83    0.71
   3   1   6   27.09    0.72
   3   1   6   28.99    0.64
  -4  -1  -6    0.34    0.07
  -4  -1  -6    0.37    0.06
  -4  -1  -6    0.24    0.08
  -4  -1  -6    0.32    0.06
  -4  -1  -6    0.37    0.09
   4   1   6    0.25    0.07
   4   1   6    0.39    0.09
   4   1   6    0.21    0.08
   4   1   6    0.23    0.07
  -5  -1  -6   17.37    0.45
  -5  -1  -6   18.37    0.54
  -5  -1  -6   17.50    0.52
   5   1   6   16.88    0.55
   5   1   6   16.98    0.51
   5   1   6   17.38    0.52
  -6  -1  -6    3.86    0.17
  -6  -1  -6    4.04    0.24
  -6  -1  -6    4.03    0.24
   6   1   6    4.04    0.24
   6   1   6    4.25    0.23
   6   1   6    3.93    0.27
  -7  -1  -6   29.88    0.83
  -7  -1  -6   30.08    0.71
  -7  -1  -6   28.83    0.82
   7   1   6   29.25    0.82
   7   1   6   29.98    0.89
   7   1   6   30.42    0.84
  -8  -1  -6    2.38    0.15
  -8  -1  -6    2.09    0.22
   8   1   6    2.64    0.24
   8   1   6    2.39    0.26
  -9  -1  -6    1.54    0.22
  -9  -1  -6    1.73    0.14
   9   1   6    1.69    0.26
   9   1   6    1.89    0.23
   8  -2  -6   10.84    0.50
   8  -2  -6   12.04    0.53
  -8   2   6   10.49    0.53
   7  -2  -6   16.33    0.59
   7  -2  -6   15.86    0.59
  -7   2   6   16.28    0.61
  -7   2   6   15.60    0.52
  -7   2   6   16.36    0.56
   6  -2  -6    1.51    0.19
   6  -2  -6    1.44    0.19
  -6   2   6    1.64    0.18
  -6   2   6    1.12    0.18
  -6   2   6    1.65    0.17
   5  -2  -6    0.92    0.15
   5  -2  -6    0.70    0.13
  -5   2   6    0.82    0.13
  -5   2   6    0.75    0.10
  -5   2   6    0.82    0.15
  -5   2   6    0.83    0.12
  -5   2   6    0.78    0.12
   4  -2  -6    1.12    0.15
   4  -2  -6    1.02    0.13
  -4   2   6    1.40    0.14
  -4   2   6    1.31    0.14
  -4   2   6    1.03    0.12
  -4   2   6    1.07    0.15
  -4   2   6    1.10    0.13
   3  -2  -6    2.14    0.15
   3  -2  -6    2.30    0.18
   3  -2  -6    1.74    0.15
   3  -2  -6    2.01    0.12
  -3   2   6    2.10    0.17
  -3   2   6    2.04    0.15
  -3   2   6    2.28    0.16
  -3   2   6    1.99    0.15
  -3   2   6    2.10    0.15
   2  -2  -6    4.77    0.20
   2  -2  -6    4.71    0.22
   2  -2  -6    4.83    0.17
   2  -2  -6    5.08    0.20
   2  -2  -6    4.87    0.23
  -2   2   6    4.82    0.21
  -2   2   6    4.85    0.22
  -2   2   6    4.94    0.22
  -2   2   6    5.19    0.22
  -2   2   6    4.83    0.24
   1  -2  -6   89.25    1.92
   1  -2  -6   86.73    1.91
   1  -2  -6   87.16    1.93
   1  -2  -6   86.22    1.97
  -1   2   6   85.01    1.96
  -1   2   6   87.09    1.95
  -1   2   6   88.48    1.99
  -1   2   6   85.16    1.95
  -1   2   6   89.63    1.95
   0  -2  -6   76.00    1.68
   0  -2  -6   74.32    1.72
   0  -2  -6   77.65    1.69
   0  -2  -6   76.69    1.69
   0  -2  -6   76.56    1.65
   0   2   6   75.60    1.69
   0   2   6   73.33    1.70
   0   2   6   76.50    1.71
   0   2   6   75.63    1.64
   0   2   6   74.45    1.71
  -1  -2  -6   -0.04    0.05
  -1  -2  -6    0.03    0.05
  -1  -2  -6   -0.02    0.05
  -1  -2  -6    0.03    0.05
   1   2   6    0.10    0.06
   1   2   6    0.14    0.05
   1   2   6    0.02    0.05
   1   2   6    0.04    0.05
   1   2   6    0.01    0.04
  -2  -2  -6   81.56    1.82
  -2  -2  -6   81.21    1.82
  -2  -2  -6   81.50    1.84
  -2  -2  -6   82.00    1.81
  -2  -2  -6   81.73    1.83
   2   2   6   81.19    1.83
   2   2   6   83.07    1.90
   2   2   6   80.52    1.83
   2   2   6   82.96    1.83
   2   2   6   82.36    1.80
   2   2   6   82.39    1.81
  -3  -2  -6   24.70    0.67
  -3  -2  -6   25.75    0.64
  -3  -2  -6   26.15    0.70
  -3  -2  -6   25.71    0.66
  -3  -2  -6   25.67    0.63
  -3  -2  -6   26.19    0.64
   3   2   6   27.00    0.68
   3   2   6   25.38    0.66
   3   2   6   25.09    0.65
   3   2   6   26.39    0.61
   3   2   6   25.28    0.67
   3   2   6   25.14    0.64
  -4  -2  -6    4.62    0.18
  -4  -2  -6    4.50    0.19
  -4  -2  -6    4.64    0.23
  -4  -2  -6    4.51    0.18
   4   2   6    4.55    0.23
   4   2   6    4.23    0.20
   4   2   6    4.17    0.21
  -5  -2  -6    3.03    0.15
  -5  -2  -6    3.04    0.20
  -5  -2  -6    2.70    0.19
  -5  -2  -6    3.23    0.14
   5   2   6    3.33    0.20
   5   2   6    3.01    0.19
   5   2   6    3.19    0.22
  -6  -2  -6    0.87    0.10
  -6  -2  -6    0.76    0.13
  -6  -2  -6    0.64    0.12
   6   2   6    1.08    0.14
   6   2   6    0.76    0.13
   6   2   6    0.75    0.14
  -7  -2  -6    3.44    0.24
  -7  -2  -6    3.55    0.18
  -7  -2  -6    3.39    0.23
   7   2   6    3.30    0.25
   7   2   6    2.88    0.27
   7   2   6    3.68    0.26
  -8  -2  -6    5.20    0.30
  -8  -2  -6    4.87    0.22
   8   2   6    4.27    0.33
   8   2   6    5.18    0.31
  -9  -2  -6   14.31    0.42
  -9  -2  -6   14.07    0.57
   9   2   6   13.64    0.62
   9   2   6   15.05    0.56
   8  -3  -6    7.45    0.43
   8  -3  -6    7.46    0.42
  -8   3   6    7.59    0.46
   7  -3  -6    0.97    0.19
   7  -3  -6    0.59    0.16
  -7   3   6    0.84    0.14
  -7   3   6    1.10    0.21
   6  -3  -6    8.38    0.40
   6  -3  -6    8.80    0.40
  -6   3   6    8.17    0.41
  -6   3   6    8.03    0.34
   5  -3  -6   36.28    0.99
   5  -3  -6   36.60    0.98
  -5   3   6   37.28    0.93
  -5   3   6   35.23    1.00
  -5   3   6   37.46    0.90
   4  -3  -6    6.43    0.29
   4  -3  -6    5.85    0.30
  -4   3   6    6.05    0.31
  -4   3   6    6.26    0.27
  -4   3   6    6.40    0.25
  -4   3   6    6.25    0.26
  -4   3   6    6.93    0.28
   3  -3  -6    5.38    0.20
   3  -3  -6    5.79    0.25
   3  -3  -6    5.59    0.27
  -3   3   6    5.33    0.23
  -3   3   6    5.62    0.24
  -3   3   6    5.91    0.25
  -3   3   6    5.98    0.24
  -3   3   6    5.76    0.28
   2  -3  -6    2.45    0.13
   2  -3  -6    2.67    0.17
   2  -3  -6    2.39    0.14
   2  -3  -6    2.23    0.17
   2  -3  -6    2.48    0.15
  -2   3   6    2.21    0.15
  -2   3   6    2.27    0.16
  -2   3   6    2.83    0.17
  -2   3   6    2.82    0.16
   1  -3  -6   10.07    0.31
   1  -3  -6   10.31    0.30
   1  -3  -6   10.13    0.31
   1  -3  -6   10.32    0.34
   1  -3  -6   10.02    0.34
  -1   3   6   10.07    0.33
  -1   3   6   10.55    0.33
  -1   3   6    9.82    0.37
  -1   3   6   10.52    0.33
  -1   3   6   10.00    0.33
   0  -3  -6    1.32    0.11
   0  -3  -6    1.34    0.11
   0  -3  -6    1.49    0.11
   0  -3  -6    1.41    0.13
   0  -3  -6    1.34    0.09
   0   3   6    1.04    0.10
   0   3   6    1.34    0.11
   0   3   6    1.38    0.12
   0   3   6    1.24    0.11
   0   3   6    1.29    0.12
  -1  -3  -6   82.64    1.87
  -1  -3  -6   81.94    1.90
  -1  -3  -6   84.57    1.87
  -1  -3  -6   84.27    1.88
   1   3   6   85.94    1.87
   1   3   6   85.96    1.84
   1   3   6   84.67    1.87
   1   3   6   84.53    1.88
   1   3   6   85.42    1.85
   1   3   6   83.34    1.89
   1   3   6   84.34    1.92
  -2  -3  -6   58.86    1.35
  -2  -3  -6   58.13    1.37
  -2  -3  -6   59.88    1.35
  -2  -3  -6   58.14    1.35
   2   3   6   60.65    1.36
   2   3   6   59.96    1.33
   2   3   6   58.54    1.34
   2   3   6   59.52    1.39
   2   3   6   59.99    1.35
   2   3   6   58.96    1.37
  -3  -3  -6    0.04    0.05
  -3  -3  -6    0.00    0.05
  -3  -3  -6    0.04    0.07
  -3  -3  -6    0.09    0.06
  -3  -3  -6    0.04    0.05
   3   3   6    0.06    0.06
   3   3   6   -0.03    0.05
   3   3   6    0.07    0.07
   3   3   6   -0.07    0.05
   3   3   6   -0.02    0.06
   3   3   6    0.00    0.04
  -4  -3  -6   56.30    1.30
  -4  -3  -6   54.58    1.27
  -4  -3  -6   54.38    1.27
  -4  -3  -6   56.05    1.26
  -4  -3  -6   55.15    1.31
   4   3   6   53.39    1.24
   4   3   6   55.39    1.28
   4   3   6   55.68    1.32
   4   3   6   55.26    1.32
  -5  -3  -6    7.77    0.27
  -5  -3  -6    8.04    0.31
  -5  -3  -6    8.23    0.32
  -5  -3  -6    7.94    0.27
  -5  -3  -6    7.77    0.28
   5   3   6    8.12    0.30
   5   3   6    8.23    0.33
   5   3   6    7.91    0.34
  -6  -3  -6    1.97    0.18
  -6  -3  -6    1.59    0.12
  -6  -3  -6    1.83    0.15
  -6  -3  -6    1.80    0.18
   6   3   6    2.11    0.21
   6   3   6    2.30    0.19
   6   3   6    1.74    0.19
  -7  -3  -6    5.78    0.29
  -7  -3  -6    4.95    0.28
  -7  -3  -6    5.58    0.24
   7   3   6    4.97    0.28
   7   3   6    5.66    0.32
   7   3   6    5.17    0.33
  -8  -3  -6    4.58    0.28
  -8  -3  -6    4.43    0.23
   8   3   6    5.24    0.33
   8   3   6    4.40    0.34
   8   3   6    4.88    0.31
  -9  -3  -6    3.09    0.20
  -9  -3  -6    2.53    0.27
   9   3   6    3.29    0.33
   9   3   6    3.04    0.28
   8  -4  -6    0.62    0.31
   8  -4  -6    1.04    0.23
  -8   4   6    0.96    0.24
  -8   4   6    0.55    0.13
   7  -4  -6    3.74    0.31
   7  -4  -6    4.40    0.34
  -7   4   6    3.88    0.35
  -7   4   6    4.29    0.25
   6  -4  -6   21.74    0.69
   6  -4  -6   21.42    0.71
  -6   4   6   20.84    0.62
  -6   4   6   21.32    0.73
   5  -4  -6    1.57    0.19
   5  -4  -6    1.74    0.19
  -5   4   6    1.96    0.22
  -5   4   6    1.59    0.16
  -5   4   6    1.80    0.14
   4  -4  -6    8.29    0.36
   4  -4  -6    8.77    0.35
  -4   4   6    8.71    0.33
  -4   4   6    8.89    0.33
  -4   4   6    8.30    0.38
  -4   4   6    8.36    0.30
   3  -4  -6    7.04    0.31
   3  -4  -6    7.28    0.26
   3  -4  -6    7.03    0.28
  -3   4   6    6.93    0.29
  -3   4   6    7.02    0.28
  -3   4   6    6.96    0.27
  -3   4   6    7.27    0.34
   2  -4  -6    9.77    0.30
   2  -4  -6    9.09    0.34
   2  -4  -6    9.81    0.35
   2  -4  -6    9.66    0.32
   2  -4  -6    9.90    0.31
  -2   4   6   10.23    0.33
  -2   4   6    9.28    0.39
  -2   4   6    9.90    0.34
  -2   4   6    9.80    0.33
   1  -4  -6    0.14    0.07
   1  -4  -6    0.08    0.06
   1  -4  -6    0.15    0.06
   1  -4  -6    0.15    0.07
   1  -4  -6    0.13    0.06
  -1   4   6    0.09    0.09
  -1   4   6    0.26    0.07
  -1   4   6    0.02    0.06
  -1   4   6    0.19    0.07
  -1   4   6    0.17    0.06
   0  -4  -6   37.22    0.87
   0  -4  -6   35.53    0.89
   0  -4  -6   34.35    0.86
   0  -4  -6   34.67    0.81
   0  -4  -6   36.07    0.86
   0   4   6   34.43    0.88
   0   4   6   34.67    0.88
   0   4   6   36.78    0.82
   0   4   6   35.87    0.84
   0   4   6   36.59    0.86
   0   4   6   34.60    0.92
  -1  -4  -6   13.80    0.41
  -1  -4  -6   14.16    0.40
  -1  -4  -6   14.42    0.42
  -1  -4  -6   14.38    0.40
  -1  -4  -6   13.66    0.42
   1   4   6   14.38    0.42
   1   4   6   14.52    0.39
   1   4   6   14.04    0.45
   1   4   6   13.56    0.40
   1   4   6   14.40    0.37
   1   4   6   14.08    0.43
  -2  -4  -6    0.15    0.07
  -2  -4  -6    0.12    0.06
  -2  -4  -6   -0.05    0.05
  -2  -4  -6    0.11    0.07
  -2  -4  -6    0.31    0.08
   2   4   6    0.08    0.06
   2   4   6    0.19    0.08
   2   4   6    0.17    0.06
   2   4   6    0.14    0.07
   2   4   6    0.09    0.06
   2   4   6    0.11    0.06
  -3  -4  -6  103.99    2.29
  -3  -4  -6  102.38    2.30
  -3  -4  -6  105.83    2.28
  -3  -4  -6  102.55    2.29
  -3  -4  -6  104.43    2.31
   3   4   6  103.22    2.31
   3   4   6   99.71    2.32
   3   4   6  104.71    2.30
   3   4   6  101.84    2.26
   3   4   6  103.83    2.27
  -4  -4  -6   38.77    0.97
  -4  -4  -6   39.77    0.98
  -4  -4  -6   40.37    0.95
  -4  -4  -6   39.76    0.95
  -4  -4  -6   39.77    0.96
   4   4   6   38.46    0.99
   4   4   6   37.70    0.99
   4   4   6   38.63    0.92
   4   4   6   40.02    0.95
  -5  -4  -6   -0.01    0.06
  -5  -4  -6   -0.02    0.06
  -5  -4  -6    0.04    0.08
  -5  -4  -6    0.02    0.08
  -5  -4  -6    0.02    0.07
   5   4   6    0.12    0.08
   5   4   6   -0.06    0.09
   5   4   6    0.18    0.10
  -6  -4  -6    4.32    0.25
  -6  -4  -6    4.57    0.22
  -6  -4  -6    4.47    0.26
  -6  -4  -6    4.53    0.21
   6   4   6    4.49    0.28
   6   4   6    4.27    0.27
   6   4   6    4.57    0.25
  -7  -4  -6   -0.05    0.07
  -7  -4  -6    0.05    0.11
  -7  -4  -6   -0.02    0.09
   7   4   6    0.08    0.13
   7   4   6    0.10    0.12
   7   4   6   -0.10    0.09
  -8  -4  -6    7.80    0.40
  -8  -4  -6    7.71    0.32
  -8  -4  -6    8.17    0.37
   8   4   6    7.53    0.41
   8   4   6    7.83    0.37
  -9  -4  -6    0.42    0.11
  -9  -4  -6    0.72    0.19
   9   4   6    0.48    0.17
   7  -5  -6    4.48    0.36
   7  -5  -6    4.03    0.33
  -7   5   6    4.31    0.36
  -7   5   6    4.52    0.25
   6  -5  -6    1.31    0.20
   6  -5  -6    1.16    0.19
  -6   5   6    1.22    0.15
  -6   5   6    1.45    0.23
   5  -5  -6   11.88    0.50
   5  -5  -6   12.76    0.47
  -5   5   6   12.46    0.42
  -5   5   6   12.63    0.52
   4  -5  -6   33.05    0.90
   4  -5  -6   32.77    0.87
  -4   5   6   31.52    0.83
  -4   5   6   31.43    0.80
  -4   5   6   31.03    0.92
   3  -5  -6    0.48    0.10
   3  -5  -6    0.75    0.14
   3  -5  -6    0.47    0.11
  -3   5   6    0.62    0.15
  -3   5   6    0.59    0.11
  -3   5   6    0.47    0.09
  -3   5   6    0.49    0.10
   2  -5  -6   56.48    1.34
   2  -5  -6   54.36    1.27
   2  -5  -6   56.28    1.30
   2  -5  -6   55.09    1.29
   2  -5  -6   54.88    1.45
  -2   5   6   55.73    1.30
  -2   5   6   56.65    1.31
  -2   5   6   53.54    1.38
  -2   5   6   55.69    1.32
   1  -5  -6   11.08    0.35
   1  -5  -6   10.54    0.33
   1  -5  -6   10.44    0.37
   1  -5  -6   10.54    0.37
   1  -5  -6   10.63    0.34
   1  -5  -6   11.59    0.33
  -1   5   6   10.80    0.35
  -1   5   6   10.55    0.41
  -1   5   6   10.76    0.37
  -1   5   6   10.82    0.36
   0  -5  -6    3.74    0.19
   0  -5  -6    3.45    0.15
   0  -5  -6    3.58    0.20
   0  -5  -6    3.68    0.19
   0  -5  -6    3.60    0.18
   0  -5  -6    3.95    0.18
   0   5   6    3.47    0.24
   0   5   6    3.65    0.19
   0   5   6    3.83    0.20
   0   5   6    3.89    0.19
  -1  -5  -6    0.30    0.08
  -1  -5  -6    0.36    0.08
  -1  -5  -6    0.42    0.09
  -1  -5  -6    0.41    0.09
  -1  -5  -6    0.48    0.08
   1   5   6    0.53    0.12
   1   5   6    0.55    0.09
   1   5   6    0.58    0.12
   1   5   6    0.48    0.09
   1   5   6    0.56    0.07
  -2  -5  -6   35.13    0.90
  -2  -5  -6   34.71    0.88
  -2  -5  -6   35.52    0.84
  -2  -5  -6   36.62    0.87
  -2  -5  -6   33.91    0.86
  -2  -5  -6   34.63    0.87
   2   5   6   35.91    0.90
   2   5   6   35.92    0.82
   2   5   6   37.33    0.88
   2   5   6   36.61    0.85
   2   5   6   34.22    0.91
  -3  -5  -6   90.08    2.00
  -3  -5  -6   88.17    2.01
  -3  -5  -6   88.86    2.03
  -3  -5  -6   87.77    2.01
  -3  -5  -6   90.23    2.03
   3   5   6   91.79    2.00
   3   5   6   89.05    2.05
   3   5   6   90.51    1.97
   3   5   6   87.25    2.03
  -4  -5  -6    0.09    0.07
  -4  -5  -6   -0.05    0.07
  -4  -5  -6   -0.03    0.06
  -4  -5  -6   -0.02    0.08
  -4  -5  -6    0.05    0.09
   4   5   6    0.07    0.07
   4   5   6    0.02    0.09
   4   5   6    0.01    0.08
   4   5   6    0.01    0.06
  -5  -5  -6    4.03    0.22
  -5  -5  -6    3.60    0.22
  -5  -5  -6    4.07    0.24
  -5  -5  -6    4.00    0.21
  -5  -5  -6    4.16    0.21
   5   5   6    4.04    0.26
   5   5   6    3.86    0.21
  -6  -5  -6    7.44    0.30
  -6  -5  -6    7.57    0.33
  -6  -5  -6    6.94    0.32
  -6  -5  -6    7.66    0.30
  -6  -5  -6    7.57    0.31
   6   5   6    8.07    0.37
   6   5   6    7.40    0.32
  -7  -5  -6    0.12    0.12
  -7  -5  -6    0.12    0.10
  -7  -5  -6   -0.01    0.10
   7   5   6    0.18    0.11
   7   5   6    0.11    0.12
  -8  -5  -6    0.11    0.13
  -8  -5  -6    0.08    0.10
  -8  -5  -6    0.08    0.12
   8   5   6   -0.08    0.12
   8   5   6    0.06    0.14
  -9  -5  -6    0.72    0.19
  -9  -5  -6    0.90    0.15
   9   5   6    1.24    0.20
   7  -6  -6    0.92    0.21
  -7   6   6    1.18    0.25
  -7   6   6    0.84    0.14
   6  -6  -6    5.43    0.35
   6  -6  -6    5.95    0.38
  -6   6   6    5.40    0.28
  -6   6   6    5.45    0.39
   5  -6  -6   23.07    0.72
   5  -6  -6   22.90    0.75
  -5   6   6   23.60    0.78
  -5   6   6   23.22    0.66
   4  -6  -6    9.59    0.42
   4  -6  -6    8.88    0.38
  -4   6   6    8.30    0.34
  -4   6   6    9.35    0.45
  -4   6   6    9.66    0.36
   3  -6  -6    1.18    0.15
   3  -6  -6    1.25    0.14
   3  -6  -6    1.28    0.17
  -3   6   6    1.05    0.13
  -3   6   6    1.60    0.21
  -3   6   6    1.18    0.13
  -3   6   6    1.34    0.16
   2  -6  -6    2.05    0.17
   2  -6  -6    1.58    0.13
   2  -6  -6    1.86    0.18
   2  -6  -6    2.02    0.17
  -2   6   6    1.94    0.21
  -2   6   6    2.00    0.16
  -2   6   6    1.96    0.17
  -2   6   6    2.13    0.16
   1  -6  -6   10.92    0.35
   1  -6  -6   11.42    0.35
   1  -6  -6   11.90    0.40
   1  -6  -6   10.82    0.39
   1  -6  -6   10.54    0.37
   1  -6  -6   11.13    0.35
  -1   6   6   10.99    0.38
  -1   6   6   11.23    0.38
  -1   6   6   11.02    0.44
  -1   6   6   11.82    0.38
   0  -6  -6    2.09    0.16
   0  -6  -6    2.22    0.17
   0  -6  -6    2.19    0.16
   0  -6  -6    2.15    0.16
   0  -6  -6    2.15    0.17
   0   6   6    2.26    0.16
   0   6   6    2.40    0.18
   0   6   6    2.22    0.17
   0   6   6    2.41    0.22
  -1  -6  -6    0.06    0.08
  -1  -6  -6    0.03    0.07
  -1  -6  -6    0.05    0.06
  -1  -6  -6    0.05    0.07
  -1  -6  -6    0.03    0.07
   1   6   6    0.01    0.07
   1   6   6    0.14    0.08
   1   6   6    0.01    0.09
  -2  -6  -6   33.50    0.84
  -2  -6  -6   33.11    0.83
  -2  -6  -6   32.34    0.83
  -2  -6  -6   32.23    0.85
   2   6   6   32.40    0.87
   2   6   6   31.50    0.85
   2   6   6   32.94    0.83
  -3  -6  -6    0.33    0.09
  -3  -6  -6    0.37    0.10
  -3  -6  -6    0.38    0.10
  -3  -6  -6    0.27    0.09
  -3  -6  -6    0.26    0.08
   3   6   6    0.43    0.11
   3   6   6    0.41    0.10
   3   6   6    0.24    0.09
  -4  -6  -6   27.83    0.76
  -4  -6  -6   29.95    0.76
  -4  -6  -6   28.36    0.75
  -4  -6  -6   27.58    0.75
  -4  -6  -6   28.43    0.77
   4   6   6   28.10    0.79
   4   6   6   27.18    0.77
   4   6   6   27.08    0.74
   4   6   6   28.96    0.74
  -5  -6  -6   42.39    1.03
  -5  -6  -6   41.55    1.04
  -5  -6  -6   40.64    1.02
  -5  -6  -6   40.28    1.03
   5   6   6   39.87    1.07
   5   6   6   39.52    0.99
  -6  -6  -6   -0.07    0.08
  -6  -6  -6   -0.06    0.10
  -6  -6  -6    0.07    0.09
  -6  -6  -6   -0.01    0.10
   6   6   6    0.11    0.12
   6   6   6   -0.02    0.09
  -7  -6  -6    7.43    0.41
  -7  -6  -6    6.38    0.33
  -7  -6  -6    6.83    0.35
  -7  -6  -6    5.91    0.30
   7   6   6    7.02    0.33
   7   6   6    6.94    0.39
  -8  -6  -6    1.13    0.16
  -8  -6  -6    1.41    0.21
  -8  -6  -6    1.49    0.19
   8   6   6    1.23    0.22
   8   6   6    1.15    0.18
  -9  -6  -6    0.09    0.15
  -9  -6  -6    0.12    0.12
   9   6   6    0.06    0.17
   9   6   6   -0.06    0.14
   6  -7  -6    0.01    0.16
   6  -7  -6   -0.06    0.15
  -6   7   6    0.08    0.10
  -6   7   6    0.14    0.18
   5  -7  -6    5.19    0.33
   5  -7  -6    5.05    0.36
  -5   7   6    5.49    0.28
  -5   7   6    5.38    0.39
   4  -7  -6   16.22    0.60
   4  -7  -6   16.79    0.56
  -4   7   6   15.96    0.51
  -4   7   6   15.77    0.62
   3  -7  -6   41.94    1.06
   3  -7  -6   43.29    1.08
   3  -7  -6   41.17    1.11
  -3   7   6   40.51    1.15
  -3   7   6   42.77    1.08
  -3   7   6   41.32    1.05
   2  -7  -6   23.02    0.68
   2  -7  -6   22.07    0.62
   2  -7  -6   21.24    0.63
  -2   7   6   21.55    0.71
  -2   7   6   22.30    0.65
  -2   7   6   21.32    0.62
  -2   7   6   22.11    0.64
   1  -7  -6    5.32    0.27
   1  -7  -6    4.97    0.26
   1  -7  -6    5.28    0.24
   1  -7  -6    5.22    0.23
   1  -7  -6    5.07    0.23
  -1   7   6    5.06    0.26
  -1   7   6    5.25    0.26
  -1   7   6    4.62    0.31
  -1   7   6    5.24    0.25
   0  -7  -6    2.74    0.20
   0  -7  -6    2.61    0.19
   0  -7  -6    2.89    0.19
   0  -7  -6    2.77    0.20
   0  -7  -6    2.72    0.18
   0   7   6    2.32    0.18
   0   7   6    3.17    0.21
   0   7   6    2.65    0.24
   0   7   6    2.95    0.20
  -1  -7  -6    8.20    0.32
  -1  -7  -6    8.09    0.34
  -1  -7  -6    7.69    0.33
  -1  -7  -6    8.52    0.32
  -1  -7  -6    8.14    0.33
   1   7   6    7.97    0.35
   1   7   6    8.76    0.34
   1   7   6    8.91    0.34
  -2  -7  -6    7.01    0.30
  -2  -7  -6    6.75    0.30
  -2  -7  -6    7.22    0.30
  -2  -7  -6    6.44    0.30
   2   7   6    7.33    0.31
   2   7   6    7.71    0.34
   2   7   6    7.82    0.31
  -3  -7  -6    0.11    0.09
  -3  -7  -6    0.23    0.11
  -3  -7  -6   -0.03    0.08
  -3  -7  -6    0.08    0.09
   3   7   6    0.04    0.08
   3   7   6   -0.04    0.08
   3   7   6    0.15    0.11
  -4  -7  -6   22.08    0.64
  -4  -7  -6   22.21    0.64
  -4  -7  -6   20.56    0.75
  -4  -7  -6   21.71    0.64
   4   7   6   22.55    0.63
   4   7   6   22.80    0.68
  -5  -7  -6    0.05    0.10
  -5  -7  -6    0.18    0.11
  -5  -7  -6    0.02    0.09
  -5  -7  -6    0.23    0.11
   5   7   6    0.11    0.12
   5   7   6    0.17    0.09
  -6  -7  -6   14.07    0.49
  -6  -7  -6   13.42    0.48
  -6  -7  -6   14.65    0.50
  -6  -7  -6   14.14    0.50
  -6  -7  -6   14.40    0.50
   6   7   6   14.34    0.55
  -7  -7  -6   19.28    0.61
  -7  -7  -6   19.96    0.63
  -7  -7  -6   18.94    0.64
  -7  -7  -6   19.97    0.64
   7   7   6   19.84    0.69
  -8  -7  -6    1.21    0.20
  -8  -7  -6    1.51    0.21
  -8  -7  -6    1.12    0.18
   8   7   6    1.37    0.23
   8   7   6    0.90    0.21
   6  -8  -6    0.70    0.20
  -6   8   6    0.36    0.12
  -6   8   6    0.39    0.21
   5  -8  -6    3.08    0.31
   5  -8  -6    2.51    0.26
  -5   8   6    2.05    0.20
  -5   8   6    2.70    0.31
   4  -8  -6   15.81    0.60
   4  -8  -6   14.94    0.55
  -4   8   6   15.68    0.63
  -4   8   6   15.35    0.51
   3  -8  -6   13.07    0.47
   3  -8  -6   13.17    0.51
   3  -8  -6   12.78    0.47
  -3   8   6   13.64    0.56
  -3   8   6   12.81    0.45
  -3   8   6   13.16    0.47
   2  -8  -6    0.17    0.10
   2  -8  -6    0.01    0.11
   2  -8  -6    0.13    0.11
  -2   8   6    0.16    0.09
  -2   8   6    0.07    0.10
  -2   8   6    0.04    0.13
   1  -8  -6   28.39    0.76
   1  -8  -6   28.91    0.80
   1  -8  -6   27.85    0.80
   1  -8  -6   28.58    0.75
  -1   8   6   28.74    0.80
  -1   8   6   30.08    0.79
  -1   8   6   28.31    0.85
   0  -8  -6   10.30    0.38
   0  -8  -6    9.94    0.40
   0  -8  -6   10.40    0.38
   0  -8  -6   10.59    0.37
   0  -8  -6   10.09    0.40
   0   8   6   10.40    0.44
   0   8   6   10.33    0.40
  -1  -8  -6    1.31    0.15
  -1  -8  -6    1.28    0.15
  -1  -8  -6    0.95    0.15
  -1  -8  -6    1.11    0.15
   1   8   6    1.17    0.15
   1   8   6    1.17    0.17
   1   8   6    1.20    0.20
  -2  -8  -6    4.72    0.26
  -2  -8  -6    4.32    0.25
  -2  -8  -6    4.45    0.27
  -2  -8  -6    4.87    0.27
   2   8   6    4.80    0.26
   2   8   6    4.89    0.28
  -3  -8  -6    3.91    0.26
  -3  -8  -6    3.80    0.24
  -3  -8  -6    4.18    0.25
   3   8   6    4.19    0.25
   3   8   6    4.03    0.27
  -4  -8  -6    0.37    0.12
  -4  -8  -6    0.14    0.11
  -4  -8  -6    0.24    0.11
   4   8   6    0.05    0.10
   4   8   6    0.21    0.12
   4   8   6    0.32    0.11
  -5  -8  -6   11.51    0.45
  -5  -8  -6   12.24    0.45
  -5  -8  -6   11.95    0.45
   5   8   6   11.11    0.41
   5   8   6   12.01    0.48
  -6  -8  -6   13.95    0.51
  -6  -8  -6   14.26    0.51
  -6  -8  -6   14.85    0.52
   6   8   6   13.24    0.55
  -7  -8  -6    1.47    0.20
  -7  -8  -6    1.31    0.18
  -7  -8  -6    1.14    0.19
  -7  -8  -6    1.64    0.21
   7   8   6    1.82    0.25
  -8  -8  -6    5.68    0.35
  -8  -8  -6    6.61    0.37
  -8  -8  -6    6.86    0.36
  -8  -8  -6    5.69    0.38
   8   8   6    6.44    0.43
   5  -9  -6   -0.20    0.14
  -5   9   6   -0.15    0.10
   4  -9  -6    1.19    0.20
   4  -9  -6    0.91    0.20
  -4   9   6    0.97    0.16
  -4   9   6    0.98    0.24
   3  -9  -6    3.88    0.28
   3  -9  -6    4.22    0.32
   3  -9  -6    3.86    0.28
  -3   9   6    3.67    0.26
  -3   9   6    3.83    0.33
  -3   9   6    4.23    0.28
   2  -9  -6   11.46    0.47
   2  -9  -6   11.07    0.45
  -2   9   6   11.02    0.42
  -2   9   6   10.95    0.49
  -2   9   6   12.01    0.45
   1  -9  -6   16.31    0.52
   1  -9  -6   15.63    0.54
   1  -9  -6   15.90    0.54
  -1   9   6   15.90    0.52
  -1   9   6   15.51    0.54
  -1   9   6   14.54    0.57
   0  -9  -6    8.61    0.37
   0  -9  -6    8.20    0.33
   0  -9  -6    8.35    0.35
   0   9   6    7.94    0.39
   0   9   6    8.07    0.37
  -1  -9  -6   21.00    0.62
  -1  -9  -6   21.74    0.63
  -1  -9  -6   20.00    0.65
   1   9   6   20.63    0.65
   1   9   6   21.47    0.67
  -2  -9  -6    1.36    0.17
  -2  -9  -6    1.49    0.19
  -2  -9  -6    1.31    0.17
   2   9   6    1.57    0.18
   2   9   6    1.66    0.20
  -3  -9  -6    3.20    0.25
  -3  -9  -6    3.31    0.25
  -3  -9  -6    2.67    0.23
   3   9   6    3.03    0.24
   3   9   6    3.36    0.27
  -4  -9  -6   -0.02    0.11
  -4  -9  -6    0.03    0.11
  -4  -9  -6    0.11    0.12
   4   9   6    0.00    0.12
   4   9   6    0.03    0.11
  -5  -9  -6    7.06    0.35
  -5  -9  -6    6.47    0.35
  -5  -9  -6    6.57    0.34
   5   9   6    6.80    0.38
   5   9   6    5.97    0.32
  -6  -9  -6    2.98    0.27
  -6  -9  -6    2.76    0.26
  -6  -9  -6    3.00    0.26
   6   9   6    3.19    0.30
  -7  -9  -6    1.79    0.22
  -7  -9  -6    2.31    0.25
   7   9   6    1.85    0.26
   4 -10  -6   -0.06    0.15
   4 -10  -6    0.04    0.26
  -4  10   6    0.13    0.11
   3 -10  -6    1.30    0.22
   3 -10  -6    1.15    0.19
  -3  10   6    1.49    0.19
   2 -10  -6    3.21    0.29
   2 -10  -6    3.68    0.29
  -2  10   6    3.67    0.28
  -2  10   6    3.65    0.27
   1 -10  -6    1.46    0.20
   1 -10  -6    1.53    0.20
  -1  10   6    1.66    0.20
   0 -10  -6   30.12    0.82
   0 -10  -6   31.45    0.89
   0 -10  -6   30.93    0.86
   0  10   6   30.77    0.88
   0  10   6   29.27    0.89
  -1 -10  -6   18.81    0.59
  -1 -10  -6   18.43    0.62
  -1 -10  -6   18.23    0.60
   1  10   6   19.38    0.62
   1  10   6   17.90    0.63
  -2 -10  -6    0.19    0.13
  -2 -10  -6    0.08    0.12
  -2 -10  -6   -0.03    0.10
   2  10   6   -0.03    0.12
   2  10   6    0.19    0.13
  -3 -10  -6    4.08    0.28
  -3 -10  -6    3.43    0.27
  -3 -10  -6    3.68    0.28
   3  10   6    3.47    0.29
   3  10   6    3.50    0.28
  -4 -10  -6    2.57    0.25
  -4 -10  -6    2.96    0.26
  -4 -10  -6    2.71    0.25
   4  10   6    3.08    0.26
   4  10   6    2.96    0.28
  -5 -10  -6    0.77    0.17
  -5 -10  -6    0.87    0.18
  -5 -10  -6    0.77    0.17
   5  10   6    0.74    0.19
   5  10   6    0.63    0.16
  -6 -10  -6    1.52    0.22
  -6 -10  -6    1.33    0.20
  -6 -10  -6    1.57    0.22
   6  10   6    1.28    0.23
  -7 -10  -6   10.48    0.48
  -7 -10  -6   10.30    0.48
   7  10   6   10.55    0.52
   3 -11  -6    0.07    0.24
   3 -11  -6   -0.15    0.16
  -3  11   6   -0.16    0.11
   2 -11  -6    0.25    0.15
  -2  11   6    0.14    0.13
  -2  11   6    0.02    0.13
   1 -11  -6   14.93    0.58
   1 -11  -6   13.75    0.54
  -1  11   6   15.35    0.57
   0 -11  -6   11.66    0.50
   0 -11  -6   11.55    0.48
   0  11   6   11.05    0.48
  -1 -11  -6    0.16    0.14
  -1 -11  -6    0.29    0.13
  -1 -11  -6    0.31    0.15
   1  11   6    0.37    0.15
  -2 -11  -6    8.93    0.41
  -2 -11  -6    8.18    0.39
  -2 -11  -6    8.89    0.43
   2  11   6    8.60    0.42
  -3 -11  -6    3.25    0.28
  -3 -11  -6    3.73    0.29
  -3 -11  -6    3.07    0.28
   3  11   6    3.54    0.38
   3  11   6    3.16    0.28
  -4 -11  -6    0.43    0.16
  -4 -11  -6    0.52    0.17
  -4 -11  -6    0.35    0.16
   4  11   6    0.36    0.17
   4  11   6    0.42    0.16
  -5 -11  -6    0.38    0.17
  -5 -11  -6    0.37    0.16
  -5 -11  -6    0.11    0.15
   5  11   6    0.18    0.16
   5  11   6    0.45    0.16
  -6 -11  -6    0.10    0.16
  -6 -11  -6    0.11    0.17
  -6 -11  -6    0.09    0.16
   6  11   6    0.32    0.18
   1 -12  -6    1.40    0.22
  -1  12   6    0.94    0.20
   0 -12  -6    0.02    0.16
   0  12   6    0.02    0.15
  -1 -12  -6   31.60    0.95
   1  12   6   32.97    0.97
  -2 -12  -6   14.57    0.54
  -2 -12  -6   14.52    0.57
   2  12   6   14.19    0.58
  -3 -12  -6    0.20    0.16
  -3 -12  -6   -0.11    0.13
   3  12   6    0.04    0.15
  -4 -12  -6    3.43    0.31
  -4 -12  -6    3.68    0.31
   4  12   6    4.30    0.34
   3  11  -7    3.57    0.33
  -3 -11   7    3.30    0.29
  -3 -11   7    3.33    0.38
   2  11  -7    1.16    0.22
  -2 -11   7    1.47    0.21
  -2 -11   7    1.50    0.29
   1  11  -7   -0.07    0.15
  -1 -11   7   -0.10    0.18
  -1 -11   7    0.07    0.15
   0  11  -7    0.30    0.17
   0 -11   7    0.12    0.20
   0 -11   7    0.32    0.17
  -1  11  -7    6.24    0.37
   1 -11   7    6.95    0.50
   1 -11   7    6.66    0.41
   5  10  -7    2.15    0.27
  -5 -10   7    2.22    0.27
   4  10  -7    2.61    0.28
  -4 -10   7    2.48    0.26
   3  10  -7    6.70    0.41
  -3 -10   7    5.63    0.35
   2  10  -7    1.24    0.21
  -2 -10   7    0.94    0.20
  -2 -10   7    0.68    0.22
  -2 -10   7    0.55    0.15
   1  10  -7    2.14    0.25
  -1 -10   7    1.95    0.22
  -1 -10   7    1.88    0.28
   0  10  -7    9.66    0.44
   0  10  -7    8.53    0.41
   0 -10   7   10.04    0.44
   0 -10   7   10.38    0.55
  -1  10  -7    0.47    0.14
  -1  10  -7    0.12    0.13
   1 -10   7    0.24    0.15
   1 -10   7    0.00    0.16
  -2  10  -7    0.58    0.15
   2 -10   7    0.48    0.21
   2 -10   7    0.52    0.18
  -3  10  -7    4.04    0.28
   3 -10   7    4.03    0.40
   6   9  -7    2.50    0.27
  -6  -9   7    1.72    0.26
  -6  -9   7    2.67    0.28
   5   9  -7    0.25    0.17
  -5  -9   7    0.36    0.16
   4   9  -7   14.46    0.56
  -4  -9   7   13.62    0.54
   3   9  -7    5.04    0.34
  -3  -9   7    4.75    0.31
   2   9  -7    0.94    0.18
  -2  -9   7    1.08    0.17
  -2  -9   7    0.59    0.20
  -2  -9   7    0.75    0.15
   1   9  -7   16.69    0.58
  -1  -9   7   16.63    0.68
  -1  -9   7   16.84    0.56
   0   9  -7    0.01    0.12
   0   9  -7    0.26    0.12
   0  -9   7    0.21    0.13
   0  -9   7    0.34    0.18
  -1   9  -7    1.38    0.18
  -1   9  -7    1.23    0.17
   1  -9   7    1.20    0.19
   1  -9   7    1.35    0.25
  -2   9  -7    0.42    0.13
   2  -9   7    0.54    0.16
   2  -9   7    0.75    0.20
  -3   9  -7    5.95    0.30
  -3   9  -7    5.50    0.42
   3  -9   7    5.90    0.44
  -4   9  -7    1.13    0.25
  -4   9  -7    0.75    0.14
   4  -9   7    1.23    0.26
   4  -9   7    1.04    0.22
  -5   9  -7    5.68    0.28
   5  -9   7    5.55    0.44
   6   8  -7   -0.02    0.14
  -6  -8   7    0.03    0.15
  -6  -8   7    0.14    0.15
   5   8  -7    2.25    0.24
  -5  -8   7    2.02    0.23
  -5  -8   7    2.17    0.26
   4   8  -7    4.05    0.30
  -4  -8   7    3.70    0.31
  -4  -8   7    3.67    0.28
   3   8  -7    2.70    0.25
  -3  -8   7    2.89    0.27
  -3  -8   7    2.66    0.23
   2   8  -7   26.15    0.77
  -2  -8   7   24.88    0.71
  -2  -8   7   25.53    0.74
   1   8  -7    7.38    0.36
  -1  -8   7    7.44    0.33
  -1  -8   7    7.33    0.42
  -1  -8   7    7.31    0.32
   0   8  -7    0.13    0.10
   0   8  -7    0.07    0.11
   0  -8   7    0.13    0.11
   0  -8   7    0.15    0.14
  -1   8  -7    9.91    0.39
  -1   8  -7   10.48    0.40
   1  -8   7   10.21    0.50
   1  -8   7   10.44    0.42
  -2   8  -7   -0.07    0.09
   2  -8   7    0.02    0.11
   2  -8   7   -0.11    0.13
  -3   8  -7    1.34    0.15
  -3   8  -7    1.40    0.24
   3  -8   7    1.36    0.24
  -4   8  -7    2.19    0.30
  -4   8  -7    2.23    0.19
   4  -8   7    2.24    0.30
   4  -8   7    2.42    0.26
  -5   8  -7   11.08    0.38
  -5   8  -7    9.95    0.49
  -5   8  -7   11.38    0.58
   5  -8   7   11.23    0.52
   5  -8   7   10.35    0.56
  -6   8  -7    6.88    0.28
   6  -8   7    7.14    0.49
   7   7  -7    2.22    0.29
  -7  -7   7    2.50    0.30
  -7  -7   7    2.47    0.26
   6   7  -7   -0.01    0.12
  -6  -7   7    0.08    0.15
  -6  -7   7    0.02    0.13
   5   7  -7    0.30    0.14
  -5  -7   7    0.08    0.14
  -5  -7   7    0.17    0.13
   4   7  -7   -0.03    0.11
  -4  -7   7    0.21    0.12
  -4  -7   7   -0.07    0.12
   3   7  -7   18.10    0.60
  -3  -7   7   19.76    0.63
  -3  -7   7   18.02    0.59
   2   7  -7   26.61    0.76
  -2  -7   7   27.34    0.78
  -2  -7   7   24.78    0.72
  -2  -7   7   24.92    0.77
  -2  -7   7   25.70    0.70
   1   7  -7    0.32    0.11
   1   7  -7    0.55    0.13
  -1  -7   7    0.69    0.12
  -1  -7   7    0.54    0.14
  -1  -7   7    0.25    0.10
  -1  -7   7    0.45    0.15
   0   7  -7   36.70    0.96
   0   7  -7   39.37    0.98
   0  -7   7   37.64    0.97
   0  -7   7   36.66    0.97
   0  -7   7   37.01    1.09
  -1   7  -7    5.22    0.26
  -1   7  -7    5.14    0.26
   1  -7   7    4.97    0.28
   1  -7   7    5.61    0.36
   1  -7   7    4.55    0.27
  -2   7  -7    2.84    0.20
  -2   7  -7    2.57    0.18
   2  -7   7    3.16    0.30
   2  -7   7    2.82    0.22
  -3   7  -7    0.06    0.08
  -3   7  -7    0.03    0.13
   3  -7   7   -0.03    0.13
  -4   7  -7    3.06    0.19
  -4   7  -7    3.64    0.33
  -4   7  -7    3.39    0.28
   4  -7   7    3.16    0.32
   4  -7   7    2.91    0.27
  -5   7  -7    0.44    0.18
  -5   7  -7    0.40    0.10
  -5   7  -7    0.43    0.15
   5  -7   7    0.51    0.18
   5  -7   7    0.21    0.15
  -6   7  -7    2.16    0.17
  -6   7  -7    2.29    0.26
  -6   7  -7    2.35    0.31
   6  -7   7    2.97    0.33
   6  -7   7    2.81    0.30
   7   6  -7   15.27    0.63
  -7  -6   7   16.75    0.61
  -7  -6   7   15.43    0.63
   6   6  -7    0.61    0.16
   6   6  -7    0.66    0.19
  -6  -6   7    0.79    0.19
  -6  -6   7    0.71    0.16
   5   6  -7    2.55    0.23
  -5  -6   7    2.66    0.26
  -5  -6   7    2.40    0.23
   4   6  -7    1.65    0.18
  -4  -6   7    1.55    0.18
  -4  -6   7    1.40    0.19
   3   6  -7    6.38    0.31
  -3  -6   7    5.71    0.33
  -3  -6   7    5.14    0.28
  -3  -6   7    6.00    0.32
   2   6  -7    1.74    0.19
   2   6  -7    1.87    0.18
  -2  -6   7    1.95    0.16
  -2  -6   7    1.50    0.19
  -2  -6   7    1.93    0.18
  -2  -6   7    1.78    0.19
   1   6  -7   28.20    0.76
   1   6  -7   27.66    0.77
   1   6  -7   27.46    0.74
  -1  -6   7   25.87    0.77
  -1  -6   7   28.36    0.83
  -1  -6   7   27.86    0.78
  -1  -6   7   27.95    0.72
  -1  -6   7   26.51    0.73
   0   6  -7   40.68    1.01
   0   6  -7   41.11    1.02
   0   6  -7   40.81    1.04
   0  -6   7   40.44    0.99
   0  -6   7   42.43    1.14
   0  -6   7   39.45    1.03
   0  -6   7   39.70    1.01
   0  -6   7   39.62    1.04
  -1   6  -7    0.56    0.11
  -1   6  -7    0.58    0.11
  -1   6  -7    0.64    0.11
   1  -6   7    0.67    0.12
   1  -6   7    0.39    0.14
   1  -6   7    0.49    0.11
   1  -6   7    0.68    0.12
  -2   6  -7   15.66    0.46
  -2   6  -7   14.85    0.45
   2  -6   7   14.96    0.57
   2  -6   7   15.06    0.48
  -3   6  -7    9.48    0.46
  -3   6  -7   10.20    0.35
   3  -6   7   11.22    0.38
   3  -6   7   10.92    0.49
  -4   6  -7    1.70    0.14
  -4   6  -7    1.73    0.20
  -4   6  -7    1.86    0.24
   4  -6   7    1.57    0.23
   4  -6   7    1.58    0.20
   4  -6   7    1.55    0.16
  -5   6  -7    0.09    0.07
  -5   6  -7    0.04    0.15
  -5   6  -7    0.22    0.13
   5  -6   7    0.08    0.12
   5  -6   7   -0.01    0.14
  -6   6  -7    4.72    0.20
  -6   6  -7    4.72    0.33
  -6   6  -7    5.39    0.40
   6  -6   7    4.69    0.35
   6  -6   7    4.53    0.38
  -7   6  -7    1.10    0.24
  -7   6  -7    0.75    0.18
   7  -6   7    1.03    0.24
   7  -6   7    0.81    0.21
   8   5  -7    7.63    0.46
  -8  -5   7    8.18    0.42
  -8  -5   7    8.18    0.46
  -8  -5   7    7.75    0.47
   7   5  -7   -0.04    0.15
  -7  -5   7   -0.09    0.14
  -7  -5   7    0.07    0.13
   6   5  -7    4.68    0.35
  -6  -5   7    5.32    0.31
  -6  -5   7    5.01    0.33
   5   5  -7    5.28    0.30
  -5  -5   7    5.38    0.33
  -5  -5   7    5.40    0.30
   4   5  -7    0.65    0.13
   4   5  -7    0.46    0.13
  -4  -5   7    0.49    0.14
  -4  -5   7    0.43    0.12
   3   5  -7    0.22    0.10
   3   5  -7    0.13    0.10
  -3  -5   7    0.22    0.10
  -3  -5   7    0.12    0.09
  -3  -5   7    0.12    0.11
   2   5  -7   13.61    0.43
   2   5  -7   12.23    0.44
  -2  -5   7   12.02    0.44
  -2  -5   7   12.05    0.42
  -2  -5   7   11.95    0.44
   1   5  -7   21.47    0.63
   1   5  -7   21.09    0.60
   1   5  -7   21.80    0.61
  -1  -5   7   20.91    0.62
  -1  -5   7   20.93    0.64
  -1  -5   7   20.84    0.59
  -1  -5   7   21.99    0.57
  -1  -5   7   20.91    0.66
   0   5  -7    0.86    0.12
   0   5  -7    0.58    0.10
   0   5  -7    0.72    0.12
   0  -5   7    0.76    0.13
   0  -5   7    0.71    0.11
   0  -5   7    0.73    0.15
   0  -5   7    0.84    0.11
   0  -5   7    0.79    0.11
  -1   5  -7   39.69    0.98
  -1   5  -7   40.44    0.98
  -1   5  -7   40.75    1.00
   1  -5   7   39.37    1.01
   1  -5   7   41.49    1.10
   1  -5   7   39.49    0.99
   1  -5   7   40.70    1.03
  -2   5  -7   11.76    0.37
  -2   5  -7   11.34    0.36
  -2   5  -7   10.60    0.36
  -2   5  -7   11.50    0.41
   2  -5   7   11.39    0.40
   2  -5   7   11.59    0.40
   2  -5   7   10.81    0.46
  -3   5  -7    5.73    0.33
  -3   5  -7    5.55    0.28
  -3   5  -7    5.75    0.23
   3  -5   7    5.34    0.34
   3  -5   7    5.93    0.27
   3  -5   7    5.81    0.26
  -4   5  -7   12.06    0.50
  -4   5  -7   11.75    0.45
  -4   5  -7   11.85    0.36
   4  -5   7   11.93    0.41
   4  -5   7   12.47    0.46
   4  -5   7   10.95    0.50
  -5   5  -7    2.20    0.25
  -5   5  -7    1.78    0.14
  -5   5  -7    1.74    0.20
   5  -5   7    2.24    0.19
   5  -5   7    2.20    0.23
   5  -5   7    1.77    0.24
  -6   5  -7    0.66    0.16
  -6   5  -7    1.07    0.21
  -6   5  -7    0.72    0.09
   6  -5   7    1.02    0.21
   6  -5   7    0.90    0.18
   6  -5   7    0.59    0.14
   6  -5   7    0.70    0.14
  -7   5  -7    0.02    0.15
  -7   5  -7    0.11    0.14
   7  -5   7   -0.04    0.16
   7  -5   7   -0.09    0.13
   7  -5   7    0.16    0.14
  -8   5  -7    9.50    0.47
  -8   5  -7    7.64    0.47
   8  -5   7    8.05    0.51
   8   4  -7    0.70    0.20
  -8  -4   7    0.60    0.20
  -8  -4   7    0.70    0.19
  -8  -4   7    0.57    0.16
  -8  -4   7    0.61    0.17
   7   4  -7    5.93    0.39
  -7  -4   7    5.48    0.35
  -7  -4   7    5.37    0.37
  -7  -4   7    6.76    0.35
  -7  -4   7    5.48    0.33
   6   4  -7   18.46    0.66
  -6  -4   7   18.72    0.61
  -6  -4   7   20.46    0.63
  -6  -4   7   18.46    0.64
  -6  -4   7   18.51    0.60
   5   4  -7    5.20    0.32
   5   4  -7    4.69    0.27
  -5  -4   7    5.76    0.33
  -5  -4   7    5.77    0.29
  -5  -4   7    5.18    0.27
   4   4  -7   23.86    0.71
   4   4  -7   23.83    0.68
  -4  -4   7   23.64    0.71
  -4  -4   7   24.03    0.68
  -4  -4   7   23.49    0.71
   3   4  -7   10.73    0.41
   3   4  -7   10.09    0.38
  -3  -4   7   10.37    0.40
  -3  -4   7   10.69    0.38
  -3  -4   7   10.40    0.40
   2   4  -7    1.25    0.14
   2   4  -7    1.00    0.13
  -2  -4   7    1.17    0.13
  -2  -4   7    1.18    0.15
  -2  -4   7    1.06    0.14
   1   4  -7    9.33    0.30
   1   4  -7    8.77    0.34
   1   4  -7    8.80    0.32
   1   4  -7    8.57    0.32
  -1  -4   7    9.13    0.29
  -1  -4   7    8.74    0.36
  -1  -4   7    8.75    0.36
  -1  -4   7    9.14    0.34
  -1  -4   7    8.94    0.32
   0   4  -7   35.57    0.88
   0   4  -7   35.94    0.87
   0   4  -7   35.24    0.87
   0   4  -7   34.84    0.89
   0  -4   7   33.59    0.89
   0  -4   7   35.06    0.86
   0  -4   7   35.31    0.91
   0  -4   7   34.53    0.95
  -1   4  -7   39.65    0.96
  -1   4  -7   39.89    0.98
  -1   4  -7   38.11    0.98
  -1   4  -7   41.10    0.97
   1  -4   7   39.83    0.94
   1  -4   7   39.61    1.00
   1  -4   7   40.01    1.01
   1  -4   7   40.29    1.06
  -2   4  -7    0.16    0.07
  -2   4  -7    0.23    0.07
  -2   4  -7    0.23    0.09
  -2   4  -7    0.14    0.07
   2  -4   7    0.29    0.12
   2  -4   7    0.25    0.08
   2  -4   7    0.31    0.09
  -3   4  -7   14.36    0.41
  -3   4  -7   13.81    0.39
  -3   4  -7   13.96    0.47
   3  -4   7   14.66    0.45
   3  -4   7   14.26    0.53
   3  -4   7   13.91    0.45
  -4   4  -7   19.93    0.51
  -4   4  -7   20.98    0.66
  -4   4  -7   19.06    0.60
   4  -4   7   18.00    0.60
   4  -4   7   19.13    0.57
   4  -4   7   19.94    0.57
   4  -4   7   17.70    0.64
  -5   4  -7   -0.03    0.11
  -5   4  -7    0.05    0.10
  -5   4  -7   -0.04    0.06
   5  -4   7    0.09    0.10
   5  -4   7    0.08    0.12
   5  -4   7    0.03    0.09
  -6   4  -7    0.98    0.09
  -6   4  -7    0.99    0.19
  -6   4  -7    0.80    0.16
   6  -4   7    0.65    0.14
   6  -4   7    0.83    0.19
   6  -4   7    1.00    0.17
   6  -4   7    0.84    0.15
  -7   4  -7    1.64    0.22
  -7   4  -7    1.46    0.23
   7  -4   7    1.34    0.20
   7  -4   7    1.48    0.18
   7  -4   7    1.44    0.24
  -8   4  -7    3.61    0.32
  -8   4  -7    2.64    0.28
   8  -4   7    3.46    0.35
   8  -4   7    2.96    0.26
   8  -4   7    2.65    0.28
   8   3  -7    0.23    0.18
  -8  -3   7   -0.07    0.15
  -8  -3   7    0.16    0.15
  -8  -3   7    0.16    0.15
   7   3  -7   19.97    0.71
  -7  -3   7   19.75    0.70
  -7  -3   7   20.94    0.66
  -7  -3   7   21.77    0.71
  -7  -3   7   21.32    0.67
   6   3  -7    2.49    0.24
  -6  -3   7    3.08    0.26
  -6  -3   7    3.09    0.24
  -6  -3   7    2.92    0.23
  -6  -3   7    3.10    0.25
   5   3  -7    6.22    0.33
   5   3  -7    6.17    0.28
  -5  -3   7    6.56    0.31
  -5  -3   7    6.09    0.29
  -5  -3   7    6.70    0.31
  -5  -3   7    6.38    0.33
   4   3  -7    0.71    0.12
   4   3  -7    0.58    0.13
  -4  -3   7    0.72    0.13
  -4  -3   7    0.63    0.14
  -4  -3   7    0.63    0.11
  -4  -3   7    0.63    0.12
  -4  -3   7    0.73    0.13
   3   3  -7    1.62    0.16
   3   3  -7    1.37    0.16
  -3  -3   7    1.70    0.16
  -3  -3   7    1.62    0.17
  -3  -3   7    1.56    0.17
  -3  -3   7    1.53    0.14
   2   3  -7    2.29    0.18
   2   3  -7    2.57    0.18
  -2  -3   7    2.56    0.18
  -2  -3   7    2.38    0.19
  -2  -3   7    2.37    0.16
   1   3  -7    0.11    0.06
   1   3  -7    0.00    0.06
   1   3  -7   -0.02    0.06
   1   3  -7    0.01    0.06
  -1  -3   7    0.02    0.06
  -1  -3   7    0.10    0.08
  -1  -3   7    0.10    0.06
  -1  -3   7    0.09    0.09
   0   3  -7   19.21    0.55
   0   3  -7   19.55    0.53
   0   3  -7   18.90    0.52
   0   3  -7   19.52    0.53
   0  -3   7   19.14    0.58
   0  -3   7   19.99    0.53
   0  -3   7   19.65    0.56
   0  -3   7   19.06    0.57
  -1   3  -7    0.16    0.07
  -1   3  -7    0.15    0.07
  -1   3  -7    0.12    0.06
  -1   3  -7    0.25    0.08
   1  -3   7    0.23    0.10
   1  -3   7    0.16    0.08
   1  -3   7    0.32    0.08
   1  -3   7    0.12    0.08
   1  -3   7    0.22    0.06
  -2   3  -7   34.38    0.82
  -2   3  -7   34.24    0.83
  -2   3  -7   33.32    0.86
  -2   3  -7   32.43    0.81
   2  -3   7   34.26    0.88
   2  -3   7   34.40    0.87
   2  -3   7   33.50    0.92
  -3   3  -7   72.30    1.71
  -3   3  -7   71.37    1.63
  -3   3  -7   73.26    1.65
   3  -3   7   72.90    1.78
   3  -3   7   75.17    1.71
   3  -3   7   76.26    1.71
  -4   3  -7    0.03    0.05
  -4   3  -7    0.00    0.09
   4  -3   7    0.03    0.09
   4  -3   7    0.12    0.08
   4  -3   7   -0.02    0.07
  -5   3  -7   10.35    0.44
  -5   3  -7    9.92    0.41
  -5   3  -7   10.58    0.31
   5  -3   7    9.78    0.39
   5  -3   7    9.33    0.37
   5  -3   7   10.95    0.37
   5  -3   7   10.33    0.45
  -6   3  -7    7.50    0.37
  -6   3  -7    7.18    0.23
  -6   3  -7    7.77    0.39
   6  -3   7    6.88    0.40
   6  -3   7    7.39    0.33
   6  -3   7    7.19    0.35
  -7   3  -7    0.20    0.13
  -7   3  -7    0.36    0.14
   7  -3   7    0.32    0.17
   7  -3   7    0.11    0.12
   7  -3   7    0.11    0.12
  -8   3  -7    0.32    0.14
  -8   3  -7    0.25    0.15
   8  -3   7    0.38    0.19
   8  -3   7    0.42    0.15
   8   2  -7    0.90    0.21
  -8  -2   7    0.90    0.20
  -8  -2   7    0.93    0.18
  -8  -2   7    1.03    0.22
   7   2  -7    1.14    0.20
  -7  -2   7    1.34    0.18
  -7  -2   7    1.25    0.20
  -7  -2   7    0.89    0.18
  -7  -2   7    0.93    0.16
   6   2  -7    6.48    0.35
  -6  -2   7    7.06    0.33
  -6  -2   7    7.21    0.36
  -6  -2   7    6.25    0.33
  -6  -2   7    6.04    0.31
   5   2  -7   38.17    0.96
   5   2  -7   37.64    1.03
   5   2  -7   38.89    1.02
  -5  -2   7   38.55    1.00
  -5  -2   7   38.95    0.99
  -5  -2   7   39.38    1.02
  -5  -2   7   37.98    1.03
   4   2  -7   59.29    1.44
   4   2  -7   58.80    1.39
   4   2  -7   56.50    1.44
  -4  -2   7   59.24    1.40
  -4  -2   7   59.58    1.42
  -4  -2   7   61.29    1.42
  -4  -2   7   57.84    1.44
  -4  -2   7   60.02    1.45
   3   2  -7   33.62    0.85
   3   2  -7   32.66    0.88
  -3  -2   7   33.00    0.87
  -3  -2   7   33.46    0.88
  -3  -2   7   32.99    0.85
  -3  -2   7   32.89    0.85
  -3  -2   7   34.22    0.85
   2   2  -7   31.44    0.86
   2   2  -7   34.07    0.85
  -2  -2   7   33.26    0.84
  -2  -2   7   34.06    0.84
  -2  -2   7   33.43    0.87
   1   2  -7    1.34    0.11
   1   2  -7    1.26    0.12
   1   2  -7    1.38    0.13
   1   2  -7    1.39    0.14
  -1  -2   7    1.92    0.17
  -1  -2   7    1.54    0.15
  -1  -2   7    1.56    0.15
  -1  -2   7    1.58    0.13
   0   2  -7    0.37    0.08
   0   2  -7    0.44    0.08
   0   2  -7    0.43    0.08
   0   2  -7    0.53    0.09
   0  -2   7    0.43    0.09
   0  -2   7    0.66    0.10
   0  -2   7    0.40    0.10
   0  -2   7    0.34    0.08
  -1   2  -7   34.02    0.83
  -1   2  -7   33.58    0.82
  -1   2  -7   33.57    0.82
  -1   2  -7   34.69    0.85
   1  -2   7   33.04    0.88
   1  -2   7   33.12    0.85
   1  -2   7   32.43    0.86
   1  -2   7   34.22    0.81
   1  -2   7   33.93    0.85
  -2   2  -7   92.57    2.05
  -2   2  -7   93.72    2.09
  -2   2  -7   90.81    2.04
  -2   2  -7   92.72    2.06
   2  -2   7   95.93    2.14
   2  -2   7   94.38    2.14
   2  -2   7   89.40    2.10
   2  -2   7   91.27    2.03
   2  -2   7   91.93    2.09
  -3   2  -7    5.02    0.20
  -3   2  -7    5.03    0.19
  -3   2  -7    4.67    0.19
  -3   2  -7    5.28    0.25
   3  -2   7    5.01    0.28
   3  -2   7    5.26    0.24
  -4   2  -7    4.48    0.18
  -4   2  -7    4.02    0.24
   4  -2   7    4.42    0.23
   4  -2   7    4.18    0.23
   4  -2   7    4.27    0.26
  -5   2  -7   20.96    0.63
  -5   2  -7   20.98    0.52
   5  -2   7   20.11    0.60
   5  -2   7   19.71    0.66
  -6   2  -7    0.04    0.10
  -6   2  -7    0.04    0.05
  -6   2  -7   -0.01    0.10
   6  -2   7    0.14    0.12
   6  -2   7    0.17    0.11
   6  -2   7    0.02    0.09
  -7   2  -7    5.76    0.32
  -7   2  -7    6.01    0.33
  -7   2  -7    5.72    0.18
   7  -2   7    5.63    0.31
   7  -2   7    5.44    0.36
   7  -2   7    5.65    0.31
  -8   2  -7   -0.02    0.12
  -8   2  -7   -0.01    0.12
   8  -2   7    0.14    0.16
   8  -2   7   -0.10    0.12
   9  -2   7    0.49    0.20
   9  -2   7    0.36    0.16
   8   1  -7    5.23    0.37
  -8  -1   7    4.58    0.35
  -8  -1   7    4.46    0.31
  -8  -1   7    4.28    0.36
   7   1  -7    0.44    0.15
  -7  -1   7    0.54    0.17
  -7  -1   7    0.46    0.13
  -7  -1   7    0.76    0.17
   6   1  -7    6.60    0.34
   6   1  -7    7.38    0.37
  -6  -1   7    6.98    0.35
  -6  -1   7    7.15    0.33
  -6  -1   7    7.55    0.37
  -6  -1   7    6.80    0.33
   5   1  -7    3.57    0.25
   5   1  -7    3.93    0.25
  -5  -1   7    3.66    0.25
  -5  -1   7    3.93    0.24
  -5  -1   7    3.27    0.22
  -5  -1   7    3.86    0.23
  -5  -1   7    3.84    0.26
   4   1  -7    8.43    0.34
   4   1  -7    7.61    0.34
   4   1  -7    8.57    0.31
  -4  -1   7    8.58    0.33
  -4  -1   7    8.82    0.33
  -4  -1   7    9.00    0.35
  -4  -1   7    8.06    0.34
  -4  -1   7    8.67    0.35
   3   1  -7   60.66    1.46
   3   1  -7   63.68    1.45
   3   1  -7   62.58    1.49
  -3  -1   7   63.36    1.46
  -3  -1   7   62.58    1.46
  -3  -1   7   61.85    1.46
  -3  -1   7   61.00    1.48
  -3  -1   7   61.92    1.49
   2   1  -7   22.57    0.65
   2   1  -7   23.08    0.62
  -2  -1   7   23.41    0.65
  -2  -1   7   24.49    0.63
  -2  -1   7   22.96    0.63
  -2  -1   7   24.09    0.63
   1   1  -7    2.77    0.16
   1   1  -7    2.85    0.16
   1   1  -7    2.70    0.14
   1   1  -7    2.53    0.17
  -1  -1   7    2.52    0.16
  -1  -1   7    2.61    0.16
  -1  -1   7    2.30    0.17
   0   1  -7    7.95    0.28
   0   1  -7    8.11    0.28
   0   1  -7    8.04    0.30
   0   1  -7    8.07    0.27
   0  -1   7    8.33    0.30
   0  -1   7    7.90    0.30
   0  -1   7    8.05    0.28
  -1   1  -7   24.60    0.64
  -1   1  -7   25.45    0.65
  -1   1  -7   24.32    0.63
  -1   1  -7   25.16    0.65
   1  -1   7   24.93    0.67
   1  -1   7   26.29    0.69
   1  -1   7   25.09    0.66
   1  -1   7   24.25    0.63
   1  -1   7   24.10    0.66
  -2   1  -7    0.06    0.06
  -2   1  -7    0.06    0.05
  -2   1  -7    0.16    0.06
  -2   1  -7    0.11    0.06
   2  -1   7    0.20    0.05
   2  -1   7    0.05    0.07
   2  -1   7    0.17    0.07
   2  -1   7    0.24    0.07
   2  -1   7    0.10    0.07
  -3   1  -7    8.44    0.27
  -3   1  -7    8.58    0.27
  -3   1  -7    7.95    0.31
  -3   1  -7    8.25    0.26
   3  -1   7    8.09    0.31
   3  -1   7    7.59    0.33
   3  -1   7    8.28    0.30
  -4   1  -7   42.67    1.00
  -4   1  -7   42.46    1.09
  -4   1  -7   43.96    1.08
   4  -1   7   43.64    1.07
   4  -1   7   42.28    1.12
   4  -1   7   44.84    1.04
   4  -1   7   43.74    1.08
  -5   1  -7    2.81    0.20
  -5   1  -7    3.08    0.22
  -5   1  -7    3.42    0.16
   5  -1   7    2.99    0.20
   5  -1   7    3.06    0.24
   5  -1   7    3.10    0.19
  -6   1  -7   12.83    0.47
  -6   1  -7   12.50    0.45
  -6   1  -7   12.86    0.34
   6  -1   7   11.26    0.43
   6  -1   7   12.42    0.44
   6  -1   7   12.60    0.51
  -7   1  -7   11.18    0.43
  -7   1  -7   10.04    0.43
  -7   1  -7   10.50    0.29
   7  -1   7    9.90    0.41
   7  -1   7    9.28    0.47
  -8   1  -7    0.28    0.14
  -8   1  -7    0.35    0.06
  -8   1  -7    0.30    0.14
   8  -1   7    0.13    0.13
   8  -1   7    0.47    0.18
   9  -1   7    6.46    0.43
   9  -1   7    6.55    0.39
   8   0  -7    0.19    0.17
  -8   0   7    0.17    0.15
  -8   0   7    0.29    0.14
  -8   0   7    0.26    0.18
   7   0  -7    0.83    0.18
   7   0  -7    0.45    0.15
  -7   0   7    0.43    0.15
  -7   0   7    0.80    0.15
  -7   0   7    0.46    0.17
   6   0  -7    0.48    0.14
   6   0  -7    0.80    0.16
  -6   0   7    0.98    0.17
  -6   0   7    1.01    0.15
  -6   0   7    0.94    0.14
  -6   0   7    0.92    0.17
   5   0  -7    3.53    0.25
   5   0  -7    4.40    0.27
  -5   0   7    3.76    0.25
  -5   0   7    3.79    0.23
  -5   0   7    3.94    0.24
  -5   0   7    3.77    0.23
  -5   0   7    3.89    0.26
   4   0  -7   45.45    1.13
   4   0  -7   45.80    1.15
   4   0  -7   46.51    1.08
  -4   0   7   43.73    1.14
  -4   0   7   43.05    1.12
  -4   0   7   45.68    1.13
  -4   0   7   45.57    1.11
  -4   0   7   45.59    1.12
   3   0  -7   32.50    0.87
   3   0  -7   34.77    0.91
   3   0  -7   34.99    0.86
  -3   0   7   34.83    0.87
  -3   0   7   34.20    0.87
  -3   0   7   35.76    0.90
  -3   0   7   34.07    0.89
  -3   0   7   34.49    0.89
   2   0  -7    3.79    0.20
   2   0  -7    4.23    0.20
   2   0  -7    4.20    0.22
   2   0  -7    4.12    0.16
  -2   0   7    4.12    0.20
  -2   0   7    4.39    0.23
  -2   0   7    4.28    0.22
  -2   0   7    4.36    0.22
  -2   0   7    4.24    0.18
  -2   0   7    4.50    0.21
   1   0  -7  121.40    2.64
   1   0  -7  117.69    2.71
   1   0  -7  120.50    2.68
   1   0  -7  125.65    2.68
  -1   0   7  122.50    2.71
  -1   0   7  124.68    2.67
  -1   0   7  122.51    2.68
  -1   0   7  120.21    2.69
  -1   0   7  122.45    2.72
   0   0  -7    0.75    0.09
   0   0  -7    0.37    0.08
   0   0  -7    0.51    0.09
   0   0  -7    0.64    0.08
   0   0   7    0.60    0.09
   0   0   7    0.71    0.09
   0   0   7    0.73    0.10
   0   0   7    0.75    0.11
   0   0   7    0.69    0.09
  -1   0  -7    7.19    0.26
  -1   0  -7    6.76    0.25
  -1   0  -7    7.04    0.26
  -1   0  -7    7.04    0.25
   1   0   7    6.37    0.26
   1   0   7    6.93    0.25
   1   0   7    7.34    0.27
   1   0   7    6.86    0.26
  -2   0  -7    0.47    0.08
  -2   0  -7    0.62    0.09
  -2   0  -7    0.45    0.08
  -2   0  -7    0.47    0.07
  -2   0  -7    0.38    0.07
  -2   0  -7    0.48    0.08
   2   0   7    0.60    0.09
   2   0   7    0.37    0.08
   2   0   7    0.41    0.09
   2   0   7    0.52    0.09
   2   0   7    0.41    0.06
  -3   0  -7   12.42    0.41
  -3   0  -7   12.24    0.36
  -3   0  -7   13.13    0.36
  -3   0  -7   13.15    0.37
   3   0   7   11.99    0.42
   3   0   7   12.78    0.38
   3   0   7   12.84    0.39
   3   0   7   12.94    0.41
  -4   0  -7   17.72    0.53
  -4   0  -7   18.61    0.46
  -4   0  -7   18.66    0.49
  -4   0  -7   18.36    0.55
   4   0   7   18.91    0.55
   4   0   7   19.06    0.53
   4   0   7   18.53    0.58
   4   0   7   18.16    0.52
  -5   0  -7   14.85    0.49
  -5   0  -7   14.61    0.47
  -5   0  -7   14.94    0.40
   5   0   7   14.76    0.52
   5   0   7   14.08    0.46
   5   0   7   14.30    0.46
  -6   0  -7   15.46    0.52
  -6   0  -7   15.82    0.41
  -6   0  -7   15.78    0.53
   6   0   7   15.21    0.50
   6   0   7   15.86    0.57
   6   0   7   15.00    0.50
  -7   0  -7    4.56    0.29
  -7   0  -7    4.32    0.28
  -7   0  -7    4.65    0.18
   7   0   7    3.95    0.31
   7   0   7    4.09    0.27
  -8   0  -7    2.76    0.15
  -8   0  -7    2.81    0.25
  -8   0  -7    2.48    0.31
   8   0   7    2.99    0.25
   8   0   7    2.10    0.27
  -9   0  -7    0.18    0.06
  -9   0  -7    0.13    0.16
   9   0   7    0.13    0.15
   9   0   7    0.13    0.17
   8  -1  -7    5.31    0.39
  -8   1   7    5.35    0.32
  -8   1   7    5.27    0.39
  -8   1   7    5.30    0.36
   7  -1  -7    2.22    0.25
   7  -1  -7    2.25    0.24
  -7   1   7    2.36    0.24
  -7   1   7    2.66    0.23
  -7   1   7    2.02    0.26
   6  -1  -7    0.36    0.13
   6  -1  -7    0.36    0.14
  -6   1   7    0.39    0.13
  -6   1   7    0.31    0.14
  -6   1   7    0.41    0.12
   5  -1  -7    0.66    0.14
   5  -1  -7    0.73    0.14
  -5   1   7    1.35    0.16
  -5   1   7    0.69    0.11
  -5   1   7    0.87    0.13
  -5   1   7    0.99    0.15
  -5   1   7    0.94    0.16
   4  -1  -7   26.42    0.68
   4  -1  -7   26.61    0.76
   4  -1  -7   26.59    0.74
  -4   1   7   27.05    0.74
  -4   1   7   26.79    0.73
  -4   1   7   27.17    0.73
  -4   1   7   26.57    0.72
  -4   1   7   27.32    0.77
   3  -1  -7    3.22    0.21
   3  -1  -7    3.22    0.17
   3  -1  -7    3.67    0.20
  -3   1   7    3.20    0.20
  -3   1   7    2.97    0.20
  -3   1   7    3.31    0.20
  -3   1   7    3.42    0.19
  -3   1   7    3.13    0.20
   2  -1  -7   35.90    0.82
   2  -1  -7   35.82    0.87
   2  -1  -7   35.57    0.91
   2  -1  -7   36.32    0.88
  -2   1   7   35.55    0.90
  -2   1   7   34.14    0.90
  -2   1   7   36.51    0.90
  -2   1   7   35.35    0.91
  -2   1   7   35.55    0.88
   1  -1  -7   11.83    0.40
   1  -1  -7   12.48    0.38
   1  -1  -7   12.57    0.37
   1  -1  -7   12.09    0.35
   1  -1  -7   12.14    0.36
  -1   1   7   12.62    0.34
  -1   1   7   12.42    0.41
  -1   1   7   12.84    0.38
  -1   1   7   12.55    0.40
  -1   1   7   12.23    0.40
  -1   1   7   11.99    0.39
   0  -1  -7    1.06    0.10
   0  -1  -7    0.86    0.10
   0  -1  -7    1.17    0.11
   0  -1  -7    1.22    0.10
   0  -1  -7    1.09    0.12
   0   1   7    1.36    0.13
   0   1   7    1.12    0.11
   0   1   7    0.99    0.10
   0   1   7    1.28    0.10
   0   1   7    0.98    0.12
  -1  -1  -7   45.45    1.11
  -1  -1  -7   46.12    1.08
  -1  -1  -7   47.71    1.09
  -1  -1  -7   46.15    1.09
   1   1   7   46.00    1.11
   1   1   7   44.83    1.11
   1   1   7   47.94    1.08
   1   1   7   45.85    1.08
   1   1   7   45.68    1.09
  -2  -1  -7    0.52    0.09
  -2  -1  -7    0.65    0.09
  -2  -1  -7    0.56    0.09
  -2  -1  -7    0.65    0.09
  -2  -1  -7    0.60    0.09
   2   1   7    0.68    0.10
   2   1   7    0.56    0.09
   2   1   7    0.45    0.09
   2   1   7    0.77    0.10
   2   1   7    0.56    0.07
   2   1   7    0.66    0.09
  -3  -1  -7    0.37    0.07
  -3  -1  -7    0.40    0.07
  -3  -1  -7    0.51    0.10
  -3  -1  -7    0.32    0.07
  -3  -1  -7    0.36    0.08
   3   1   7    0.48    0.09
   3   1   7    0.33    0.08
   3   1   7    0.45    0.06
   3   1   7    0.46    0.09
   3   1   7    0.63    0.10
   3   1   7    0.41    0.09
  -4  -1  -7    4.50    0.18
  -4  -1  -7    4.71    0.23
  -4  -1  -7    4.50    0.24
  -4  -1  -7    4.46    0.19
  -4  -1  -7    4.75    0.19
   4   1   7    4.47    0.22
   4   1   7    4.26    0.22
   4   1   7    4.77    0.25
   4   1   7    4.19    0.21
  -5  -1  -7   48.28    1.22
  -5  -1  -7   50.33    1.14
  -5  -1  -7   48.08    1.11
  -5  -1  -7   51.27    1.24
   5   1   7   48.55    1.21
   5   1   7   50.17    1.21
   5   1   7   51.29    1.26
  -6  -1  -7   16.00    0.53
  -6  -1  -7   16.26    0.43
  -6  -1  -7   15.53    0.51
   6   1   7   16.04    0.52
   6   1   7   15.99    0.56
   6   1   7   15.44    0.51
  -7  -1  -7    6.36    0.23
  -7  -1  -7    6.22    0.33
  -7  -1  -7    5.68    0.31
   7   1   7    6.58    0.37
   7   1   7    7.06    0.34
   7   1   7    6.65    0.33
  -8  -1  -7    9.47    0.42
  -8  -1  -7    9.45    0.30
   8   1   7   10.37    0.44
   8   1   7    9.49    0.47
  -9  -1  -7    0.86    0.18
  -9  -1  -7    0.76    0.10
   9   1   7    0.61    0.18
   9   1   7    0.60    0.21
   8  -2  -7    0.15    0.17
   8  -2  -7   -0.01    0.14
  -8   2   7    0.11    0.17
  -8   2   7    0.10    0.13
   7  -2  -7    2.69    0.27
   7  -2  -7    2.65    0.27
  -7   2   7    2.68    0.29
  -7   2   7    2.18    0.21
  -7   2   7    2.78    0.30
   6  -2  -7    1.51    0.20
   6  -2  -7    1.91    0.23
  -6   2   7    1.55    0.17
  -6   2   7    1.69    0.19
  -6   2   7    1.53    0.21
   5  -2  -7    1.04    0.16
   5  -2  -7    1.20    0.17
  -5   2   7    1.18    0.15
  -5   2   7    1.50    0.20
  -5   2   7    1.22    0.16
  -5   2   7    1.26    0.14
  -5   2   7    1.16    0.15
   4  -2  -7    1.81    0.18
   4  -2  -7    1.83    0.19
  -4   2   7    1.82    0.19
  -4   2   7    2.36    0.18
  -4   2   7    1.97    0.16
  -4   2   7    2.14    0.18
  -4   2   7    1.98    0.18
   3  -2  -7   19.55    0.52
   3  -2  -7   19.33    0.55
   3  -2  -7   18.53    0.57
   3  -2  -7   19.82    0.58
  -3   2   7   19.18    0.59
  -3   2   7   17.92    0.55
  -3   2   7   19.04    0.56
  -3   2   7   19.14    0.55
  -3   2   7   20.09    0.56
   2  -2  -7   57.16    1.32
   2  -2  -7   57.20    1.28
   2  -2  -7   57.44    1.37
   2  -2  -7   58.89    1.32
  -2   2   7   56.16    1.38
  -2   2   7   53.97    1.35
  -2   2   7   55.19    1.34
  -2   2   7   56.88    1.35
  -2   2   7   58.66    1.34
   1  -2  -7    4.02    0.19
   1  -2  -7    3.96    0.17
   1  -2  -7    4.00    0.21
   1  -2  -7    3.90    0.17
  -1   2   7    3.92    0.21
  -1   2   7    4.44    0.24
  -1   2   7    3.95    0.21
  -1   2   7    3.81    0.19
  -1   2   7    3.81    0.20
   0  -2  -7  100.71    2.17
   0  -2  -7  100.02    2.21
   0  -2  -7   99.28    2.22
   0  -2  -7   99.86    2.26
   0  -2  -7  102.71    2.22
   0   2   7  100.39    2.24
   0   2   7   97.02    2.24
   0   2   7  101.38    2.27
   0   2   7   99.93    2.22
   0   2   7   99.34    2.24
   0   2   7  101.42    2.17
  -1  -2  -7   13.62    0.40
  -1  -2  -7   14.35    0.34
  -1  -2  -7   13.96    0.41
  -1  -2  -7   14.07    0.42
  -1  -2  -7   14.38    0.40
   1   2   7   13.28    0.42
   1   2   7   13.84    0.38
   1   2   7   14.25    0.41
   1   2   7   13.50    0.42
   1   2   7   13.52    0.40
   1   2   7   12.78    0.43
  -2  -2  -7    8.68    0.29
  -2  -2  -7    8.09    0.29
  -2  -2  -7    8.21    0.28
  -2  -2  -7    8.69    0.30
  -2  -2  -7    8.02    0.27
   2   2   7    8.09    0.28
   2   2   7    8.06    0.29
   2   2   7    6.73    0.29
   2   2   7    7.86    0.29
   2   2   7    8.23    0.27
   2   2   7    8.49    0.28
  -3  -2  -7    2.52    0.18
  -3  -2  -7    2.40    0.15
  -3  -2  -7    2.11    0.16
  -3  -2  -7    2.25    0.14
  -3  -2  -7    2.21    0.15
   3   2   7    2.33    0.16
   3   2   7    2.40    0.12
   3   2   7    2.48    0.17
   3   2   7    2.57    0.17
   3   2   7    2.57    0.16
   3   2   7    2.41    0.15
  -4  -2  -7    1.58    0.13
  -4  -2  -7    1.48    0.12
  -4  -2  -7    1.35    0.12
  -4  -2  -7    1.46    0.14
  -4  -2  -7    1.52    0.16
   4   2   7    1.79    0.15
   4   2   7    1.76    0.15
   4   2   7    1.55    0.16
   4   2   7    1.14    0.13
  -5  -2  -7    1.74    0.17
  -5  -2  -7    1.38    0.11
  -5  -2  -7    1.43    0.15
  -5  -2  -7    1.65    0.13
   5   2   7    1.87    0.19
   5   2   7    1.54    0.15
   5   2   7    1.48    0.16
  -6  -2  -7    5.70    0.29
  -6  -2  -7    5.80    0.30
  -6  -2  -7    5.64    0.23
   6   2   7    5.61    0.32
   6   2   7    5.50    0.29
   6   2   7    5.96    0.28
  -7  -2  -7   37.43    0.99
  -7  -2  -7   37.40    0.89
  -7  -2  -7   36.76    1.00
   7   2   7   37.80    1.01
   7   2   7   35.27    1.04
   7   2   7   35.04    0.97
  -8  -2  -7   11.83    0.37
  -8  -2  -7   12.93    0.48
   8   2   7   12.16    0.55
   8   2   7   11.44    0.49
   8   2   7   11.51    0.47
  -9  -2  -7    3.24    0.28
  -9  -2  -7    3.16    0.20
  -9  -2  -7    2.81    0.29
   9   2   7    3.85    0.37
   9   2   7    3.66    0.31
   8  -3  -7    0.05    0.18
   8  -3  -7    0.17    0.16
  -8   3   7   -0.02    0.11
  -8   3   7    0.02    0.18
   7  -3  -7    4.91    0.36
   7  -3  -7    5.05    0.36
  -7   3   7    5.18    0.30
  -7   3   7    5.14    0.37
   6  -3  -7   -0.01    0.12
   6  -3  -7    0.20    0.14
  -6   3   7   -0.07    0.10
  -6   3   7    0.02    0.13
   5  -3  -7    2.10    0.21
   5  -3  -7    2.16    0.22
  -5   3   7    2.12    0.23
  -5   3   7    2.18    0.17
  -5   3   7    2.44    0.21
  -5   3   7    2.17    0.19
   4  -3  -7    0.10    0.10
   4  -3  -7   -0.06    0.09
  -4   3   7    0.05    0.08
  -4   3   7    0.14    0.08
  -4   3   7    0.05    0.08
  -4   3   7    0.10    0.11
  -4   3   7    0.00    0.08
   3  -3  -7    9.98    0.31
   3  -3  -7    9.73    0.38
   3  -3  -7    9.68    0.35
  -3   3   7    8.96    0.34
  -3   3   7   10.09    0.35
  -3   3   7   10.13    0.40
  -3   3   7    9.93    0.36
  -3   3   7    9.79    0.35
   2  -3  -7    2.16    0.14
   2  -3  -7    2.01    0.17
   2  -3  -7    2.03    0.15
   2  -3  -7    1.96    0.14
   2  -3  -7    2.11    0.18
  -2   3   7    2.15    0.16
  -2   3   7    2.26    0.16
  -2   3   7    2.44    0.17
  -2   3   7    2.42    0.21
  -2   3   7    2.39    0.17
   1  -3  -7   58.32    1.39
   1  -3  -7   59.14    1.33
   1  -3  -7   60.08    1.35
   1  -3  -7   58.76    1.32
  -1   3   7   57.60    1.36
  -1   3   7   57.01    1.41
  -1   3   7   57.00    1.37
  -1   3   7   59.67    1.36
  -1   3   7   56.04    1.37
   0  -3  -7   88.29    2.00
   0  -3  -7   92.14    2.00
   0  -3  -7   88.40    2.04
   0  -3  -7   91.13    2.00
   0  -3  -7   91.37    1.95
   0   3   7   89.38    1.99
   0   3   7   87.27    2.01
   0   3   7   88.62    2.03
   0   3   7   89.30    2.06
   0   3   7   90.95    2.01
   0   3   7   89.54    2.02
  -1  -3  -7    1.49    0.12
  -1  -3  -7    1.24    0.11
  -1  -3  -7    1.35    0.13
  -1  -3  -7    1.09    0.12
   1   3   7    1.28    0.12
   1   3   7    1.30    0.10
   1   3   7    1.24    0.12
   1   3   7    1.29    0.15
   1   3   7    1.17    0.13
   1   3   7    1.28    0.11
  -2  -3  -7   76.18    1.73
  -2  -3  -7   78.03    1.75
  -2  -3  -7   74.80    1.73
  -2  -3  -7   78.97    1.73
  -2  -3  -7   74.74    1.75
   2   3   7   77.66    1.73
   2   3   7   77.60    1.74
   2   3   7   75.94    1.75
   2   3   7   77.59    1.72
   2   3   7   76.79    1.72
   2   3   7   75.17    1.77
  -3  -3  -7   31.70    0.80
  -3  -3  -7   31.57    0.79
  -3  -3  -7   32.53    0.82
  -3  -3  -7   32.25    0.78
  -3  -3  -7   31.50    0.79
   3   3   7   30.38    0.82
   3   3   7   32.05    0.80
   3   3   7   30.80    0.77
   3   3   7   31.23    0.80
   3   3   7   31.79    0.76
   3   3   7   30.11    0.80
  -4  -3  -7    1.67    0.15
  -4  -3  -7    1.70    0.16
  -4  -3  -7    1.79    0.14
  -4  -3  -7    1.50    0.13
  -4  -3  -7    1.82    0.14
   4   3   7    1.69    0.14
   4   3   7    1.62    0.16
   4   3   7    1.66    0.16
  -5  -3  -7    0.82    0.11
  -5  -3  -7    1.04    0.14
  -5  -3  -7    0.69    0.13
  -5  -3  -7    0.97    0.10
  -5  -3  -7    0.82    0.11
   5   3   7    0.92    0.13
   5   3   7    0.84    0.13
   5   3   7    0.79    0.14
  -6  -3  -7   20.21    0.62
  -6  -3  -7   19.43    0.54
  -6  -3  -7   18.92    0.54
  -6  -3  -7   20.36    0.62
   6   3   7   20.45    0.60
   6   3   7   21.55    0.64
   6   3   7   21.30    0.67
  -7  -3  -7    6.50    0.27
  -7  -3  -7    6.59    0.33
  -7  -3  -7    6.15    0.33
   7   3   7    7.07    0.39
   7   3   7    6.68    0.33
   7   3   7    7.19    0.36
  -8  -3  -7    0.32    0.10
  -8  -3  -7    0.26    0.13
   8   3   7    0.46    0.15
   8   3   7    0.24    0.17
   8   3   7    0.58    0.17
  -9  -3  -7    3.05    0.21
  -9  -3  -7    3.22    0.28
  -9  -3  -7    2.66    0.28
   9   3   7    3.43    0.35
   9   3   7    3.14    0.28
   7  -4  -7    1.42    0.23
   7  -4  -7    1.93    0.24
  -7   4   7    1.52    0.18
  -7   4   7    1.56    0.26
   6  -4  -7    2.76    0.27
   6  -4  -7    3.04    0.27
  -6   4   7    3.19    0.24
  -6   4   7    3.33    0.32
   5  -4  -7    9.82    0.41
   5  -4  -7    9.49    0.44
  -5   4   7   10.04    0.38
  -5   4   7    8.82    0.44
   4  -4  -7    0.53    0.12
   4  -4  -7    0.49    0.14
  -4   4   7    0.55    0.11
  -4   4   7    0.69    0.11
  -4   4   7    0.55    0.14
  -4   4   7    0.56    0.12
   3  -4  -7    9.13    0.38
   3  -4  -7    9.10    0.30
   3  -4  -7    9.35    0.35
  -3   4   7    9.30    0.34
  -3   4   7    9.23    0.35
  -3   4   7    8.71    0.40
  -3   4   7    9.51    0.34
   2  -4  -7   19.78    0.53
   2  -4  -7   19.91    0.54
   2  -4  -7   19.03    0.58
   2  -4  -7   19.37    0.58
   2  -4  -7   19.07    0.52
  -2   4   7   19.68    0.56
  -2   4   7   19.31    0.55
  -2   4   7   19.17    0.57
  -2   4   7   19.06    0.62
   1  -4  -7    4.53    0.23
   1  -4  -7    4.51    0.23
   1  -4  -7    4.86    0.21
   1  -4  -7    4.96    0.21
   1  -4  -7    4.26    0.19
  -1   4   7    4.28    0.22
  -1   4   7    4.56    0.22
  -1   4   7    4.23    0.20
  -1   4   7    4.30    0.22
  -1   4   7    4.32    0.27
   0  -4  -7    0.84    0.09
   0  -4  -7    0.65    0.10
   0  -4  -7    0.62    0.10
   0  -4  -7    0.63    0.09
   0  -4  -7    0.63    0.10
   0  -4  -7    0.58    0.07
   0   4   7    0.53    0.10
   0   4   7    0.56    0.10
   0   4   7    0.62    0.09
   0   4   7    0.59    0.09
   0   4   7    0.48    0.08
   0   4   7    0.68    0.13
  -1  -4  -7   45.22    1.06
  -1  -4  -7   45.94    1.09
  -1  -4  -7   45.10    1.11
  -1  -4  -7   46.82    1.08
  -1  -4  -7   45.27    1.09
   1   4   7   46.29    1.10
   1   4   7   42.43    1.13
   1   4   7   45.37    1.11
   1   4   7   46.36    1.07
   1   4   7   45.03    1.04
  -2  -4  -7   34.64    0.87
  -2  -4  -7   33.85    0.86
  -2  -4  -7   33.33    0.84
  -2  -4  -7   33.96    0.85
  -2  -4  -7   35.12    0.85
   2   4   7   33.30    0.87
   2   4   7   34.04    0.82
   2   4   7   35.85    0.85
   2   4   7   34.02    0.83
   2   4   7   34.43    0.84
   2   4   7   33.17    0.89
  -3  -4  -7    1.56    0.16
  -3  -4  -7    1.26    0.13
  -3  -4  -7    1.43    0.14
  -3  -4  -7    1.39    0.13
  -3  -4  -7    1.26    0.12
   3   4   7    1.45    0.14
   3   4   7    1.62    0.13
   3   4   7    1.24    0.12
   3   4   7    1.56    0.14
   3   4   7    1.44    0.13
   3   4   7    1.39    0.15
  -4  -4  -7    7.13    0.27
  -4  -4  -7    6.53    0.29
  -4  -4  -7    6.86    0.28
  -4  -4  -7    7.65    0.31
  -4  -4  -7    7.08    0.28
   4   4   7    7.23    0.25
   4   4   7    7.27    0.31
   4   4   7    6.80    0.27
   4   4   7    7.08    0.31
  -5  -4  -7    5.86    0.29
  -5  -4  -7    5.74    0.25
  -5  -4  -7    5.88    0.26
  -5  -4  -7    6.03    0.25
   5   4   7    5.69    0.30
   5   4   7    6.14    0.31
   5   4   7    6.09    0.27
  -6  -4  -7    4.52    0.27
  -6  -4  -7    3.60    0.21
  -6  -4  -7    3.58    0.24
  -6  -4  -7    3.92    0.20
   6   4   7    3.86    0.29
   6   4   7    4.11    0.24
   6   4   7    4.52    0.28
  -7  -4  -7    0.54    0.15
  -7  -4  -7    0.51    0.11
  -7  -4  -7    0.55    0.14
   7   4   7    0.68    0.17
   7   4   7    0.44    0.13
   7   4   7    0.68    0.16
  -8  -4  -7   16.10    0.57
  -8  -4  -7   16.62    0.50
   8   4   7   15.76    0.63
   8   4   7   15.31    0.56
   8   4   7   16.25    0.61
  -9  -4  -7    4.28    0.26
  -9  -4  -7    4.89    0.37
  -9  -4  -7    4.62    0.33
   9   4   7    4.70    0.34
   7  -5  -7    1.02    0.22
   7  -5  -7    0.66    0.20
  -7   5   7    0.62    0.14
  -7   5   7    0.46    0.21
   6  -5  -7   17.95    0.63
   6  -5  -7   16.43    0.64
  -6   5   7   16.87    0.55
  -6   5   7   17.77    0.68
   5  -5  -7    8.38    0.41
   5  -5  -7    7.90    0.38
  -5   5   7    8.45    0.44
  -5   5   7    8.44    0.35
   4  -5  -7    7.10    0.36
   4  -5  -7    7.22    0.33
  -4   5   7    6.14    0.37
  -4   5   7    6.08    0.29
   3  -5  -7    0.32    0.11
   3  -5  -7    0.16    0.11
  -3   5   7    0.38    0.09
  -3   5   7    0.46    0.15
  -3   5   7    0.48    0.11
  -3   5   7    0.49    0.10
   2  -5  -7    1.70    0.14
   2  -5  -7    1.66    0.17
   2  -5  -7    1.88    0.16
   2  -5  -7    1.74    0.15
  -2   5   7    1.42    0.15
  -2   5   7    1.95    0.22
  -2   5   7    1.87    0.17
  -2   5   7    1.74    0.16
   1  -5  -7    3.91    0.23
   1  -5  -7    4.44    0.24
   1  -5  -7    4.20    0.21
   1  -5  -7    4.54    0.20
   1  -5  -7    4.11    0.20
   1  -5  -7    3.94    0.19
  -1   5   7    4.35    0.29
  -1   5   7    4.54    0.23
  -1   5   7    3.93    0.21
  -1   5   7    4.10    0.23
   0  -5  -7   36.50    0.89
   0  -5  -7   37.21    0.92
   0  -5  -7   38.29    0.93
   0  -5  -7   36.93    0.91
   0  -5  -7   37.16    0.95
   0   5   7   37.54    0.94
   0   5   7   36.88    0.92
   0   5   7   36.06    0.93
   0   5   7   35.31    0.98
  -1  -5  -7   49.55    1.17
  -1  -5  -7   49.48    1.16
  -1  -5  -7   49.47    1.16
  -1  -5  -7   50.05    1.18
  -1  -5  -7   48.11    1.20
   1   5   7   50.82    1.19
   1   5   7   47.59    1.23
   1   5   7   48.92    1.14
   1   5   7   47.31    1.19
  -2  -5  -7    2.88    0.18
  -2  -5  -7    2.92    0.18
  -2  -5  -7    2.97    0.19
  -2  -5  -7    2.73    0.16
  -2  -5  -7    2.95    0.19
  -2  -5  -7    2.74    0.19
   2   5   7    3.17    0.22
   2   5   7    2.74    0.19
   2   5   7    3.16    0.19
   2   5   7    3.15    0.15
   2   5   7    3.04    0.17
  -3  -5  -7   16.36    0.50
  -3  -5  -7   16.28    0.50
  -3  -5  -7   16.30    0.47
  -3  -5  -7   16.24    0.48
  -3  -5  -7   16.38    0.48
   3   5   7   16.09    0.52
   3   5   7   15.58    0.44
   3   5   7   14.89    0.47
   3   5   7   15.68    0.49
  -4  -5  -7   28.06    0.74
  -4  -5  -7   26.89    0.73
  -4  -5  -7   27.80    0.72
  -4  -5  -7   27.01    0.74
  -4  -5  -7   28.08    0.76
   4   5   7   27.78    0.70
   4   5   7   27.39    0.75
   4   5   7   26.38    0.70
   4   5   7   26.83    0.77
  -5  -5  -7   20.30    0.58
  -5  -5  -7   18.82    0.59
  -5  -5  -7   19.43    0.57
  -5  -5  -7   19.81    0.60
  -5  -5  -7   19.73    0.56
   5   5   7   20.31    0.62
   5   5   7   20.37    0.57
   5   5   7   18.59    0.61
  -6  -5  -7    2.95    0.21
  -6  -5  -7    2.63    0.20
  -6  -5  -7    3.11    0.24
  -6  -5  -7    3.29    0.25
   6   5   7    3.57    0.23
   6   5   7    3.35    0.26
  -7  -5  -7   -0.11    0.10
  -7  -5  -7   -0.05    0.11
  -7  -5  -7    0.01    0.08
   7   5   7   -0.01    0.11
   7   5   7    0.06    0.14
  -8  -5  -7    2.53    0.21
  -8  -5  -7    2.67    0.25
  -8  -5  -7    2.12    0.24
   8   5   7    2.48    0.24
   8   5   7    2.55    0.28
  -9  -5  -7    0.73    0.17
  -9  -5  -7    0.49    0.14
  -9  -5  -7    0.59    0.19
   9   5   7    0.67    0.20
   9   5   7    0.64    0.18
   7  -6  -7   10.52    0.52
  -7   6   7   10.58    0.42
  -7   6   7   11.76    0.61
   6  -6  -7    1.77    0.24
   6  -6  -7    1.36    0.22
  -6   6   7    1.06    0.24
  -6   6   7    1.43    0.17
   5  -6  -7    5.31    0.32
   5  -6  -7    6.10    0.37
  -5   6   7    5.42    0.29
  -5   6   7    4.76    0.37
   4  -6  -7   24.84    0.78
   4  -6  -7   26.80    0.75
  -4   6   7   25.18    0.83
  -4   6   7   24.49    0.73
  -4   6   7   24.88    0.71
   3  -6  -7    3.02    0.25
   3  -6  -7    2.34    0.20
  -3   6   7    2.94    0.28
  -3   6   7    2.52    0.21
  -3   6   7    2.90    0.21
   2  -6  -7    1.12    0.14
   2  -6  -7    1.38    0.13
   2  -6  -7    1.48    0.15
   2  -6  -7    1.23    0.16
  -2   6   7    1.38    0.20
  -2   6   7    1.52    0.15
  -2   6   7    1.53    0.17
  -2   6   7    1.42    0.15
   1  -6  -7   -0.04    0.08
   1  -6  -7    0.04    0.09
   1  -6  -7   -0.05    0.07
   1  -6  -7   -0.02    0.06
   1  -6  -7    0.10    0.08
  -1   6   7    0.06    0.12
  -1   6   7    0.02    0.08
  -1   6   7    0.01    0.07
  -1   6   7    0.00    0.08
   0  -6  -7   17.48    0.52
   0  -6  -7   17.03    0.49
   0  -6  -7   16.28    0.51
   0  -6  -7   16.99    0.54
   0  -6  -7   16.07    0.49
   0   6   7   16.54    0.57
   0   6   7   16.82    0.52
   0   6   7   17.03    0.53
   0   6   7   17.92    0.54
  -1  -6  -7    6.37    0.27
  -1  -6  -7    6.71    0.28
  -1  -6  -7    7.08    0.31
  -1  -6  -7    7.01    0.28
  -1  -6  -7    6.48    0.29
   1   6   7    6.50    0.33
   1   6   7    7.00    0.29
   1   6   7    7.04    0.30
  -2  -6  -7   17.55    0.52
  -2  -6  -7   17.56    0.53
  -2  -6  -7   17.49    0.54
  -2  -6  -7   17.00    0.51
   2   6   7   17.18    0.56
   2   6   7   17.43    0.52
   2   6   7   17.36    0.54
  -3  -6  -7   26.74    0.75
  -3  -6  -7   26.54    0.75
  -3  -6  -7   28.72    0.75
  -3  -6  -7   27.44    0.73
  -3  -6  -7   27.63    0.74
   3   6   7   26.80    0.78
   3   6   7   27.81    0.73
   3   6   7   26.28    0.75
  -4  -6  -7    6.02    0.30
  -4  -6  -7    6.11    0.29
  -4  -6  -7    6.02    0.28
  -4  -6  -7    6.20    0.29
  -4  -6  -7    6.16    0.27
   4   6   7    5.41    0.31
   4   6   7    6.02    0.27
  -5  -6  -7    5.09    0.29
  -5  -6  -7    5.03    0.27
  -5  -6  -7    5.19    0.29
  -5  -6  -7    4.90    0.25
   5   6   7    4.82    0.24
   5   6   7    4.88    0.31
  -6  -6  -7    6.70    0.31
  -6  -6  -7    7.22    0.34
  -6  -6  -7    7.25    0.33
  -6  -6  -7    7.08    0.34
   6   6   7    7.55    0.38
   6   6   7    6.89    0.31
  -7  -6  -7    0.45    0.14
  -7  -6  -7    0.35    0.12
  -7  -6  -7    0.72    0.16
   7   6   7    0.65    0.18
   7   6   7    0.84    0.15
  -8  -6  -7    0.14    0.12
  -8  -6  -7    0.18    0.15
  -8  -6  -7    0.33    0.15
   8   6   7    0.00    0.13
   8   6   7    0.05    0.15
  -9  -6  -7    3.87    0.35
  -9  -6  -7    3.57    0.28
  -9  -6  -7    3.99    0.32
   9   6   7    3.69    0.36
   9   6   7    4.25    0.33
   6  -7  -7    1.20    0.22
  -6   7   7    0.77    0.24
  -6   7   7    0.81    0.16
   5  -7  -7   13.28    0.55
   5  -7  -7   11.54    0.49
  -5   7   7   12.08    0.58
  -5   7   7   11.92    0.45
   4  -7  -7   12.24    0.52
   4  -7  -7   13.41    0.49
  -4   7   7   12.60    0.56
  -4   7   7   12.60    0.45
   3  -7  -7    2.47    0.24
   3  -7  -7    2.05    0.20
  -3   7   7    2.44    0.20
  -3   7   7    1.81    0.20
  -3   7   7    2.50    0.27
   2  -7  -7    2.64    0.22
   2  -7  -7    2.52    0.23
   2  -7  -7    2.77    0.20
  -2   7   7    2.53    0.20
  -2   7   7    2.78    0.23
  -2   7   7    2.67    0.27
   1  -7  -7    0.02    0.09
   1  -7  -7    0.17    0.09
   1  -7  -7    0.11    0.10
   1  -7  -7    0.03    0.07
  -1   7   7    0.13    0.10
  -1   7   7   -0.06    0.08
  -1   7   7    0.19    0.13
   0  -7  -7    0.89    0.13
   0  -7  -7    0.75    0.12
   0  -7  -7    0.49    0.11
   0  -7  -7    0.69    0.13
   0  -7  -7    0.46    0.12
   0   7   7    0.95    0.17
   0   7   7    0.49    0.12
   0   7   7    0.56    0.12
  -1  -7  -7    1.35    0.15
  -1  -7  -7    1.21    0.15
  -1  -7  -7    1.15    0.14
  -1  -7  -7    1.36    0.16
   1   7   7    1.46    0.16
   1   7   7    1.34    0.18
   1   7   7    0.97    0.14
  -2  -7  -7   21.81    0.65
  -2  -7  -7   21.65    0.61
  -2  -7  -7   20.19    0.62
  -2  -7  -7   21.27    0.62
   2   7   7   20.88    0.66
   2   7   7   20.58    0.64
   2   7   7   21.56    0.62
  -3  -7  -7    5.77    0.29
  -3  -7  -7    6.04    0.30
  -3  -7  -7    6.51    0.38
  -3  -7  -7    6.18    0.29
   3   7   7    6.08    0.33
   3   7   7    5.82    0.30
   3   7   7    5.58    0.28
  -4  -7  -7   45.33    1.17
  -4  -7  -7   46.05    1.16
  -4  -7  -7   45.96    1.16
   4   7   7   46.97    1.21
   4   7   7   45.76    1.14
  -5  -7  -7   31.65    0.88
  -5  -7  -7   32.20    0.88
  -5  -7  -7   31.64    0.87
  -5  -7  -7   32.12    0.86
   5   7   7   31.75    0.92
  -6  -7  -7    0.54    0.14
  -6  -7  -7    0.54    0.13
  -6  -7  -7    0.30    0.14
  -6  -7  -7    0.42    0.12
   6   7   7    0.48    0.16
  -7  -7  -7    3.55    0.26
  -7  -7  -7    3.49    0.27
  -7  -7  -7    2.74    0.26
  -7  -7  -7    2.80    0.23
  -7  -7  -7    3.47    0.27
   7   7   7    3.07    0.30
  -8  -7  -7   -0.15    0.13
  -8  -7  -7    0.14    0.14
  -8  -7  -7    0.10    0.12
   8   7   7    0.31    0.18
   5  -8  -7    6.32    0.42
   5  -8  -7    6.08    0.37
  -5   8   7    6.70    0.46
  -5   8   7    6.47    0.33
   4  -8  -7    2.97    0.29
   4  -8  -7    3.03    0.26
  -4   8   7    2.74    0.31
  -4   8   7    2.56    0.23
   3  -8  -7   21.86    0.87
   3  -8  -7   24.04    0.77
   3  -8  -7   25.09    0.72
  -3   8   7   25.22    0.82
  -3   8   7   23.69    0.73
  -3   8   7   23.06    0.70
   2  -8  -7    9.51    0.40
   2  -8  -7    9.35    0.41
  -2   8   7    9.63    0.46
  -2   8   7    9.90    0.41
  -2   8   7    9.21    0.38
   1  -8  -7    1.64    0.16
   1  -8  -7    1.38    0.18
   1  -8  -7    1.72    0.19
   1  -8  -7    1.73    0.17
  -1   8   7    1.76    0.23
  -1   8   7    1.45    0.18
  -1   8   7    1.52    0.17
   0  -8  -7   10.24    0.40
   0  -8  -7   10.41    0.41
   0  -8  -7   10.05    0.42
   0  -8  -7   11.17    0.39
   0  -8  -7   10.45    0.38
   0   8   7   11.00    0.42
   0   8   7   10.44    0.46
  -1  -8  -7   -0.01    0.09
  -1  -8  -7   -0.01    0.10
  -1  -8  -7    0.14    0.10
  -1  -8  -7    0.11    0.10
   1   8   7   -0.03    0.12
   1   8   7    0.17    0.11
  -2  -8  -7    0.25    0.12
  -2  -8  -7    0.15    0.10
  -2  -8  -7    0.26    0.12
   2   8   7    0.55    0.15
   2   8   7    0.44    0.12
  -3  -8  -7    6.85    0.33
  -3  -8  -7    7.16    0.33
  -3  -8  -7    6.27    0.33
   3   8   7    7.12    0.33
   3   8   7    7.31    0.37
  -4  -8  -7   35.55    0.97
  -4  -8  -7   36.79    0.98
  -4  -8  -7   34.97    0.98
   4   8   7   36.60    1.02
   4   8   7   37.18    0.97
  -5  -8  -7    5.82    0.33
  -5  -8  -7    6.05    0.32
  -5  -8  -7    5.79    0.33
   5   8   7    5.83    0.30
   5   8   7    5.92    0.35
  -6  -8  -7    3.59    0.28
  -6  -8  -7    3.85    0.28
  -6  -8  -7    3.13    0.27
   6   8   7    3.40    0.31
  -7  -8  -7    6.80    0.40
  -7  -8  -7    6.49    0.35
  -7  -8  -7    7.15    0.38
  -7  -8  -7    6.87    0.38
  -7  -8  -7    6.84    0.37
   7   8   7    7.66    0.44
  -8  -8  -7    1.00    0.18
  -8  -8  -7    1.01    0.20
  -8  -8  -7    1.34    0.21
   8   8   7    1.27    0.25
   5  -9  -7    0.20    0.17
  -5   9   7    0.49    0.22
  -5   9   7    0.40    0.13
   4  -9  -7    8.56    0.43
   4  -9  -7    9.10    0.48
  -4   9   7    9.13    0.40
  -4   9   7    7.41    0.48
   3  -9  -7   10.39    0.47
   3  -9  -7    8.31    0.48
  -3   9   7    8.95    0.40
  -3   9   7    9.10    0.41
  -3   9   7    9.13    0.48
   2  -9  -7    6.04    0.33
   2  -9  -7    6.95    0.37
  -2   9   7    5.72    0.39
  -2   9   7    5.74    0.32
  -2   9   7    6.01    0.33
   1  -9  -7    9.32    0.41
   1  -9  -7    8.63    0.40
   1  -9  -7   10.01    0.39
  -1   9   7    8.81    0.45
  -1   9   7    8.97    0.40
   0  -9  -7    6.00    0.34
   0  -9  -7    6.99    0.32
   0  -9  -7    6.32    0.30
   0   9   7    6.58    0.34
   0   9   7    6.89    0.37
  -1  -9  -7    1.26    0.17
  -1  -9  -7    1.51    0.18
  -1  -9  -7    1.75    0.20
   1   9   7    1.46    0.21
   1   9   7    1.89    0.20
  -2  -9  -7    0.08    0.11
  -2  -9  -7    0.14    0.12
  -2  -9  -7   -0.01    0.11
   2   9   7    0.16    0.13
   2   9   7    0.05    0.11
  -3  -9  -7    6.36    0.35
  -3  -9  -7    6.58    0.34
  -3  -9  -7    6.36    0.33
   3   9   7    7.59    0.38
   3   9   7    6.70    0.34
  -4  -9  -7    3.62    0.28
  -4  -9  -7    3.17    0.26
  -4  -9  -7    3.15    0.26
   4   9   7    3.40    0.26
   4   9   7    3.72    0.30
  -5  -9  -7    1.85    0.22
  -5  -9  -7    1.46    0.20
  -5  -9  -7    1.90    0.22
   5   9   7    1.90    0.24
   5   9   7    1.97    0.21
  -6  -9  -7   15.54    0.59
  -6  -9  -7   16.75    0.59
  -6  -9  -7   16.42    0.60
   6   9   7   16.76    0.64
  -7  -9  -7    0.68    0.18
  -7  -9  -7    0.89    0.19
   7   9   7    1.04    0.22
  -4  10   7    1.35    0.19
   3 -10  -7    1.24    0.23
   3 -10  -7    0.89    0.30
  -3  10   7    1.20    0.18
  -3  10   7    1.08    0.22
   2 -10  -7    9.05    0.43
   2 -10  -7    8.71    0.45
  -2  10   7    8.38    0.40
  -2  10   7    9.49    0.48
  -2  10   7    9.68    0.44
   1 -10  -7   18.80    0.62
   1 -10  -7   20.28    0.67
  -1  10   7   19.49    0.66
  -1  10   7   19.88    0.71
   0 -10  -7    0.27    0.12
   0 -10  -7    0.44    0.14
   0 -10  -7    0.33    0.14
   0  10   7    0.31    0.14
   0  10   7    0.29    0.16
  -1 -10  -7    9.10    0.40
  -1 -10  -7    8.35    0.38
  -1 -10  -7    8.66    0.42
   1  10   7    9.03    0.43
   1  10   7    8.99    0.42
  -2 -10  -7   -0.12    0.10
  -2 -10  -7   -0.08    0.12
  -2 -10  -7    0.07    0.13
   2  10   7    0.03    0.12
   2  10   7    0.02    0.13
  -3 -10  -7    3.67    0.28
  -3 -10  -7    3.90    0.28
  -3 -10  -7    3.91    0.30
   3  10   7    4.09    0.32
   3  10   7    3.53    0.29
  -4 -10  -7    1.66    0.21
  -4 -10  -7    0.83    0.18
  -4 -10  -7    1.00    0.19
   4  10   7    1.45    0.22
   4  10   7    1.08    0.18
  -5 -10  -7   19.90    0.68
  -5 -10  -7   20.16    0.68
  -5 -10  -7   19.57    0.67
   5  10   7   20.02    0.71
   5  10   7   19.12    0.65
  -6 -10  -7    1.14    0.20
  -6 -10  -7    1.29    0.21
  -6 -10  -7    1.01    0.20
   6  10   7    1.45    0.24
   2 -11  -7    7.53    0.42
  -2  11   7    7.72    0.42
   1 -11  -7    0.20    0.15
   1 -11  -7    0.01    0.14
  -1  11   7   -0.07    0.13
   0 -11  -7    6.76    0.38
   0 -11  -7    7.32    0.41
   0  11   7    7.15    0.40
  -1 -11  -7    1.89    0.23
  -1 -11  -7    2.26    0.22
  -1 -11  -7    2.24    0.24
   1  11   7    2.47    0.39
   1  11   7    2.15    0.25
  -2 -11  -7    0.18    0.15
  -2 -11  -7    0.13    0.15
  -2 -11  -7    0.18    0.13
   2  11   7   -0.07    0.13
   2  11   7    0.11    0.15
  -3 -11  -7    1.97    0.25
  -3 -11  -7    2.26    0.24
  -3 -11  -7    2.09    0.24
   3  11   7    2.44    0.27
   3  11   7    2.17    0.25
  -4 -11  -7    0.24    0.16
  -4 -11  -7    0.18    0.14
  -4 -11  -7    0.32    0.15
   4  11   7    0.16    0.16
   4  11   7    0.13    0.15
  -5 -11  -7    2.52    0.34
  -5 -11  -7    2.24    0.25
  -5 -11  -7    2.31    0.27
   5  11   7    2.43    0.26
   5  11   7    2.27    0.28
   0 -12  -7   21.60    0.74
   0  12   7   21.98    0.76
  -1 -12  -7    1.51    0.24
   1  12   7    1.47    0.24
  -2 -12  -7    5.47    0.35
  -2 -12  -7    5.11    0.37
   2  12   7    5.40    0.38
  -3 -12  -7    1.19    0.20
  -3 -12  -7    1.13    0.22
   3  12   7    1.63    0.24
   1  11  -8    2.24    0.28
  -1 -11   8    1.59    0.30
  -1 -11   8    1.70    0.24
   0  11  -8    9.17    0.48
   0 -11   8    9.76    0.48
   0 -11   8    9.16    0.57
   4  10  -8    2.27    0.28
  -4 -10   8    3.18    0.29
   3  10  -8    1.49    0.24
  -3 -10   8    1.00    0.25
  -3 -10   8    1.56    0.21
   2  10  -8    2.00    0.26
  -2 -10   8    1.91    0.30
  -2 -10   8    1.79    0.32
   1  10  -8    0.38    0.17
  -1 -10   8    0.27    0.19
  -1 -10   8    0.50    0.16
   0  10  -8    2.03    0.25
   0 -10   8    1.78    0.23
   0 -10   8    2.13    0.31
  -1  10  -8    1.67    0.23
  -1  10  -8    1.93    0.22
   1 -10   8    2.28    0.33
   1 -10   8    2.00    0.24
  -2  10  -8   16.10    0.58
   2 -10   8   16.52    0.62
   2 -10   8   18.37    0.77
  -3  10  -8    1.24    0.19
   3 -10   8    0.97    0.27
   5   9  -8    6.45    0.41
  -5  -9   8    7.57    0.42
   4   9  -8    0.87    0.20
  -4  -9   8    0.98    0.19
   3   9  -8   14.03    0.56
  -3  -9   8   14.04    0.54
   2   9  -8    1.40    0.22
  -2  -9   8    1.45    0.19
  -2  -9   8    1.50    0.26
   1   9  -8    1.45    0.20
  -1  -9   8    1.34    0.19
  -1  -9   8    1.36    0.25
   0   9  -8    1.93    0.21
   0   9  -8    2.03    0.22
   0  -9   8    1.98    0.22
   0  -9   8    1.62    0.26
  -1   9  -8    7.15    0.37
  -1   9  -8    7.55    0.36
   1  -9   8    7.20    0.47
   1  -9   8    7.71    0.38
  -2   9  -8    1.33    0.18
   2  -9   8    1.12    0.24
  -3   9  -8    2.99    0.24
   3  -9   8    3.31    0.36
  -4   9  -8   11.24    0.42
   4  -9   8   10.49    0.60
   6   8  -8    6.05    0.39
  -6  -8   8    5.48    0.41
  -6  -8   8    5.84    0.38
   5   8  -8    0.11    0.15
  -5  -8   8    0.09    0.14
  -5  -8   8    0.00    0.15
   4   8  -8   16.30    0.60
  -4  -8   8   16.43    0.59
  -4  -8   8   14.82    0.60
   3   8  -8    1.69    0.21
  -3  -8   8    1.64    0.21
  -3  -8   8    1.42    0.22
   2   8  -8    2.39    0.24
  -2  -8   8    2.55    0.23
  -2  -8   8    2.27    0.29
   1   8  -8    4.00    0.29
  -1  -8   8    3.89    0.25
  -1  -8   8    4.62    0.28
  -1  -8   8    4.26    0.35
   0   8  -8    3.03    0.25
   0   8  -8    2.79    0.24
   0  -8   8    3.49    0.34
   0  -8   8    3.54    0.25
  -1   8  -8    0.28    0.12
  -1   8  -8    0.17    0.11
   1  -8   8    0.30    0.17
   1  -8   8    0.31    0.13
  -2   8  -8    1.52    0.18
   2  -8   8    1.49    0.24
  -3   8  -8   10.86    0.40
  -3   8  -8   10.93    0.48
   3  -8   8    9.19    0.53
  -4   8  -8    6.93    0.31
  -4   8  -8    6.75    0.40
   4  -8   8    6.67    0.47
  -5   8  -8    3.79    0.39
  -5   8  -8    3.19    0.22
   5  -8   8    2.92    0.34
   6   7  -8    0.35    0.19
   6   7  -8    0.21    0.14
  -6  -7   8    0.33    0.16
  -6  -7   8    0.33    0.17
   5   7  -8    6.30    0.37
  -5  -7   8    6.89    0.40
  -5  -7   8    6.66    0.37
   4   7  -8   11.05    0.47
  -4  -7   8   11.16    0.49
  -4  -7   8   10.39    0.45
   3   7  -8    2.15    0.23
  -3  -7   8    1.84    0.21
  -3  -7   8    1.86    0.23
   2   7  -8   27.35    0.80
  -2  -7   8   27.27    0.87
  -2  -7   8   26.20    0.77
  -2  -7   8   27.39    0.82
   1   7  -8    4.97    0.30
  -1  -7   8    4.98    0.35
  -1  -7   8    4.68    0.26
  -1  -7   8    4.94    0.26
  -1  -7   8    4.81    0.31
   0   7  -8    0.97    0.15
   0   7  -8    0.88    0.14
   0  -7   8    0.83    0.15
   0  -7   8    0.98    0.15
   0  -7   8    1.23    0.21
  -1   7  -8    2.08    0.19
  -1   7  -8    2.52    0.21
   1  -7   8    1.85    0.24
   1  -7   8    2.27    0.20
   1  -7   8    2.66    0.22
  -2   7  -8    0.19    0.10
   2  -7   8    0.40    0.16
  -3   7  -8    3.08    0.27
  -3   7  -8    2.53    0.20
   3  -7   8    2.55    0.29
  -4   7  -8    4.20    0.24
  -4   7  -8    4.54    0.33
   4  -7   8    4.41    0.38
  -5   7  -8   11.73    0.59
  -5   7  -8   12.44    0.54
  -5   7  -8   12.28    0.40
   5  -7   8   11.42    0.58
  -6   7  -8    2.96    0.19
   6  -7   8    2.90    0.35
   7   6  -8    0.10    0.17
  -7  -6   8    0.20    0.16
  -7  -6   8    0.09    0.17
   6   6  -8    0.19    0.17
  -6  -6   8   -0.09    0.12
  -6  -6   8   -0.01    0.15
   5   6  -8    4.78    0.32
  -5  -6   8    5.83    0.37
  -5  -6   8    5.94    0.34
   4   6  -8    0.87    0.16
  -4  -6   8    0.67    0.17
  -4  -6   8    0.57    0.14
   3   6  -8   26.86    0.80
  -3  -6   8   28.42    0.80
  -3  -6   8   28.07    0.83
   2   6  -8   15.50    0.53
  -2  -6   8   15.57    0.56
  -2  -6   8   15.11    0.51
  -2  -6   8   14.43    0.53
  -2  -6   8   16.37    0.59
   1   6  -8    0.63    0.13
  -1  -6   8    0.55    0.13
  -1  -6   8    0.63    0.11
  -1  -6   8    0.84    0.13
  -1  -6   8    0.48    0.15
  -1  -6   8    0.72    0.15
   0   6  -8   39.60    1.01
   0   6  -8   39.06    1.00
   0  -6   8   38.60    0.98
   0  -6   8   37.86    0.97
   0  -6   8   38.10    1.01
   0  -6   8   39.34    1.03
   0  -6   8   39.12    1.11
  -1   6  -8   17.54    0.56
  -1   6  -8   18.26    0.57
  -1   6  -8   18.68    0.55
  -1   6  -8   18.06    0.54
   1  -6   8   17.61    0.65
   1  -6   8   17.39    0.57
   1  -6   8   18.50    0.57
  -2   6  -8    0.88    0.13
  -2   6  -8    0.95    0.13
  -2   6  -8    0.88    0.16
   2  -6   8    0.80    0.17
   2  -6   8    0.93    0.14
  -3   6  -8    0.26    0.12
  -3   6  -8    0.11    0.09
   3  -6   8    0.22    0.10
   3  -6   8    0.30    0.15
  -4   6  -8    2.64    0.18
  -4   6  -8    2.97    0.26
   4  -6   8    2.51    0.21
   4  -6   8    2.56    0.29
  -5   6  -8    4.23    0.37
  -5   6  -8    4.04    0.21
  -5   6  -8    4.59    0.32
   5  -6   8    3.67    0.35
  -6   6  -8    3.88    0.38
  -6   6  -8    4.14    0.21
  -6   6  -8    4.23    0.33
   6  -6   8    3.79    0.33
   6  -6   8    4.64    0.40
  -7   6  -8    4.43    0.41
   7  -6   8    3.64    0.39
   7   5  -8   17.23    0.67
  -7  -5   8   17.37    0.62
  -7  -5   8   15.49    0.65
   6   5  -8    0.14    0.16
  -6  -5   8   -0.06    0.11
  -6  -5   8    0.03    0.14
   5   5  -8    0.19    0.12
  -5  -5   8    0.02    0.11
  -5  -5   8   -0.01    0.13
   4   5  -8    2.91    0.24
  -4  -5   8    2.49    0.24
  -4  -5   8    2.78    0.23
   3   5  -8   14.32    0.54
   3   5  -8   14.13    0.50
  -3  -5   8   14.15    0.52
  -3  -5   8   15.01    0.71
  -3  -5   8   14.48    0.49
   2   5  -8    1.00    0.15
   2   5  -8    0.86    0.15
  -2  -5   8    1.12    0.15
  -2  -5   8    1.01    0.17
  -2  -5   8    1.16    0.16
   1   5  -8   16.49    0.53
   1   5  -8   16.66    0.48
   1   5  -8   15.73    0.50
   1   5  -8   16.07    0.51
  -1  -5   8   15.84    0.57
  -1  -5   8   16.24    0.55
  -1  -5   8   16.12    0.53
  -1  -5   8   16.02    0.50
   0   5  -8    5.35    0.26
   0   5  -8    5.65    0.27
   0   5  -8    5.61    0.28
   0   5  -8    5.88    0.27
   0  -5   8    5.24    0.25
   0  -5   8    5.68    0.30
   0  -5   8    5.70    0.33
  -1   5  -8    0.04    0.08
  -1   5  -8    0.07    0.08
  -1   5  -8   -0.03    0.08
  -1   5  -8    0.11    0.08
   1  -5   8   -0.06    0.11
   1  -5   8    0.02    0.09
   1  -5   8    0.21    0.10
  -2   5  -8   21.51    0.60
  -2   5  -8   20.83    0.60
  -2   5  -8   21.09    0.65
  -2   5  -8   21.96    0.61
   2  -5   8   22.65    0.65
   2  -5   8   23.15    0.66
   2  -5   8   22.20    0.73
  -3   5  -8    0.68    0.10
  -3   5  -8    0.67    0.14
   3  -5   8    0.56    0.12
   3  -5   8    0.50    0.15
   3  -5   8    0.70    0.13
  -4   5  -8    0.88    0.12
  -4   5  -8    0.74    0.16
   4  -5   8    1.24    0.20
   4  -5   8    1.07    0.15
  -5   5  -8    0.70    0.16
  -5   5  -8    1.30    0.13
   5  -5   8    0.51    0.18
   5  -5   8    0.82    0.14
  -6   5  -8   10.12    0.52
  -6   5  -8   10.71    0.47
  -6   5  -8   10.11    0.33
   6  -5   8   11.04    0.43
   6  -5   8   10.08    0.53
  -7   5  -8   10.31    0.49
  -7   5  -8    9.92    0.53
   7  -5   8    9.43    0.43
   7  -5   8    9.25    0.54
   7  -5   8    9.97    0.49
   8   4  -8    5.48    0.44
  -8  -4   8    6.13    0.42
  -8  -4   8    6.04    0.41
  -8  -4   8    6.39    0.39
  -8  -4   8    8.26    0.57
   7   4  -8    3.25    0.31
  -7  -4   8    3.22    0.30
  -7  -4   8    3.25    0.31
  -7  -4   8    3.04    0.28
   6   4  -8    6.49    0.39
  -6  -4   8    5.33    0.32
  -6  -4   8    5.53    0.36
   5   4  -8    2.99    0.27
   5   4  -8    3.13    0.24
  -5  -4   8    2.67    0.26
  -5  -4   8    2.89    0.24
   4   4  -8    0.26    0.12
   4   4  -8    0.12    0.10
  -4  -4   8    0.00    0.10
  -4  -4   8    0.13    0.12
   3   4  -8    1.03    0.15
   3   4  -8    1.07    0.16
  -3  -4   8    0.91    0.14
  -3  -4   8    1.08    0.16
  -3  -4   8    1.08    0.17
   2   4  -8   32.63    0.86
   2   4  -8   32.11    0.88
  -2  -4   8   31.64    0.85
  -2  -4   8   32.82    0.89
  -2  -4   8   32.32    0.89
   1   4  -8   51.69    1.28
   1   4  -8   54.67    1.26
   1   4  -8   54.40    1.33
   1   4  -8   54.80    1.30
  -1  -4   8   52.15    1.32
  -1  -4   8   53.77    1.29
  -1  -4   8   52.34    1.33
  -1  -4   8   55.56    1.36
   0   4  -8    9.61    0.35
   0   4  -8   10.21    0.37
   0   4  -8   10.01    0.35
   0   4  -8    9.87    0.35
   0  -4   8    9.79    0.37
   0  -4   8    9.74    0.39
   0  -4   8    9.32    0.41
   0  -4   8   10.89    0.35
  -1   4  -8   21.70    0.60
  -1   4  -8   21.40    0.62
  -1   4  -8   21.34    0.60
  -1   4  -8   21.40    0.62
   1  -4   8   22.56    0.69
   1  -4   8   22.60    0.65
   1  -4   8   22.25    0.66
   1  -4   8   21.66    0.58
  -2   4  -8   28.33    0.79
  -2   4  -8   27.91    0.75
  -2   4  -8   29.24    0.76
  -2   4  -8   29.17    0.75
   2  -4   8   30.41    0.81
   2  -4   8   29.30    0.86
   2  -4   8   30.00    0.80
  -3   4  -8    2.71    0.22
  -3   4  -8    2.50    0.16
  -3   4  -8    2.19    0.14
   3  -4   8    2.29    0.20
   3  -4   8    2.22    0.19
   3  -4   8    2.26    0.23
  -4   4  -8    7.98    0.29
  -4   4  -8    8.80    0.37
   4  -4   8    7.80    0.41
   4  -4   8    7.28    0.33
   4  -4   8    8.64    0.35
  -5   4  -8   -0.01    0.11
  -5   4  -8    0.22    0.08
   5  -4   8    0.74    0.13
   5  -4   8    0.07    0.09
   5  -4   8    0.15    0.14
  -6   4  -8    2.01    0.14
  -6   4  -8    1.96    0.23
   6  -4   8    2.35    0.22
   6  -4   8    1.91    0.26
  -7   4  -8    1.33    0.21
   7  -4   8    0.84    0.22
   7  -4   8    0.65    0.16
  -8   4  -8    6.40    0.40
  -8   4  -8    5.17    0.38
   8  -4   8    5.42    0.43
   8  -4   8    5.18    0.35
   8   3  -8    2.30    0.29
  -8  -3   8    2.94    0.32
  -8  -3   8    2.51    0.27
  -8  -3   8    2.84    0.27
  -8  -3   8    2.36    0.29
   7   3  -8    8.00    0.44
  -7  -3   8    7.68    0.43
  -7  -3   8    7.46    0.39
  -7  -3   8    7.52    0.41
  -7  -3   8    7.65    0.39
   6   3  -8   12.46    0.52
  -6  -3   8   11.71    0.47
  -6  -3   8   13.62    0.49
  -6  -3   8   12.40    0.49
  -6  -3   8   12.09    0.51
   5   3  -8    3.86    0.24
   5   3  -8    3.64    0.29
  -5  -3   8    3.71    0.26
  -5  -3   8    4.34    0.29
  -5  -3   8    4.17    0.26
   4   3  -8    3.97    0.25
   4   3  -8    4.32    0.27
   4   3  -8    3.46    0.26
  -4  -3   8    4.35    0.26
  -4  -3   8    4.23    0.28
  -4  -3   8    4.06    0.24
   3   3  -8    0.13    0.09
   3   3  -8    0.06    0.09
  -3  -3   8    0.03    0.08
  -3  -3   8    0.07    0.08
  -3  -3   8   -0.01    0.10
   2   3  -8    5.96    0.28
   2   3  -8    6.16    0.29
  -2  -3   8    6.02    0.31
  -2  -3   8    5.82    0.29
  -2  -3   8    5.98    0.27
   1   3  -8    2.29    0.18
   1   3  -8    2.39    0.18
   1   3  -8    2.45    0.18
   1   3  -8    2.47    0.16
  -1  -3   8    2.81    0.20
  -1  -3   8    2.68    0.22
  -1  -3   8    2.32    0.20
  -1  -3   8    2.45    0.18
   0   3  -8   12.79    0.40
   0   3  -8   12.24    0.39
   0   3  -8   12.46    0.42
   0   3  -8   12.13    0.39
   0  -3   8   12.28    0.44
   0  -3   8   12.32    0.45
   0  -3   8   11.97    0.42
   0  -3   8   12.58    0.40
  -1   3  -8   84.76    1.94
  -1   3  -8   85.04    1.94
  -1   3  -8   87.12    1.92
  -1   3  -8   86.13    1.92
   1  -3   8   86.33    1.90
   1  -3   8   85.29    2.00
   1  -3   8   83.78    1.98
   1  -3   8   80.22    1.97
   1  -3   8   85.00    1.96
  -2   3  -8    0.09    0.07
  -2   3  -8    0.09    0.07
  -2   3  -8    0.20    0.09
  -2   3  -8    0.12    0.07
   2  -3   8    0.18    0.11
   2  -3   8    0.05    0.08
   2  -3   8    0.07    0.08
  -3   3  -8    0.28    0.08
  -3   3  -8    0.14    0.10
  -3   3  -8    0.20    0.07
   3  -3   8    0.17    0.12
   3  -3   8    0.26    0.10
   3  -3   8    0.27    0.10
  -4   3  -8    2.83    0.23
  -4   3  -8    3.31    0.17
   4  -3   8    2.85    0.21
   4  -3   8    3.82    0.23
   4  -3   8    3.09    0.26
  -5   3  -8    0.23    0.07
  -5   3  -8    0.01    0.10
   5  -3   8    0.15    0.12
   5  -3   8    0.17    0.10
   5  -3   8    0.18    0.10
  -6   3  -8    0.19    0.12
  -6   3  -8    0.20    0.07
   6  -3   8    0.08    0.10
   6  -3   8    0.17    0.14
  -7   3  -8    3.76    0.30
  -7   3  -8    3.77    0.15
  -7   3  -8    3.67    0.30
   7  -3   8    3.44    0.34
   7  -3   8    3.54    0.27
  -8   3  -8    4.65    0.35
  -8   3  -8    5.08    0.36
   8  -3   8    4.79    0.41
   8  -3   8    5.35    0.35
   8   2  -8    0.20    0.18
  -8  -2   8    0.23    0.16
  -8  -2   8    0.30    0.14
  -8  -2   8    0.18    0.18
   7   2  -8    8.45    0.45
  -7  -2   8    8.44    0.39
  -7  -2   8    7.79    0.39
  -7  -2   8    7.50    0.43
  -7  -2   8    7.55    0.42
   6   2  -8    9.58    0.44
  -6  -2   8   10.01    0.42
  -6  -2   8   10.65    0.46
  -6  -2   8    9.55    0.43
  -6  -2   8   10.20    0.42
   5   2  -8    8.36    0.38
   5   2  -8    7.47    0.32
   5   2  -8    8.32    0.39
  -5  -2   8    7.99    0.38
  -5  -2   8    8.07    0.36
  -5  -2   8    8.68    0.36
  -5  -2   8    8.58    0.37
   4   2  -8    8.65    0.37
   4   2  -8    8.30    0.37
   4   2  -8    9.02    0.34
  -4  -2   8    8.36    0.35
  -4  -2   8    8.89    0.36
  -4  -2   8    9.67    0.37
  -4  -2   8    8.74    0.37
  -4  -2   8    9.00    0.39
   3   2  -8    5.40    0.26
   3   2  -8    4.95    0.27
  -3  -2   8    5.24    0.28
  -3  -2   8    5.62    0.27
  -3  -2   8    5.43    0.25
  -3  -2   8    5.18    0.28
   2   2  -8    0.98    0.13
   2   2  -8    0.83    0.13
  -2  -2   8    0.78    0.12
  -2  -2   8    0.74    0.14
  -2  -2   8    0.57    0.11
  -2  -2   8    0.66    0.11
  -2  -2   8    0.57    0.11
   1   2  -8   11.45    0.37
   1   2  -8   11.03    0.34
   1   2  -8   11.45    0.40
   1   2  -8   11.15    0.38
  -1  -2   8   11.27    0.40
  -1  -2   8   11.24    0.41
  -1  -2   8   10.72    0.37
  -1  -2   8   11.11    0.40
   0   2  -8   42.37    1.00
   0   2  -8   41.23    1.02
   0   2  -8   41.82    1.01
   0   2  -8   39.65    1.03
   0  -2   8   39.99    1.04
   0  -2   8   43.84    1.01
   0  -2   8   40.84    1.05
   0  -2   8   40.88    1.04
  -1   2  -8   11.90    0.39
  -1   2  -8   11.99    0.40
  -1   2  -8   12.32    0.39
  -1   2  -8   13.16    0.39
   1  -2   8   11.50    0.42
   1  -2   8   13.19    0.44
   1  -2   8   12.73    0.38
   1  -2   8   12.01    0.41
   1  -2   8   12.37    0.41
  -2   2  -8   42.23    1.01
  -2   2  -8   42.87    1.01
  -2   2  -8   41.99    1.02
  -2   2  -8   42.98    1.05
   2  -2   8   42.16    1.06
   2  -2   8   41.58    1.09
   2  -2   8   41.34    1.07
  -3   2  -8   93.91    2.13
  -3   2  -8   96.52    2.14
  -3   2  -8   95.69    2.14
  -3   2  -8   97.97    2.21
   3  -2   8   96.24    2.25
   3  -2   8   97.66    2.20
   3  -2   8   96.73    2.21
  -4   2  -8    0.20    0.07
  -4   2  -8    0.62    0.12
   4  -2   8    0.23    0.10
   4  -2   8    0.25    0.10
   4  -2   8    0.20    0.12
  -5   2  -8   13.40    0.40
  -5   2  -8   13.45    0.48
  -5   2  -8   14.41    0.50
   5  -2   8   13.44    0.47
   5  -2   8   14.66    0.55
   5  -2   8   14.02    0.48
  -6   2  -8    1.02    0.17
  -6   2  -8    0.99    0.17
  -6   2  -8    1.12    0.10
   6  -2   8    1.21    0.20
   6  -2   8    1.23    0.17
  -7   2  -8    0.22    0.13
  -7   2  -8    0.08    0.06
  -7   2  -8    0.18    0.14
   7  -2   8    0.13    0.17
   7  -2   8    0.14    0.12
  -8   2  -8   -0.01    0.13
  -8   2  -8    0.12    0.14
   8  -2   8   -0.04    0.13
   8  -2   8    0.06    0.17
   8   1  -8    3.89    0.35
  -8  -1   8    5.23    0.38
  -8  -1   8    4.84    0.39
  -8  -1   8    4.25    0.31
   7   1  -8   11.19    0.51
  -7  -1   8   10.95    0.50
  -7  -1   8   11.13    0.47
  -7  -1   8   11.25    0.46
  -7  -1   8   11.60    0.51
   6   1  -8    4.17    0.32
   6   1  -8    3.47    0.28
  -6  -1   8    4.74    0.29
  -6  -1   8    3.97    0.30
  -6  -1   8    3.96    0.30
  -6  -1   8    3.75    0.26
   5   1  -8   25.16    0.76
   5   1  -8   25.81    0.76
  -5  -1   8   25.03    0.72
  -5  -1   8   25.52    0.76
  -5  -1   8   24.37    0.76
  -5  -1   8   26.69    0.74
   4   1  -8   11.47    0.39
   4   1  -8   11.70    0.43
   4   1  -8   10.33    0.51
  -4  -1   8   11.47    0.43
  -4  -1   8   11.59    0.41
  -4  -1   8   12.23    0.44
  -4  -1   8   11.80    0.42
  -4  -1   8   10.66    0.43
   3   1  -8    3.67    0.21
   3   1  -8    3.56    0.23
   3   1  -8    3.63    0.22
  -3  -1   8    3.62    0.22
  -3  -1   8    3.84    0.22
  -3  -1   8    3.58    0.22
  -3  -1   8    3.25    0.22
  -3  -1   8    3.29    0.24
   2   1  -8   20.88    0.58
   2   1  -8   19.88    0.61
  -2  -1   8   21.00    0.61
  -2  -1   8   19.52    0.61
  -2  -1   8   20.13    0.57
  -2  -1   8   20.47    0.58
  -2  -1   8   20.44    0.59
  -2  -1   8   21.55    0.70
   1   1  -8    0.18    0.07
   1   1  -8    0.08    0.06
   1   1  -8    0.04    0.07
   1   1  -8    0.18    0.08
  -1  -1   8    0.20    0.09
  -1  -1   8    0.11    0.07
  -1  -1   8    0.05    0.08
  -1  -1   8    0.03    0.07
  -1  -1   8    0.00    0.07
   0   1  -8    1.00    0.13
   0   1  -8    1.17    0.12
   0   1  -8    0.98    0.12
   0   1  -8    1.08    0.11
   0  -1   8    0.95    0.11
   0  -1   8    0.79    0.12
   0  -1   8    0.98    0.12
   0  -1   8    1.26    0.14
  -1   1  -8   13.18    0.40
  -1   1  -8   13.33    0.42
  -1   1  -8   13.04    0.41
  -1   1  -8   13.73    0.42
   1  -1   8   13.90    0.44
   1  -1   8   13.76    0.44
   1  -1   8   13.29    0.43
   1  -1   8   13.01    0.45
  -2   1  -8   43.64    1.03
  -2   1  -8   42.35    1.03
  -2   1  -8   42.12    1.04
  -2   1  -8   43.83    1.06
   2  -1   8   43.46    1.07
   2  -1   8   43.30    1.00
   2  -1   8   42.62    1.11
   2  -1   8   42.03    1.08
   2  -1   8   43.51    1.09
  -3   1  -8    2.77    0.16
  -3   1  -8    2.74    0.16
  -3   1  -8    2.64    0.15
  -3   1  -8    2.37    0.19
  -3   1  -8    2.48    0.18
   3  -1   8    2.48    0.19
   3  -1   8    2.47    0.18
   3  -1   8    2.24    0.20
  -4   1  -8    4.64    0.18
  -4   1  -8    4.55    0.20
  -4   1  -8    4.59    0.25
  -4   1  -8    4.86    0.26
   4  -1   8    5.11    0.26
   4  -1   8    4.61    0.25
   4  -1   8    5.05    0.29
  -5   1  -8   15.38    0.51
  -5   1  -8   15.38    0.43
  -5   1  -8   15.07    0.52
   5  -1   8   15.79    0.52
   5  -1   8   15.07    0.50
   5  -1   8   15.67    0.56
  -6   1  -8    0.77    0.15
  -6   1  -8    0.86    0.15
  -6   1  -8    1.15    0.11
   6  -1   8    0.87    0.18
   6  -1   8    0.91    0.15
  -7   1  -8    0.41    0.08
  -7   1  -8    0.38    0.14
  -7   1  -8    0.51    0.15
   7  -1   8    0.74    0.15
   7  -1   8    0.48    0.18
  -8   1  -8    0.09    0.14
  -8   1  -8    0.07    0.14
  -8   1  -8    0.01    0.06
   8  -1   8   -0.02    0.13
   8  -1   8    0.16    0.16
  -9   1  -8    7.96    0.43
   9  -1   8    7.73    0.43
   9  -1   8    6.74    0.48
   8   0  -8    0.27    0.18
  -8   0   8    0.14    0.16
  -8   0   8   -0.05    0.16
  -8   0   8    0.27    0.14
   7   0  -8    0.35    0.15
   7   0  -8    0.09    0.15
  -7   0   8    0.18    0.15
  -7   0   8    0.27    0.15
  -7   0   8    0.36    0.13
   6   0  -8   11.53    0.48
   6   0  -8   10.74    0.47
  -6   0   8   12.49    0.48
  -6   0   8   10.63    0.48
  -6   0   8   11.13    0.44
  -6   0   8   12.82    0.46
   5   0  -8    9.06    0.40
   5   0  -8    8.92    0.40
  -5   0   8    9.90    0.39
  -5   0   8    8.88    0.37
  -5   0   8    8.87    0.39
  -5   0   8    9.60    0.42
   4   0  -8    1.90    0.20
   4   0  -8    2.29    0.20
   4   0  -8    2.17    0.17
  -4   0   8    2.02    0.20
  -4   0   8    2.28    0.21
  -4   0   8    2.13    0.19
  -4   0   8    2.11    0.19
  -4   0   8    2.23    0.19
   3   0  -8   48.70    1.20
   3   0  -8   49.47    1.18
   3   0  -8   47.49    1.23
  -3   0   8   49.78    1.22
  -3   0   8   48.78    1.20
  -3   0   8   49.79    1.19
  -3   0   8   47.23    1.21
  -3   0   8   48.88    1.22
   2   0  -8   13.97    0.44
   2   0  -8   13.67    0.47
   2   0  -8   14.36    0.44
  -2   0   8   14.20    0.46
  -2   0   8   13.70    0.47
  -2   0   8   14.00    0.44
  -2   0   8   14.53    0.47
   1   0  -8    3.38    0.16
   1   0  -8    3.14    0.20
   1   0  -8    3.36    0.19
  -1   0   8    3.48    0.20
  -1   0   8    3.01    0.20
  -1   0   8    3.75    0.21
  -1   0   8    3.37    0.22
  -1   0   8    3.28    0.17
   0   0  -8    2.35    0.16
   0   0  -8    2.30    0.15
   0   0  -8    2.05    0.16
   0   0  -8    2.16    0.15
   0   0   8    2.34    0.16
   0   0   8    2.17    0.18
   0   0   8    2.37    0.17
   0   0   8    2.49    0.16
   0   0   8    2.47    0.18
  -1   0  -8   15.61    0.45
  -1   0  -8   16.47    0.44
  -1   0  -8   15.30    0.45
  -1   0  -8   16.76    0.47
  -1   0  -8   15.96    0.48
   1   0   8   15.28    0.45
   1   0   8   15.51    0.47
   1   0   8   15.39    0.49
   1   0   8   14.90    0.46
   1   0   8   15.37    0.48
  -2   0  -8   13.65    0.42
  -2   0  -8   14.05    0.41
  -2   0  -8   13.96    0.40
  -2   0  -8   13.28    0.40
   2   0   8   13.28    0.44
   2   0   8   13.04    0.44
   2   0   8   13.60    0.38
   2   0   8   13.09    0.42
   2   0   8   13.61    0.43
   2   0   8   13.42    0.41
  -3   0  -8   20.64    0.54
  -3   0  -8   20.17    0.58
  -3   0  -8   19.56    0.56
  -3   0  -8   19.80    0.54
  -3   0  -8   19.03    0.53
   3   0   8   20.73    0.60
   3   0   8   19.77    0.55
   3   0   8   19.34    0.57
   3   0   8   19.67    0.58
  -4   0  -8   38.93    0.97
  -4   0  -8   37.73    0.92
  -4   0  -8   38.65    0.99
  -4   0  -8   38.29    0.89
   4   0   8   38.78    0.95
   4   0   8   38.17    0.97
   4   0   8   36.62    1.00
   4   0   8   37.15    0.98
  -5   0  -8    5.55    0.30
  -5   0  -8    5.49    0.29
  -5   0  -8    5.70    0.23
   5   0   8    6.36    0.29
   5   0   8    5.77    0.32
   5   0   8    6.15    0.27
  -6   0  -8   11.83    0.46
  -6   0  -8   11.58    0.45
  -6   0  -8   11.63    0.35
   6   0   8   11.66    0.49
   6   0   8   11.55    0.44
   6   0   8   11.94    0.43
  -7   0  -8   10.55    0.32
  -7   0  -8   10.70    0.45
  -7   0  -8   10.20    0.45
   7   0   8   10.25    0.49
   7   0   8   11.04    0.44
   7   0   8   10.47    0.43
  -8   0  -8    0.04    0.14
  -8   0  -8    0.11    0.14
  -8   0  -8    0.13    0.07
   8   0   8    0.07    0.16
   8   0   8   -0.01    0.13
  -9   0  -8    0.05    0.15
  -9   0  -8    0.04    0.07
   9   0   8    0.41    0.20
   9   0   8    0.14    0.16
   8  -1  -8    1.20    0.23
  -8   1   8    1.30    0.23
  -8   1   8    1.07    0.24
  -8   1   8    1.49    0.20
   7  -1  -8    0.54    0.18
   7  -1  -8    0.99    0.19
  -7   1   8    0.58    0.17
  -7   1   8    0.58    0.19
  -7   1   8    0.55    0.15
   6  -1  -8    7.16    0.38
   6  -1  -8    6.54    0.37
  -6   1   8    7.51    0.37
  -6   1   8    6.75    0.34
  -6   1   8    7.64    0.41
  -6   1   8    6.73    0.34
   5  -1  -8    2.58    0.24
   5  -1  -8    2.53    0.23
  -5   1   8    2.92    0.26
  -5   1   8    2.78    0.23
  -5   1   8    2.35    0.20
  -5   1   8    2.59    0.22
   4  -1  -8   10.81    0.37
   4  -1  -8   11.09    0.44
   4  -1  -8   11.63    0.43
  -4   1   8   11.99    0.42
  -4   1   8   12.06    0.42
  -4   1   8   11.52    0.43
  -4   1   8   11.60    0.45
  -4   1   8   12.06    0.42
   3  -1  -8   29.18    0.75
   3  -1  -8   28.42    0.77
   3  -1  -8   27.05    0.80
  -3   1   8   29.66    0.78
  -3   1   8   30.22    0.80
  -3   1   8   28.34    0.79
  -3   1   8   29.36    0.81
  -3   1   8   29.39    0.79
   2  -1  -8    0.24    0.09
   2  -1  -8    0.24    0.09
   2  -1  -8    0.31    0.08
  -2   1   8    0.14    0.09
  -2   1   8    0.20    0.08
  -2   1   8    0.15    0.10
  -2   1   8    0.31    0.09
  -2   1   8    0.16    0.08
   1  -1  -8   21.33    0.57
   1  -1  -8   21.65    0.59
   1  -1  -8   21.59    0.62
   1  -1  -8   21.29    0.56
  -1   1   8   21.35    0.60
  -1   1   8   21.63    0.62
  -1   1   8   21.31    0.62
  -1   1   8   23.14    0.60
  -1   1   8   20.98    0.62
   0  -1  -8    7.45    0.28
   0  -1  -8    7.83    0.28
   0  -1  -8    7.79    0.25
   0  -1  -8    7.73    0.29
   0  -1  -8    7.58    0.31
   0   1   8    7.96    0.31
   0   1   8    8.17    0.27
   0   1   8    7.56    0.29
   0   1   8    7.97    0.31
   0   1   8    7.90    0.32
  -1  -1  -8    8.36    0.30
  -1  -1  -8    8.93    0.29
  -1  -1  -8    8.24    0.30
  -1  -1  -8    8.75    0.32
  -1  -1  -8    8.58    0.30
   1   1   8    8.90    0.33
   1   1   8    8.22    0.30
   1   1   8    8.52    0.31
   1   1   8    8.54    0.30
   1   1   8    8.26    0.32
   1   1   8    8.91    0.32
  -2  -1  -8    4.27    0.20
  -2  -1  -8    4.56    0.22
  -2  -1  -8    4.16    0.21
  -2  -1  -8    4.44    0.21
  -2  -1  -8    4.79    0.22
   2   1   8    4.59    0.22
   2   1   8    4.86    0.23
   2   1   8    4.56    0.22
   2   1   8    4.30    0.23
   2   1   8    4.67    0.20
   2   1   8    4.43    0.22
  -3  -1  -8   73.98    1.72
  -3  -1  -8   75.25    1.72
  -3  -1  -8   75.81    1.75
  -3  -1  -8   78.46    1.73
  -3  -1  -8   76.75    1.77
   3   1   8   77.02    1.75
   3   1   8   75.86    1.77
   3   1   8   74.37    1.76
   3   1   8   76.83    1.71
   3   1   8   76.05    1.74
  -4  -1  -8   19.37    0.59
  -4  -1  -8   19.67    0.52
  -4  -1  -8   18.76    0.53
  -4  -1  -8   18.80    0.57
  -4  -1  -8   18.74    0.51
   4   1   8   19.57    0.60
   4   1   8   18.84    0.58
   4   1   8   20.22    0.57
   4   1   8   19.95    0.56
  -5  -1  -8    0.85    0.14
  -5  -1  -8    0.95    0.11
  -5  -1  -8    0.83    0.14
  -5  -1  -8    0.85    0.09
   5   1   8    0.97    0.16
   5   1   8    0.79    0.13
   5   1   8    1.05    0.14
  -6  -1  -8   13.20    0.39
  -6  -1  -8   12.41    0.47
  -6  -1  -8   12.33    0.46
   6   1   8   14.23    0.53
   6   1   8   13.00    0.46
   6   1   8   13.47    0.47
  -7  -1  -8    3.08    0.26
  -7  -1  -8    2.91    0.25
  -7  -1  -8    2.92    0.17
   7   1   8    2.92    0.25
   7   1   8    2.95    0.28
   7   1   8    3.11    0.25
  -8  -1  -8    0.51    0.15
  -8  -1  -8    0.36    0.15
  -8  -1  -8    0.44    0.09
   8   1   8    0.52    0.19
   8   1   8    0.52    0.16
  -9  -1  -8    1.18    0.21
  -9  -1  -8    0.67    0.10
   9   1   8    0.99    0.20
   9   1   8    0.88    0.22
   8  -2  -8    2.48    0.29
   8  -2  -8    1.87    0.33
  -8   2   8    2.08    0.30
   7  -2  -8    0.45    0.18
   7  -2  -8    0.53    0.18
  -7   2   8    0.26    0.16
  -7   2   8    0.82    0.17
   6  -2  -8   -0.01    0.13
   6  -2  -8    0.06    0.12
  -6   2   8    0.11    0.14
  -6   2   8   -0.05    0.10
  -6   2   8    0.05    0.12
   5  -2  -8   12.89    0.52
   5  -2  -8   14.52    0.51
  -5   2   8   13.84    0.49
  -5   2   8   13.50    0.49
  -5   2   8   13.39    0.47
  -5   2   8   13.31    0.53
   4  -2  -8   35.44    0.94
   4  -2  -8   34.36    0.97
  -4   2   8   35.46    0.99
  -4   2   8   36.88    0.95
  -4   2   8   35.70    0.93
  -4   2   8   34.46    0.94
  -4   2   8   35.96    0.93
   3  -2  -8    0.36    0.10
   3  -2  -8    0.49    0.12
   3  -2  -8    0.60    0.10
   3  -2  -8    0.32    0.12
  -3   2   8    0.58    0.13
  -3   2   8    0.51    0.12
  -3   2   8    0.38    0.11
  -3   2   8    0.57    0.11
  -3   2   8    0.43    0.11
   2  -2  -8   66.32    1.56
   2  -2  -8   68.86    1.56
   2  -2  -8   68.07    1.61
  -2   2   8   68.09    1.63
  -2   2   8   68.51    1.60
  -2   2   8   65.96    1.59
  -2   2   8   67.83    1.58
  -2   2   8   66.67    1.59
   1  -2  -8   19.47    0.57
   1  -2  -8   19.03    0.51
   1  -2  -8   18.72    0.53
   1  -2  -8   18.86    0.51
  -1   2   8   18.27    0.55
  -1   2   8   17.98    0.56
  -1   2   8   19.42    0.59
  -1   2   8   19.42    0.56
  -1   2   8   19.50    0.54
   0  -2  -8    0.20    0.08
   0  -2  -8    0.23    0.08
   0  -2  -8    0.22    0.08
   0  -2  -8    0.18    0.07
   0  -2  -8    0.10    0.05
   0   2   8    0.17    0.08
   0   2   8    0.35    0.11
   0   2   8    0.10    0.07
   0   2   8    0.19    0.08
   0   2   8    0.23    0.08
  -1  -2  -8   10.31    0.34
  -1  -2  -8    9.81    0.33
  -1  -2  -8   10.43    0.32
  -1  -2  -8   10.11    0.34
  -1  -2  -8   10.05    0.36
   1   2   8    9.60    0.33
   1   2   8    9.11    0.36
   1   2   8   10.89    0.36
   1   2   8   10.44    0.36
   1   2   8   10.17    0.34
   1   2   8   10.28    0.32
  -2  -2  -8    0.23    0.08
  -2  -2  -8    0.31    0.08
  -2  -2  -8    0.39    0.08
  -2  -2  -8    0.24    0.08
  -2  -2  -8    0.30    0.09
   2   2   8    0.27    0.08
   2   2   8    0.39    0.09
   2   2   8    0.33    0.09
   2   2   8    0.22    0.07
   2   2   8    0.28    0.08
   2   2   8    0.45    0.11
  -3  -2  -8    0.64    0.09
  -3  -2  -8    0.44    0.10
  -3  -2  -8    0.53    0.11
  -3  -2  -8    0.61    0.10
  -3  -2  -8    0.51    0.09
   3   2   8    0.50    0.11
   3   2   8    0.61    0.08
   3   2   8    0.69    0.12
   3   2   8    0.39    0.10
   3   2   8    0.73    0.11
  -4  -2  -8    1.81    0.14
  -4  -2  -8    1.73    0.15
  -4  -2  -8    2.25    0.19
  -4  -2  -8    1.94    0.15
  -4  -2  -8    1.92    0.18
   4   2   8    2.04    0.18
   4   2   8    2.11    0.17
   4   2   8    1.61    0.16
   4   2   8    2.10    0.19
  -5  -2  -8   42.50    1.03
  -5  -2  -8   43.68    1.01
  -5  -2  -8   42.64    1.11
  -5  -2  -8   41.02    1.09
   5   2   8   44.41    1.08
   5   2   8   44.73    1.13
   5   2   8   41.79    1.09
  -6  -2  -8   17.97    0.59
  -6  -2  -8   18.52    0.51
  -6  -2  -8   19.51    0.61
   6   2   8   18.46    0.58
   6   2   8   18.52    0.60
   6   2   8   18.81    0.64
  -7  -2  -8    4.12    0.28
  -7  -2  -8    3.72    0.20
  -7  -2  -8    3.63    0.28
   7   2   8    3.95    0.31
   7   2   8    3.61    0.27
   7   2   8    3.32    0.27
  -8  -2  -8    9.30    0.42
  -8  -2  -8    9.39    0.33
  -8  -2  -8    9.35    0.43
   8   2   8    8.64    0.43
   8   2   8    9.41    0.43
   8   2   8    9.21    0.49
  -9  -2  -8    0.65    0.18
  -9  -2  -8    0.58    0.11
   9   2   8    0.59    0.19
   9   2   8    0.72    0.23
   7  -3  -8   -0.03    0.14
   7  -3  -8    0.19    0.17
  -7   3   8   -0.03    0.11
  -7   3   8    0.26    0.17
   6  -3  -8    0.67    0.18
   6  -3  -8    0.65    0.17
  -6   3   8    0.27    0.13
  -6   3   8    0.46    0.17
   5  -3  -8    0.45    0.14
   5  -3  -8    0.86    0.17
  -5   3   8    0.89    0.18
  -5   3   8    0.60    0.13
  -5   3   8    0.55    0.13
   4  -3  -8    0.45    0.12
   4  -3  -8    0.46    0.14
  -4   3   8    0.40    0.14
  -4   3   8    0.61    0.13
  -4   3   8    0.38    0.12
  -4   3   8    0.25    0.10
   3  -3  -8   17.04    0.47
   3  -3  -8   15.99    0.50
   3  -3  -8   14.41    0.53
  -3   3   8   16.19    0.57
  -3   3   8   15.72    0.51
  -3   3   8   16.23    0.51
  -3   3   8   17.12    0.52
  -3   3   8   16.58    0.51
   2  -3  -8   54.52    1.34
   2  -3  -8   54.01    1.26
   2  -3  -8   53.60    1.34
   2  -3  -8   54.68    1.28
   2  -3  -8   52.42    1.27
  -2   3   8   54.46    1.32
  -2   3   8   55.82    1.31
  -2   3   8   54.99    1.37
  -2   3   8   54.25    1.31
  -2   3   8   54.66    1.32
   1  -3  -8    8.94    0.35
   1  -3  -8    8.58    0.31
   1  -3  -8    8.15    0.28
   1  -3  -8    8.70    0.30
  -1   3   8    8.28    0.32
  -1   3   8    8.38    0.32
  -1   3   8    8.72    0.37
  -1   3   8    8.75    0.34
  -1   3   8    8.36    0.33
   0  -3  -8   38.38    0.88
   0  -3  -8   36.89    0.92
   0  -3  -8   35.01    0.95
   0  -3  -8   37.31    0.91
   0  -3  -8   39.70    0.91
   0   3   8   37.73    0.91
   0   3   8   36.25    0.93
   0   3   8   37.58    0.98
   0   3   8   35.76    0.93
   0   3   8   35.49    0.94
  -1  -3  -8   14.86    0.44
  -1  -3  -8   14.65    0.42
  -1  -3  -8   14.75    0.44
  -1  -3  -8   14.58    0.46
  -1  -3  -8   14.22    0.43
   1   3   8   14.18    0.48
   1   3   8   14.94    0.45
   1   3   8   13.54    0.45
   1   3   8   14.42    0.45
   1   3   8   14.83    0.43
  -2  -3  -8    9.13    0.33
  -2  -3  -8   10.00    0.34
  -2  -3  -8   10.35    0.36
  -2  -3  -8   10.24    0.36
  -2  -3  -8   10.18    0.34
   2   3   8   10.44    0.33
   2   3   8   10.07    0.34
   2   3   8    9.73    0.36
   2   3   8    9.80    0.35
   2   3   8    9.64    0.37
   2   3   8   10.40    0.33
  -3  -3  -8    0.06    0.08
  -3  -3  -8    0.15    0.08
  -3  -3  -8    0.15    0.07
  -3  -3  -8    0.01    0.06
  -3  -3  -8    0.12    0.09
   3   3   8    0.21    0.07
   3   3   8    0.10    0.08
   3   3   8    0.00    0.07
   3   3   8   -0.02    0.07
   3   3   8    0.15    0.07
   3   3   8    0.03    0.07
  -4  -3  -8   12.32    0.38
  -4  -3  -8   11.93    0.42
  -4  -3  -8   11.65    0.41
  -4  -3  -8   11.56    0.38
  -4  -3  -8   12.09    0.39
   4   3   8   12.27    0.43
   4   3   8   11.57    0.42
   4   3   8   11.69    0.39
   4   3   8   11.34    0.41
  -5  -3  -8   15.19    0.51
  -5  -3  -8   15.00    0.45
  -5  -3  -8   14.95    0.46
  -5  -3  -8   14.74    0.49
  -5  -3  -8   14.85    0.44
   5   3   8   15.37    0.48
   5   3   8   15.14    0.51
   5   3   8   15.48    0.53
  -6  -3  -8    2.02    0.16
  -6  -3  -8    1.73    0.20
  -6  -3  -8    1.92    0.20
   6   3   8    1.51    0.20
   6   3   8    2.06    0.20
   6   3   8    1.68    0.21
  -7  -3  -8   13.72    0.51
  -7  -3  -8   14.04    0.52
  -7  -3  -8   14.39    0.45
   7   3   8   13.89    0.53
   7   3   8   14.39    0.57
   7   3   8   13.82    0.50
  -8  -3  -8    5.83    0.35
  -8  -3  -8    6.05    0.27
  -8  -3  -8    5.75    0.35
   8   3   8    5.24    0.33
   8   3   8    5.77    0.41
   8   3   8    5.92    0.37
  -9  -3  -8    1.89    0.24
  -9  -3  -8    2.11    0.18
   9   3   8    1.88    0.25
   9   3   8    2.21    0.31
   7  -4  -8    6.37    0.42
   7  -4  -8    6.67    0.41
  -7   4   8    6.72    0.35
  -7   4   8    6.85    0.46
   6  -4  -8    0.04    0.15
   6  -4  -8    0.16    0.14
  -6   4   8    0.09    0.11
  -6   4   8    0.07    0.15
   5  -4  -8    0.54    0.15
   5  -4  -8    0.59    0.17
  -5   4   8    0.90    0.15
  -5   4   8    0.95    0.18
  -5   4   8    0.75    0.18
   4  -4  -8    0.16    0.10
   4  -4  -8    0.42    0.14
  -4   4   8    0.18    0.14
  -4   4   8    0.24    0.10
  -4   4   8    0.34    0.12
   3  -4  -8   14.17    0.42
   3  -4  -8   14.29    0.51
   3  -4  -8   14.44    0.47
  -3   4   8   14.70    0.49
  -3   4   8   14.51    0.54
  -3   4   8   14.54    0.47
  -3   4   8   13.70    0.47
   2  -4  -8    0.17    0.09
   2  -4  -8    0.31    0.09
   2  -4  -8    0.14    0.09
   2  -4  -8    0.17    0.08
   2  -4  -8    0.23    0.11
  -2   4   8    0.18    0.08
  -2   4   8    0.17    0.09
  -2   4   8    0.23    0.09
  -2   4   8    0.16    0.12
   1  -4  -8   88.46    2.03
   1  -4  -8   90.31    1.98
   1  -4  -8   88.86    2.04
   1  -4  -8   86.44    1.99
   1  -4  -8   87.85    1.96
  -1   4   8   86.78    2.02
  -1   4   8   86.47    2.07
  -1   4   8   86.26    2.02
  -1   4   8   87.58    2.01
  -1   4   8   88.19    1.99
   0  -4  -8   55.91    1.30
   0  -4  -8   53.76    1.33
   0  -4  -8   54.10    1.28
   0  -4  -8   56.70    1.26
   0   4   8   55.13    1.32
   0   4   8   55.00    1.37
   0   4   8   55.20    1.33
   0   4   8   52.79    1.28
   0   4   8   52.48    1.26
  -1  -4  -8    0.31    0.08
  -1  -4  -8    0.39    0.10
  -1  -4  -8    0.29    0.09
  -1  -4  -8    0.39    0.10
   1   4   8    0.44    0.08
   1   4   8    0.33    0.09
   1   4   8    0.18    0.08
   1   4   8    0.39    0.12
   1   4   8    0.22    0.08
  -2  -4  -8   14.81    0.47
  -2  -4  -8   15.90    0.49
  -2  -4  -8   15.45    0.46
  -2  -4  -8   16.04    0.46
  -2  -4  -8   14.93    0.48
   2   4   8   15.20    0.46
   2   4   8   15.27    0.46
   2   4   8   14.15    0.47
   2   4   8   15.59    0.44
   2   4   8   15.35    0.44
   2   4   8   15.29    0.51
  -3  -4  -8    5.72    0.26
  -3  -4  -8    5.32    0.25
  -3  -4  -8    5.80    0.27
  -3  -4  -8    5.75    0.25
  -3  -4  -8    5.59    0.24
   3   4   8    5.98    0.24
   3   4   8    5.22    0.23
   3   4   8    4.88    0.24
   3   4   8    5.27    0.25
   3   4   8    5.13    0.25
   3   4   8    5.48    0.29
  -4  -4  -8    0.15    0.10
  -4  -4  -8    0.26    0.09
  -4  -4  -8    0.26    0.10
  -4  -4  -8    0.07    0.08
  -4  -4  -8    0.09    0.08
   4   4   8    0.17    0.07
   4   4   8    0.07    0.08
   4   4   8    0.26    0.10
   4   4   8    0.06    0.09
  -5  -4  -8    0.66    0.12
  -5  -4  -8    0.80    0.12
  -5  -4  -8    0.85    0.14
  -5  -4  -8    0.72    0.11
  -5  -4  -8    0.53    0.13
   5   4   8    0.82    0.15
   5   4   8    0.82    0.13
   5   4   8    0.85    0.15
  -6  -4  -8    5.41    0.30
  -6  -4  -8    5.03    0.25
  -6  -4  -8    5.83    0.32
   6   4   8    5.57    0.28
   6   4   8    6.11    0.35
   6   4   8    5.68    0.33
  -7  -4  -8    8.07    0.33
  -7  -4  -8    8.58    0.39
  -7  -4  -8    8.33    0.40
   7   4   8    8.35    0.38
   7   4   8    8.44    0.44
   7   4   8    8.76    0.43
  -8  -4  -8    0.06    0.13
  -8  -4  -8    0.01    0.09
   8   4   8   -0.08    0.14
   8   4   8    0.28    0.15
   8   4   8   -0.08    0.16
  -9  -4  -8    6.64    0.40
  -9  -4  -8    7.04    0.32
  -9  -4  -8    7.08    0.42
   9   4   8    6.60    0.43
   9   4   8    6.89    0.40
   7  -5  -8    3.32    0.32
  -7   5   8    3.61    0.28
  -7   5   8    3.03    0.36
   6  -5  -8    4.59    0.37
   6  -5  -8    4.53    0.33
  -6   5   8    4.63    0.29
  -6   5   8    4.74    0.40
   5  -5  -8    2.33    0.23
   5  -5  -8    2.08    0.25
  -5   5   8    2.53    0.29
  -5   5   8    2.25    0.20
   4  -5  -8    0.30    0.15
   4  -5  -8    0.23    0.11
  -4   5   8    0.33    0.11
  -4   5   8    0.34    0.12
  -4   5   8    0.23    0.16
   3  -5  -8    1.37    0.16
   3  -5  -8    1.26    0.19
  -3   5   8    1.46    0.22
  -3   5   8    1.40    0.16
  -3   5   8    1.22    0.16
   2  -5  -8    0.26    0.09
   2  -5  -8    0.31    0.12
   2  -5  -8    0.30    0.09
   2  -5  -8    0.08    0.08
  -2   5   8    0.15    0.09
  -2   5   8    0.21    0.14
  -2   5   8    0.20    0.09
  -2   5   8    0.19    0.10
   1  -5  -8   21.18    0.63
   1  -5  -8   19.89    0.62
   1  -5  -8   20.90    0.58
   1  -5  -8   20.69    0.59
  -1   5   8   21.02    0.62
  -1   5   8   21.31    0.68
  -1   5   8   21.21    0.62
  -1   5   8   20.89    0.60
   0  -5  -8    1.74    0.18
   0  -5  -8    2.08    0.18
   0  -5  -8    2.01    0.17
   0  -5  -8    1.66    0.14
   0  -5  -8    2.04    0.17
   0   5   8    1.61    0.20
   0   5   8    1.88    0.17
   0   5   8    1.98    0.18
  -1  -5  -8   15.91    0.47
  -1  -5  -8   16.52    0.50
  -1  -5  -8   15.67    0.49
  -1  -5  -8   15.89    0.51
  -1  -5  -8   15.42    0.48
   1   5   8   16.35    0.50
   1   5   8   16.20    0.46
   1   5   8   15.71    0.54
   1   5   8   16.28    0.51
  -2  -5  -8   37.80    0.98
  -2  -5  -8   37.58    0.95
  -2  -5  -8   39.21    0.99
  -2  -5  -8   38.61    0.97
   2   5   8   38.36    1.03
   2   5   8   38.78    0.97
   2   5   8   38.58    0.94
   2   5   8   37.05    0.98
  -3  -5  -8    0.32    0.09
  -3  -5  -8    0.10    0.09
  -3  -5  -8    0.13    0.10
  -3  -5  -8    0.29    0.10
  -3  -5  -8    0.05    0.08
   3   5   8    0.08    0.08
   3   5   8    0.11    0.11
   3   5   8    0.16    0.07
   3   5   8    0.09    0.08
   3   5   8    0.16    0.09
   3   5   8    0.06    0.08
  -4  -5  -8    3.86    0.23
  -4  -5  -8    3.99    0.24
  -4  -5  -8    3.54    0.22
  -4  -5  -8    4.18    0.23
  -4  -5  -8    4.47    0.26
   4   5   8    3.70    0.26
   4   5   8    3.56    0.24
   4   5   8    3.58    0.20
   4   5   8    3.68    0.20
  -5  -5  -8    9.82    0.40
  -5  -5  -8    9.29    0.38
  -5  -5  -8    9.19    0.35
  -5  -5  -8    8.94    0.36
   5   5   8    9.26    0.40
   5   5   8    9.37    0.35
   5   5   8    9.05    0.40
  -6  -5  -8   15.42    0.55
  -6  -5  -8   14.93    0.50
  -6  -5  -8   16.19    0.51
  -6  -5  -8   15.28    0.54
   6   5   8   16.47    0.58
   6   5   8   16.82    0.59
   6   5   8   15.08    0.51
  -7  -5  -8   -0.03    0.09
  -7  -5  -8   -0.14    0.12
  -7  -5  -8   -0.12    0.11
   7   5   8   -0.06    0.14
   7   5   8    0.05    0.13
   7   5   8   -0.02    0.11
  -8  -5  -8   14.78    0.51
  -8  -5  -8   16.06    0.58
   8   5   8   14.88    0.55
   8   5   8   14.56    0.60
  -9  -5  -8    4.97    0.30
  -9  -5  -8    5.57    0.40
  -9  -5  -8    5.73    0.37
   9   5   8    5.14    0.37
   9   5   8    5.21    0.40
   6  -6  -8    5.39    0.37
   6  -6  -8    4.91    0.39
  -6   6   8    5.46    0.45
  -6   6   8    5.01    0.30
   5  -6  -8    1.81    0.24
   5  -6  -8    2.09    0.24
  -5   6   8    2.03    0.20
  -5   6   8    2.26    0.30
   4  -6  -8    3.30    0.25
   4  -6  -8    3.25    0.29
  -4   6   8    3.31    0.25
  -4   6   8    3.05    0.24
  -4   6   8    2.88    0.31
   3  -6  -8    3.64    0.23
   3  -6  -8    3.00    0.26
  -3   6   8    3.69    0.33
  -3   6   8    2.97    0.23
  -3   6   8    2.94    0.24
   2  -6  -8   20.05    0.61
   2  -6  -8   21.05    0.61
   2  -6  -8   21.21    0.66
   2  -6  -8   21.65    0.59
  -2   6   8   21.64    0.72
  -2   6   8   21.92    0.65
  -2   6   8   21.35    0.63
   1  -6  -8    0.25    0.11
   1  -6  -8    0.19    0.10
   1  -6  -8    0.22    0.09
   1  -6  -8    0.01    0.09
  -1   6   8    0.16    0.09
  -1   6   8   -0.02    0.13
  -1   6   8    0.08    0.09
  -1   6   8    0.35    0.11
   0  -6  -8   28.10    0.79
   0  -6  -8   29.11    0.78
   0  -6  -8   29.82    0.80
   0  -6  -8   29.72    0.76
   0  -6  -8   29.93    0.83
   0   6   8   29.79    0.81
   0   6   8   29.20    0.86
   0   6   8   28.68    0.81
  -1  -6  -8   55.41    1.31
  -1  -6  -8   56.23    1.37
  -1  -6  -8   56.79    1.34
  -1  -6  -8   57.05    1.33
  -1  -6  -8   54.31    1.34
   1   6   8   54.98    1.36
   1   6   8   56.25    1.35
   1   6   8   52.02    1.40
  -2  -6  -8    0.51    0.13
  -2  -6  -8    0.41    0.10
  -2  -6  -8    0.30    0.11
  -2  -6  -8    0.38    0.11
   2   6   8    0.53    0.14
   2   6   8    0.44    0.11
   2   6   8    0.42    0.11
  -3  -6  -8    9.21    0.36
  -3  -6  -8    8.51    0.36
  -3  -6  -8    8.84    0.35
  -3  -6  -8    9.46    0.37
   3   6   8    8.84    0.35
   3   6   8    8.50    0.36
   3   6   8    8.40    0.39
  -4  -6  -8   22.35    0.69
  -4  -6  -8   24.09    0.69
  -4  -6  -8   23.43    0.68
  -4  -6  -8   23.03    0.66
   4   6   8   23.89    0.65
   4   6   8   22.85    0.73
  -5  -6  -8   13.66    0.50
  -5  -6  -8   13.55    0.46
  -5  -6  -8   13.38    0.48
  -5  -6  -8   13.87    0.48
   5   6   8   13.74    0.53
  -6  -6  -8    0.58    0.13
  -6  -6  -8    0.77    0.16
  -6  -6  -8    0.62    0.14
  -6  -6  -8    0.57    0.15
   6   6   8    0.47    0.12
   6   6   8    0.52    0.16
  -7  -6  -8    5.33    0.32
  -7  -6  -8    4.61    0.32
  -7  -6  -8    4.86    0.28
   7   6   8    4.40    0.29
   7   6   8    5.08    0.36
  -8  -6  -8    8.42    0.41
  -8  -6  -8    8.11    0.43
  -8  -6  -8    7.91    0.37
   8   6   8    7.49    0.39
   8   6   8    7.57    0.45
   6  -7  -8    5.18    0.38
  -6   7   8    5.75    0.33
  -6   7   8    5.71    0.48
   5  -7  -8    0.16    0.17
   5  -7  -8    0.11    0.15
  -5   7   8   -0.01    0.11
  -5   7   8    0.11    0.19
   4  -7  -8    3.19    0.26
   4  -7  -8    4.50    0.34
  -4   7   8    3.44    0.28
  -4   7   8    3.46    0.34
  -4   7   8    3.16    0.26
   3  -7  -8    2.05    0.24
   3  -7  -8    1.84    0.20
  -3   7   8    1.64    0.25
  -3   7   8    2.20    0.22
  -3   7   8    1.67    0.19
   2  -7  -8    2.69    0.22
   2  -7  -8    3.03    0.26
  -2   7   8    2.48    0.21
  -2   7   8    2.29    0.26
  -2   7   8    2.38    0.22
   1  -7  -8    1.46    0.18
   1  -7  -8    1.39    0.15
   1  -7  -8    1.84    0.19
  -1   7   8    1.61    0.19
  -1   7   8    1.80    0.23
   0  -7  -8    9.00    0.36
   0  -7  -8    8.32    0.33
   0  -7  -8    8.48    0.38
   0  -7  -8    8.86    0.35
   0  -7  -8    9.06    0.37
   0   7   8    8.72    0.37
   0   7   8    8.53    0.42
  -1  -7  -8   12.10    0.46
  -1  -7  -8   12.12    0.43
  -1  -7  -8   12.22    0.45
  -1  -7  -8   12.48    0.42
   1   7   8   11.76    0.48
   1   7   8   12.69    0.55
   1   7   8   11.62    0.44
  -2  -7  -8   12.68    0.44
  -2  -7  -8   13.55    0.47
  -2  -7  -8   12.91    0.45
   2   7   8   12.31    0.46
   2   7   8   12.85    0.46
   2   7   8   12.70    0.50
  -3  -7  -8   29.07    0.79
  -3  -7  -8   28.65    0.80
  -3  -7  -8   28.97    0.81
   3   7   8   28.52    0.79
   3   7   8   29.39    0.86
   3   7   8   28.06    0.82
  -4  -7  -8    1.69    0.19
  -4  -7  -8    2.07    0.20
  -4  -7  -8    1.53    0.19
   4   7   8    1.94    0.23
   4   7   8    1.73    0.17
  -5  -7  -8    7.61    0.36
  -5  -7  -8    6.48    0.34
  -5  -7  -8    6.67    0.32
  -5  -7  -8    6.75    0.34
   5   7   8    6.87    0.39
  -6  -7  -8    0.55    0.15
  -6  -7  -8    0.53    0.15
  -6  -7  -8    0.43    0.13
  -6  -7  -8    0.58    0.14
   6   7   8    0.62    0.17
  -7  -7  -8    0.72    0.17
  -7  -7  -8    0.86    0.16
  -7  -7  -8    0.62    0.17
  -7  -7  -8    0.67    0.16
   7   7   8    0.72    0.20
  -8  -7  -8    0.86    0.16
  -8  -7  -8    0.51    0.17
  -8  -7  -8    0.45    0.18
   8   7   8    0.54    0.20
   5  -8  -8   15.05    0.58
  -5   8   8   13.91    0.52
  -5   8   8   14.52    0.66
   4  -8  -8    7.30    0.39
   4  -8  -8    8.47    0.45
  -4   8   8    7.82    0.48
  -4   8   8    7.57    0.37
   3  -8  -8    0.27    0.15
  -3   8   8    0.22    0.13
  -3   8   8    0.16    0.12
  -3   8   8    0.13    0.17
   2  -8  -8    5.16    0.33
   2  -8  -8    4.99    0.30
  -2   8   8    4.92    0.37
  -2   8   8    5.42    0.31
  -2   8   8    5.11    0.30
   1  -8  -8    0.15    0.11
   1  -8  -8   -0.10    0.08
   1  -8  -8    0.04    0.11
  -1   8   8   -0.04    0.13
  -1   8   8    0.11    0.11
   0  -8  -8    1.49    0.17
   0  -8  -8    1.39    0.17
   0  -8  -8    1.13    0.21
   0  -8  -8    1.42    0.19
   0  -8  -8    1.37    0.18
   0   8   8    1.23    0.17
   0   8   8    0.99    0.19
  -1  -8  -8   11.31    0.42
  -1  -8  -8   11.03    0.42
  -1  -8  -8   10.45    0.43
   1   8   8   11.27    0.44
   1   8   8   11.32    0.48
  -2  -8  -8   20.41    0.60
  -2  -8  -8   18.66    0.62
  -2  -8  -8   18.70    0.60
   2   8   8   18.29    0.61
   2   8   8   20.43    0.68
  -3  -8  -8    6.22    0.32
  -3  -8  -8    6.33    0.33
  -3  -8  -8    6.18    0.32
   3   8   8    6.81    0.37
   3   8   8    6.35    0.32
  -4  -8  -8    7.07    0.36
  -4  -8  -8    6.94    0.34
  -4  -8  -8    6.53    0.34
   4   8   8    7.25    0.39
   4   8   8    6.81    0.33
  -5  -8  -8   24.88    0.76
  -5  -8  -8   25.23    0.77
  -5  -8  -8   24.58    0.76
   5   8   8   26.32    0.82
  -6  -8  -8    0.12    0.13
  -6  -8  -8    0.27    0.13
  -6  -8  -8    0.41    0.15
   6   8   8    0.14    0.16
  -7  -8  -8    0.79    0.18
  -7  -8  -8    0.70    0.16
  -7  -8  -8    1.00    0.18
  -7  -8  -8    0.85    0.19
  -7  -8  -8    0.91    0.18
   7   8   8    0.73    0.21
   4  -9  -8   -0.05    0.18
  -4   9   8    0.03    0.12
  -4   9   8    0.18    0.20
   3  -9  -8   12.58    0.55
  -3   9   8   12.14    0.48
  -3   9   8   12.29    0.51
  -3   9   8   12.73    0.59
   2  -9  -8    0.00    0.12
   2  -9  -8    0.22    0.15
  -2   9   8    0.19    0.18
  -2   9   8    0.11    0.13
  -2   9   8    0.20    0.13
   1  -9  -8    2.53    0.24
   1  -9  -8    3.03    0.26
  -1   9   8    2.90    0.30
  -1   9   8    2.31    0.24
   0  -9  -8    0.13    0.11
   0  -9  -8    0.26    0.13
   0  -9  -8    0.37    0.13
   0   9   8    0.32    0.16
   0   9   8    0.24    0.13
  -1  -9  -8    0.53    0.13
  -1  -9  -8    0.81    0.15
  -1  -9  -8    0.72    0.16
   1   9   8    0.96    0.19
   1   9   8    1.23    0.18
  -2  -9  -8    5.40    0.31
  -2  -9  -8    5.33    0.33
  -2  -9  -8    5.87    0.31
   2   9   8    5.69    0.33
   2   9   8    5.97    0.36
  -3  -9  -8    2.15    0.22
  -3  -9  -8    2.17    0.23
  -3  -9  -8    2.78    0.25
   3   9   8    2.80    0.28
   3   9   8    2.56    0.23
  -4  -9  -8   11.61    0.48
  -4  -9  -8   10.81    0.46
  -4  -9  -8   11.59    0.46
   4   9   8   11.99    0.51
   4   9   8   10.80    0.45
  -5  -9  -8    7.46    0.39
  -5  -9  -8    7.84    0.40
  -5  -9  -8    7.30    0.38
   5   9   8    7.05    0.36
   5   9   8    7.52    0.43
  -6  -9  -8    2.61    0.27
  -6  -9  -8    2.69    0.26
  -6  -9  -8    2.63    0.27
   6   9   8    3.12    0.33
  -7  -9  -8    1.78    0.24
  -7  -9  -8    1.79    0.24
  -7  -9  -8    1.56    0.23
   7   9   8    2.45    0.30
   3 -10  -8   14.95    0.61
  -3  10   8   13.92    0.54
  -3  10   8   13.81    0.63
  -3  10   8   13.59    0.56
   2 -10  -8    0.89    0.19
   2 -10  -8    0.91    0.18
  -2  10   8    1.06    0.23
  -2  10   8    1.07    0.20
   1 -10  -8    7.57    0.40
  -1  10   8    6.75    0.42
  -1  10   8    6.42    0.38
   0 -10  -8    0.59    0.16
   0 -10  -8    0.40    0.16
   0 -10  -8    0.47    0.14
   0  10   8    0.34    0.17
   0  10   8    0.69    0.19
  -1 -10  -8    1.27    0.19
  -1 -10  -8    1.03    0.19
  -1 -10  -8    1.55    0.19
   1  10   8    1.11    0.19
   1  10   8    1.34    0.22
  -2 -10  -8    0.10    0.14
  -2 -10  -8    0.06    0.14
  -2 -10  -8    0.39    0.14
   2  10   8    0.06    0.13
   2  10   8   -0.06    0.15
  -3 -10  -8    6.97    0.37
  -3 -10  -8    6.76    0.38
  -3 -10  -8    6.29    0.36
   3  10   8    6.66    0.40
   3  10   8    6.59    0.37
  -4 -10  -8    6.39    0.38
  -4 -10  -8    5.58    0.35
  -4 -10  -8    5.84    0.36
   4  10   8    6.98    0.42
   4  10   8    5.50    0.35
  -5 -10  -8    3.45    0.30
  -5 -10  -8    3.51    0.30
  -5 -10  -8    3.37    0.30
   5  10   8    3.45    0.28
   5  10   8    3.44    0.33
  -6 -10  -8   11.33    0.51
  -6 -10  -8   10.72    0.61
  -6 -10  -8   10.07    0.49
   6  10   8    9.88    0.53
  -2  11   8   11.43    0.52
   1 -11  -8    3.38    0.34
  -1  11   8    4.31    0.35
   0 -11  -8    0.62    0.19
   0 -11  -8    0.67    0.18
   0  11   8    0.61    0.20
   0  11   8    0.68    0.18
  -1 -11  -8    0.18    0.13
  -1 -11  -8   -0.02    0.14
  -1 -11  -8    0.00    0.15
   1  11   8    0.06    0.14
   1  11   8    0.25    0.17
  -2 -11  -8    0.97    0.18
  -2 -11  -8    0.83    0.20
  -2 -11  -8    0.91    0.20
   2  11   8    1.35    0.23
   2  11   8    1.12    0.21
  -3 -11  -8    3.06    0.28
  -3 -11  -8    2.74    0.28
  -3 -11  -8    2.78    0.27
   3  11   8    2.66    0.30
   3  11   8    2.71    0.28
  -4 -11  -8   -0.01    0.14
  -4 -11  -8    0.08    0.16
   4  11   8    0.10    0.18
   4  11   8    0.17    0.15
  -5 -11  -8   11.45    0.52
  -5 -11  -8   10.24    0.50
   5  11   8   10.37    0.49
   5  11   8   11.90    0.56
   2  10  -9    0.50    0.19
  -2 -10   9    0.61    0.25
   1  10  -9    0.45    0.19
  -1 -10   9    1.15    0.20
  -1 -10   9    1.05    0.25
   0  10  -9    5.12    0.37
   0 -10   9    5.03    0.46
   0 -10   9    5.80    0.36
  -1  10  -9    0.24    0.19
  -1  10  -9    0.41    0.16
   1 -10   9    0.54    0.22
  -2  10  -9    2.77    0.26
   2 -10   9    3.21    0.38
   4   9  -9    1.83    0.25
  -4  -9   9    1.38    0.22
   3   9  -9    0.25    0.17
  -3  -9   9    0.28    0.20
  -3  -9   9    0.43    0.16
   2   9  -9    2.71    0.28
  -2  -9   9    2.69    0.26
  -2  -9   9    2.32    0.32
   1   9  -9    4.21    0.34
  -1  -9   9    4.70    0.31
  -1  -9   9    5.30    0.43
   0   9  -9    3.42    0.29
   0  -9   9    3.48    0.28
   0  -9   9    3.07    0.35
  -1   9  -9    1.65    0.21
  -1   9  -9    1.61    0.21
   1  -9   9    1.67    0.27
  -2   9  -9   13.77    0.52
  -2   9  -9   13.87    0.58
   2  -9   9   15.16    0.68
  -3   9  -9    3.65    0.28
   3  -9   9    3.02    0.36
   5   8  -9    2.85    0.29
  -5  -8   9    2.61    0.30
  -5  -8   9    3.06    0.30
   4   8  -9    1.91    0.25
  -4  -8   9    1.48    0.22
  -4  -8   9    1.84    0.26
   3   8  -9   10.21    0.47
  -3  -8   9    9.80    0.48
  -3  -8   9   10.06    0.45
  -3  -8   9    9.78    0.53
   2   8  -9    1.86    0.23
  -2  -8   9    1.71    0.20
  -2  -8   9    1.99    0.28
   1   8  -9    0.36    0.15
  -1  -8   9    0.30    0.17
  -1  -8   9    0.27    0.13
   0   8  -9    1.66    0.21
   0   8  -9    1.17    0.18
   0   8  -9    1.05    0.17
   0  -8   9    1.27    0.18
   0  -8   9    1.39    0.24
  -1   8  -9   11.37    0.46
  -1   8  -9   12.17    0.49
  -1   8  -9   11.03    0.45
   1  -8   9   11.66    0.57
  -2   8  -9    5.72    0.32
  -2   8  -9    6.39    0.38
   2  -8   9    5.82    0.42
  -3   8  -9    1.42    0.22
  -3   8  -9    1.57    0.19
   3  -8   9    1.39    0.26
  -4   8  -9    5.09    0.29
  -4   8  -9    5.48    0.40
   4  -8   9    5.24    0.44
  -5   8  -9    1.35    0.17
   5  -8   9    1.37    0.28
   6   7  -9   12.81    0.57
   6   7  -9   13.16    0.60
  -6  -7   9   13.34    0.61
  -6  -7   9   13.50    0.57
   5   7  -9    0.44    0.17
  -5  -7   9    0.34    0.18
  -5  -7   9    0.13    0.15
   4   7  -9   12.04    0.50
  -4  -7   9   10.82    0.52
  -4  -7   9   11.34    0.49
   3   7  -9   16.11    0.59
  -3  -7   9   16.53    0.58
  -3  -7   9   16.68    0.63
   2   7  -9    0.34    0.14
  -2  -7   9    0.47    0.13
  -2  -7   9    0.29    0.15
  -2  -7   9    0.16    0.16
   1   7  -9    3.07    0.26
  -1  -7   9    2.73    0.22
  -1  -7   9    3.14    0.23
  -1  -7   9    2.67    0.29
  -1  -7   9    3.10    0.27
   0   7  -9    0.24    0.12
   0   7  -9    0.16    0.11
   0   7  -9    0.28    0.13
   0  -7   9    0.31    0.13
   0  -7   9    0.16    0.15
  -1   7  -9    0.47    0.13
  -1   7  -9    0.14    0.13
  -1   7  -9    0.31    0.12
   1  -7   9    0.30    0.12
   1  -7   9    0.44    0.17
  -2   7  -9    0.83    0.16
  -2   7  -9    1.40    0.17
   2  -7   9    0.83    0.16
   2  -7   9    1.93    0.27
  -3   7  -9   24.85    0.77
  -3   7  -9   22.59    0.66
   3  -7   9   21.68    0.82
  -4   7  -9   10.39    0.50
  -4   7  -9   10.70    0.39
   4  -7   9   10.73    0.56
  -5   7  -9    0.48    0.18
  -5   7  -9    0.53    0.12
   5  -7   9    0.40    0.21
  -6   7  -9    7.16    0.29
   6  -7   9    6.37    0.48
   6   6  -9    1.37    0.24
  -6  -6   9    1.19    0.21
  -6  -6   9    1.03    0.23
   5   6  -9    8.38    0.42
  -5  -6   9    8.39    0.42
  -5  -6   9    9.38    0.47
   4   6  -9   14.99    0.57
  -4  -6   9   16.05    0.61
  -4  -6   9   15.63    0.57
   3   6  -9    0.01    0.11
  -3  -6   9   -0.12    0.10
  -3  -6   9    0.05    0.13
   2   6  -9   17.24    0.58
  -2  -6   9   17.54    0.57
  -2  -6   9   16.53    0.60
  -2  -6   9   16.61    0.63
   1   6  -9   10.55    0.42
  -1  -6   9   10.21    0.40
  -1  -6   9   11.06    0.45
  -1  -6   9   10.73    0.49
   0   6  -9    0.56    0.13
   0   6  -9    0.83    0.14
   0   6  -9    0.70    0.14
   0  -6   9    0.88    0.16
   0  -6   9    1.02    0.20
   0  -6   9    0.85    0.15
  -1   6  -9    2.13    0.19
  -1   6  -9    2.23    0.22
  -1   6  -9    2.12    0.19
   1  -6   9    1.95    0.25
   1  -6   9    2.19    0.22
   1  -6   9    2.46    0.22
  -2   6  -9    4.61    0.25
  -2   6  -9    4.64    0.30
   2  -6   9    4.40    0.34
   2  -6   9    4.20    0.27
  -3   6  -9    4.54    0.31
  -3   6  -9    5.40    0.26
   3  -6   9    5.14    0.37
   3  -6   9    4.58    0.28
  -4   6  -9    0.34    0.15
  -4   6  -9    0.36    0.11
   4  -6   9    0.52    0.14
   4  -6   9    0.44    0.19
  -5   6  -9   11.31    0.38
  -5   6  -9   10.56    0.49
   5  -6   9    9.91    0.43
   5  -6   9   10.40    0.55
  -6   6  -9    3.53    0.32
  -6   6  -9    2.92    0.20
   6  -6   9    3.64    0.38
   7   5  -9    0.89    0.23
  -7  -5   9    0.54    0.21
  -7  -5   9    0.80    0.20
   6   5  -9    0.16    0.18
  -6  -5   9    0.19    0.16
  -6  -5   9    0.29    0.15
   5   5  -9    6.92    0.40
   5   5  -9    7.26    0.37
  -5  -5   9    6.65    0.40
  -5  -5   9    7.47    0.38
   4   5  -9    2.56    0.24
  -4  -5   9    2.63    0.24
  -4  -5   9    1.89    0.24
   3   5  -9   27.88    0.81
  -3  -5   9   27.69    0.80
  -3  -5   9   27.89    0.85
   2   5  -9   32.94    0.90
  -2  -5   9   31.67    0.92
  -2  -5   9   32.67    0.94
  -2  -5   9   31.94    0.88
  -2  -5   9   32.97    0.95
   1   5  -9    0.15    0.11
  -1  -5   9    0.16    0.13
  -1  -5   9    0.11    0.09
  -1  -5   9    0.16    0.12
  -1  -5   9    0.18    0.10
   0   5  -9    6.73    0.30
   0   5  -9    6.69    0.31
   0   5  -9    6.89    0.31
   0  -5   9    6.91    0.34
   0  -5   9    6.30    0.28
   0  -5   9    6.34    0.32
   0  -5   9    6.41    0.36
  -1   5  -9    4.42    0.25
  -1   5  -9    4.64    0.25
  -1   5  -9    4.14    0.28
  -1   5  -9    3.79    0.25
   1  -5   9    4.71    0.28
   1  -5   9    5.16    0.33
   1  -5   9    4.15    0.27
  -2   5  -9    0.39    0.11
  -2   5  -9    0.52    0.13
  -2   5  -9    0.44    0.11
  -2   5  -9    0.65    0.11
   2  -5   9    0.45    0.13
   2  -5   9    0.49    0.16
   2  -5   9    0.53    0.13
  -3   5  -9    0.10    0.08
  -3   5  -9   -0.04    0.10
   3  -5   9    0.13    0.10
   3  -5   9    0.17    0.14
   3  -5   9    0.10    0.10
  -4   5  -9    6.31    0.27
  -4   5  -9    6.02    0.34
   4  -5   9    5.90    0.32
   4  -5   9    6.03    0.40
   4  -5   9    6.68    0.33
  -5   5  -9    7.96    0.30
  -5   5  -9    8.46    0.42
   5  -5   9    7.77    0.47
   5  -5   9    7.57    0.37
  -6   5  -9    0.23    0.16
  -6   5  -9    0.11    0.08
   6  -5   9   -0.10    0.16
   6  -5   9    0.21    0.13
  -7   5  -9    5.13    0.21
   7  -5   9    5.77    0.36
   7  -5   9    4.99    0.44
   7   4  -9    3.12    0.32
  -7  -4   9    3.87    0.35
  -7  -4   9    3.52    0.31
   6   4  -9   -0.07    0.15
  -6  -4   9    0.18    0.16
  -6  -4   9    0.29    0.14
   5   4  -9    2.35    0.25
   5   4  -9    2.38    0.23
  -5  -4   9    2.62    0.25
  -5  -4   9    2.36    0.26
   4   4  -9    7.55    0.36
  -4  -4   9    7.80    0.36
  -4  -4   9    7.40    0.39
   3   4  -9    2.89    0.24
  -3  -4   9    2.67    0.25
  -3  -4   9    2.67    0.22
   2   4  -9    3.58    0.25
   2   4  -9    3.57    0.25
  -2  -4   9    3.55    0.27
  -2  -4   9    2.63    0.25
  -2  -4   9    3.47    0.25
  -2  -4   9    3.13    0.22
   1   4  -9   14.14    0.55
   1   4  -9   14.28    0.49
   1   4  -9   15.04    0.51
  -1  -4   9   14.41    0.53
  -1  -4   9   14.65    0.51
  -1  -4   9   14.89    0.54
  -1  -4   9   14.32    0.47
   0   4  -9   14.48    0.46
   0   4  -9   14.55    0.47
   0   4  -9   14.19    0.49
   0   4  -9   14.27    0.47
   0  -4   9   12.18    0.60
   0  -4   9   15.56    0.52
   0  -4   9   14.90    0.53
   0  -4   9   14.07    0.45
  -1   4  -9   -0.11    0.07
  -1   4  -9   -0.01    0.07
  -1   4  -9    0.06    0.08
  -1   4  -9   -0.02    0.08
   1  -4   9   -0.14    0.10
   1  -4   9   -0.11    0.09
   1  -4   9   -0.10    0.08
  -2   4  -9   14.63    0.45
  -2   4  -9   13.93    0.49
  -2   4  -9   14.28    0.45
  -2   4  -9   14.31    0.45
   2  -4   9   13.48    0.49
   2  -4   9   14.82    0.56
   2  -4   9   14.13    0.50
  -3   4  -9    1.14    0.13
  -3   4  -9    1.06    0.12
  -3   4  -9    0.91    0.15
   3  -4   9    1.34    0.17
   3  -4   9    1.43    0.18
   3  -4   9    1.15    0.19
  -4   4  -9   13.06    0.50
  -4   4  -9   13.39    0.42
   4  -4   9   13.35    0.56
   4  -4   9   13.33    0.48
   4  -4   9   13.90    0.49
  -5   4  -9    0.53    0.15
  -5   4  -9    0.59    0.10
   5  -4   9    0.84    0.15
   5  -4   9    0.78    0.15
   5  -4   9    0.48    0.18
  -6   4  -9   20.94    0.57
  -6   4  -9   22.03    0.73
   6  -4   9   20.97    0.79
   6  -4   9   22.03    0.69
  -7   4  -9    9.66    0.31
  -7   4  -9   10.52    0.49
  -7   4  -9    9.39    0.48
   7  -4   9   10.74    0.46
   7  -4   9    9.44    0.54
   7   3  -9    2.27    0.28
  -7  -3   9    1.95    0.25
  -7  -3   9    2.37    0.26
  -7  -3   9    2.62    0.29
   6   3  -9    0.46    0.17
  -6  -3   9    0.12    0.15
  -6  -3   9    0.12    0.14
  -6  -3   9    0.42    0.15
   5   3  -9    1.22    0.20
   5   3  -9    0.90    0.15
  -5  -3   9    1.05    0.17
  -5  -3   9    0.94    0.19
  -5  -3   9    1.08    0.17
   4   3  -9   21.14    0.71
   4   3  -9   22.56    0.67
   4   3  -9   23.13    0.71
  -4  -3   9   22.89    0.73
  -4  -3   9   23.16    0.69
   3   3  -9   15.57    0.55
   3   3  -9   15.88    0.52
  -3  -3   9   15.55    0.55
  -3  -3   9   15.15    0.55
  -3  -3   9   15.51    0.52
   2   3  -9   13.83    0.50
   2   3  -9   14.34    0.48
  -2  -3   9   14.04    0.50
  -2  -3   9   12.86    0.50
  -2  -3   9   14.63    0.50
  -2  -3   9   13.96    0.47
   1   3  -9   51.23    1.23
   1   3  -9   49.84    1.25
   1   3  -9   49.68    1.18
  -1  -3   9   48.40    1.21
  -1  -3   9   47.57    1.24
  -1  -3   9   50.49    1.26
  -1  -3   9   48.91    1.26
   0   3  -9    0.52    0.11
   0   3  -9    0.49    0.10
   0   3  -9    0.37    0.10
   0   3  -9    0.38    0.10
   0  -3   9    0.43    0.10
   0  -3   9    0.45    0.12
   0  -3   9    0.45    0.12
   0  -3   9    0.51    0.10
  -1   3  -9   18.59    0.56
  -1   3  -9   19.84    0.58
  -1   3  -9   18.70    0.55
  -1   3  -9   19.06    0.57
   1  -3   9   20.03    0.63
   1  -3   9   18.77    0.61
   1  -3   9   18.62    0.59
   1  -3   9   19.64    0.54
  -2   3  -9   25.58    0.69
  -2   3  -9   25.21    0.71
  -2   3  -9   25.11    0.67
  -2   3  -9   24.05    0.67
   2  -3   9   23.99    0.73
   2  -3   9   28.13    0.79
   2  -3   9   23.73    0.71
  -3   3  -9    9.10    0.37
  -3   3  -9    7.92    0.31
  -3   3  -9    8.00    0.30
   3  -3   9    8.82    0.42
   3  -3   9    8.70    0.36
   3  -3   9    8.89    0.37
  -4   3  -9    2.03    0.21
  -4   3  -9    2.01    0.16
   4  -3   9    1.92    0.19
   4  -3   9    2.32    0.21
   4  -3   9    2.04    0.23
  -5   3  -9    2.22    0.22
  -5   3  -9    2.00    0.16
   5  -3   9    2.18    0.21
   5  -3   9    2.21    0.21
   5  -3   9    1.62    0.23
  -6   3  -9    7.18    0.27
  -6   3  -9    7.34    0.38
  -6   3  -9    8.30    0.41
   6  -3   9    7.72    0.38
   6  -3   9    7.65    0.44
  -7   3  -9    0.12    0.07
  -7   3  -9   -0.03    0.13
  -7   3  -9   -0.03    0.14
   7  -3   9    0.19    0.14
   7  -3   9    0.12    0.17
  -8   3  -9    5.01    0.38
  -8   3  -9    5.06    0.38
   8  -3   9    4.68    0.34
   8  -3   9    4.71    0.42
   7   2  -9    0.91    0.21
  -7  -2   9    0.86    0.20
  -7  -2   9    0.88    0.21
  -7  -2   9    1.17    0.19
  -7  -2   9    1.07    0.20
   6   2  -9   11.84    0.50
  -6  -2   9   11.65    0.50
  -6  -2   9   12.20    0.52
  -6  -2   9   10.99    0.46
  -6  -2   9   11.10    0.47
   5   2  -9    0.89    0.14
   5   2  -9    0.98    0.18
  -5  -2   9    0.56    0.17
  -5  -2   9    0.71    0.15
  -5  -2   9    1.03    0.17
   4   2  -9    1.54    0.19
   4   2  -9    1.65    0.18
   4   2  -9    1.64    0.20
  -4  -2   9    1.71    0.21
  -4  -2   9    2.07    0.21
  -4  -2   9    1.75    0.19
   3   2  -9    0.20    0.10
   3   2  -9    0.05    0.09
  -3  -2   9    0.12    0.10
  -3  -2   9    0.27    0.11
  -3  -2   9    0.10    0.12
  -3  -2   9    0.13    0.10
   2   2  -9   12.75    0.46
   2   2  -9   12.42    0.44
  -2  -2   9   12.43    0.45
  -2  -2   9   12.47    0.43
  -2  -2   9   11.69    0.43
  -2  -2   9   12.16    0.47
   1   2  -9    2.57    0.20
   1   2  -9    2.50    0.20
   1   2  -9    2.91    0.17
  -1  -2   9    2.79    0.21
  -1  -2   9    2.36    0.20
  -1  -2   9    3.08    0.23
  -1  -2   9    2.54    0.19
   0   2  -9    8.36    0.31
   0   2  -9    8.40    0.32
   0   2  -9    8.14    0.34
   0   2  -9    7.78    0.32
   0  -2   9    7.98    0.34
   0  -2   9    8.12    0.31
   0  -2   9    8.13    0.34
   0  -2   9    8.53    0.36
  -1   2  -9   38.85    0.95
  -1   2  -9   38.42    0.96
  -1   2  -9   37.51    0.97
  -1   2  -9   38.13    0.96
   1  -2   9   37.02    0.98
   1  -2   9   38.11    1.01
   1  -2   9   37.33    1.00
   1  -2   9   37.22    0.99
   1  -2   9   40.05    0.94
  -2   2  -9    8.66    0.35
  -2   2  -9    9.10    0.32
  -2   2  -9    9.34    0.33
  -2   2  -9    9.29    0.33
   2  -2   9    8.69    0.38
   2  -2   9    8.53    0.37
   2  -2   9    8.37    0.35
  -3   2  -9   54.76    1.33
  -3   2  -9   56.35    1.32
  -3   2  -9   56.22    1.39
  -3   2  -9   56.24    1.32
   3  -2   9   57.31    1.40
   3  -2   9   55.62    1.38
   3  -2   9   58.91    1.44
  -4   2  -9    2.83    0.24
  -4   2  -9    3.54    0.19
   4  -2   9    2.88    0.22
   4  -2   9    3.39    0.24
   4  -2   9    3.36    0.27
  -5   2  -9    0.68    0.15
  -5   2  -9    0.46    0.09
  -5   2  -9    0.40    0.13
   5  -2   9    0.36    0.12
   5  -2   9    0.43    0.12
   5  -2   9    0.32    0.14
  -6   2  -9    0.02    0.12
  -6   2  -9    0.03    0.12
  -6   2  -9    0.12    0.08
   6  -2   9   -0.02    0.11
   6  -2   9   -0.04    0.13
  -7   2  -9    8.62    0.43
  -7   2  -9    8.32    0.28
  -7   2  -9    8.52    0.43
   7  -2   9    8.59    0.41
   7  -2   9    7.54    0.48
  -8   2  -9    7.62    0.43
  -8   2  -9    7.88    0.44
   8  -2   9    8.34    0.52
   8  -2   9    8.19    0.43
   7   1  -9   10.54    0.50
  -7  -1   9   10.20    0.51
  -7  -1   9   10.22    0.50
  -7  -1   9    9.70    0.46
  -7  -1   9    9.92    0.45
   6   1  -9   11.56    0.52
   6   1  -9   12.27    0.51
  -6  -1   9   12.50    0.49
  -6  -1   9   12.80    0.53
  -6  -1   9   12.79    0.52
  -6  -1   9   12.17    0.48
   5   1  -9    3.62    0.28
   5   1  -9    2.93    0.26
  -5  -1   9    3.49    0.26
  -5  -1   9    3.30    0.26
  -5  -1   9    4.01    0.29
  -5  -1   9    3.67    0.30
   4   1  -9   14.22    0.51
   4   1  -9   13.91    0.47
  -4  -1   9   13.74    0.52
  -4  -1   9   14.73    0.51
  -4  -1   9   14.39    0.51
  -4  -1   9   13.98    0.49
   3   1  -9    0.10    0.10
   3   1  -9    0.28    0.10
   3   1  -9    0.29    0.11
  -3  -1   9    0.29    0.11
  -3  -1   9    0.37    0.13
  -3  -1   9    0.24    0.10
  -3  -1   9    0.31    0.11
   2   1  -9    0.10    0.08
   2   1  -9    0.05    0.08
  -2  -1   9    0.27    0.11
  -2  -1   9    0.22    0.10
  -2  -1   9    0.17    0.09
  -2  -1   9    0.11    0.11
  -2  -1   9    0.13    0.09
   1   1  -9   20.89    0.55
   1   1  -9   21.59    0.60
   1   1  -9   20.45    0.62
  -1  -1   9   20.49    0.63
  -1  -1   9   19.59    0.58
  -1  -1   9   19.99    0.59
  -1  -1   9   20.76    0.60
   0   1  -9   93.52    2.04
   0   1  -9   90.77    2.06
   0   1  -9   91.02    2.09
   0   1  -9   92.36    2.08
   0   1  -9   93.22    2.12
   0  -1   9   89.88    2.12
   0  -1   9   94.37    2.09
   0  -1   9   89.51    2.13
   0  -1   9   93.70    2.08
   0  -1   9   90.76    2.10
  -1   1  -9   27.70    0.72
  -1   1  -9   27.36    0.74
  -1   1  -9   27.16    0.70
  -1   1  -9   28.51    0.72
  -1   1  -9   26.60    0.72
   1  -1   9   26.98    0.77
   1  -1   9   26.18    0.74
   1  -1   9   26.13    0.74
   1  -1   9   26.62    0.75
  -2   1  -9    4.81    0.23
  -2   1  -9    4.66    0.24
  -2   1  -9    4.81    0.24
  -2   1  -9    4.82    0.23
  -2   1  -9    5.22    0.23
   2  -1   9    4.78    0.20
   2  -1   9    4.76    0.25
   2  -1   9    4.91    0.27
   2  -1   9    5.03    0.27
  -3   1  -9   14.34    0.46
  -3   1  -9   13.94    0.44
  -3   1  -9   15.07    0.44
  -3   1  -9   14.51    0.44
  -3   1  -9   14.04    0.48
   3  -1   9   14.38    0.51
   3  -1   9   14.61    0.49
   3  -1   9   14.00    0.48
  -4   1  -9    1.17    0.16
  -4   1  -9    1.21    0.11
  -4   1  -9    1.19    0.15
  -4   1  -9    0.97    0.12
   4  -1   9    1.55    0.17
   4  -1   9    1.24    0.16
   4  -1   9    1.09    0.17
  -5   1  -9    6.08    0.32
  -5   1  -9    5.74    0.24
  -5   1  -9    5.91    0.31
   5  -1   9    5.85    0.30
   5  -1   9    5.94    0.31
   5  -1   9    5.34    0.34
  -6   1  -9    0.65    0.15
  -6   1  -9    0.89    0.16
  -6   1  -9    0.54    0.10
   6  -1   9    0.50    0.18
   6  -1   9    0.60    0.14
  -7   1  -9    0.72    0.17
  -7   1  -9    0.79    0.17
  -7   1  -9    0.57    0.09
   7  -1   9    0.74    0.20
   7  -1   9    0.28    0.14
  -8   1  -9    0.22    0.16
  -8   1  -9    0.02    0.06
  -8   1  -9    0.01    0.06
  -8   1  -9    0.13    0.15
   8  -1   9    0.27    0.16
   8  -1   9   -0.05    0.16
   7   0  -9    2.77    0.29
   7   0  -9    3.54    0.33
  -7   0   9    3.34    0.31
  -7   0   9    3.14    0.27
  -7   0   9    2.59    0.30
   6   0  -9    0.91    0.19
   6   0  -9    0.97    0.19
  -6   0   9    1.01    0.20
  -6   0   9    0.91    0.19
  -6   0   9    1.18    0.19
  -6   0   9    1.18    0.18
   5   0  -9   32.54    0.94
   5   0  -9   31.86    0.96
  -5   0   9   34.27    0.97
  -5   0   9   32.84    0.92
  -5   0   9   35.05    0.94
  -5   0   9   33.23    0.95
   4   0  -9   12.41    0.46
   4   0  -9   11.76    0.41
  -4   0   9   11.12    0.46
  -4   0   9   12.30    0.45
  -4   0   9   11.32    0.43
  -4   0   9   11.54    0.46
   3   0  -9    1.84    0.18
   3   0  -9    1.84    0.20
   3   0  -9    1.88    0.17
  -3   0   9    2.16    0.21
  -3   0   9    2.12    0.19
  -3   0   9    1.85    0.19
  -3   0   9    2.13    0.21
  -3   0   9    1.71    0.17
   2   0  -9    0.22    0.09
   2   0  -9    0.22    0.09
   2   0  -9    0.11    0.09
  -2   0   9    0.25    0.11
  -2   0   9    0.15    0.09
  -2   0   9    0.22    0.11
  -2   0   9    0.20    0.09
   1   0  -9    2.02    0.15
   1   0  -9    2.39    0.19
   1   0  -9    2.04    0.18
  -1   0   9    2.28    0.19
  -1   0   9    2.26    0.19
  -1   0   9    2.20    0.20
  -1   0   9    2.24    0.18
  -1   0   9    1.99    0.17
   0   0  -9    8.09    0.33
   0   0  -9    8.79    0.30
   0   0  -9    8.48    0.32
   0   0  -9    7.70    0.31
   0   0  -9    8.54    0.28
   0   0   9    8.53    0.32
   0   0   9    8.30    0.35
   0   0   9    8.47    0.31
   0   0   9    8.03    0.33
   0   0   9    9.08    0.34
  -1   0  -9    0.36    0.09
  -1   0  -9    0.28    0.09
  -1   0  -9    0.32    0.09
  -1   0  -9    0.38    0.09
  -1   0  -9    0.33    0.08
   1   0   9    0.35    0.09
   1   0   9    0.36    0.10
   1   0   9    0.25    0.08
   1   0   9    0.19    0.09
   1   0   9    0.21    0.09
   1   0   9    0.29    0.10
  -2   0  -9   48.61    1.17
  -2   0  -9   47.66    1.14
  -2   0  -9   46.89    1.16
  -2   0  -9   48.01    1.14
  -2   0  -9   47.11    1.14
   2   0   9   46.33    1.17
   2   0   9   47.31    1.12
   2   0   9   45.93    1.19
   2   0   9   47.19    1.18
   2   0   9   49.04    1.15
  -3   0  -9    9.70    0.35
  -3   0  -9   10.44    0.37
  -3   0  -9   10.37    0.35
  -3   0  -9   10.49    0.39
  -3   0  -9   10.25    0.34
   3   0   9    9.67    0.37
   3   0   9    9.98    0.39
   3   0   9   10.36    0.36
   3   0   9   10.22    0.40
  -4   0  -9    7.44    0.33
  -4   0  -9    7.59    0.29
  -4   0  -9    7.74    0.28
  -4   0  -9    8.47    0.35
   4   0   9    8.28    0.34
   4   0   9    8.06    0.31
   4   0   9    8.49    0.37
   4   0   9    8.24    0.35
  -5   0  -9   13.81    0.49
  -5   0  -9   14.32    0.42
  -5   0  -9   14.08    0.50
   5   0   9   13.45    0.48
   5   0   9   13.72    0.46
   5   0   9   13.93    0.53
   5   0   9   13.76    0.49
  -6   0  -9    0.85    0.17
  -6   0  -9    0.74    0.15
  -6   0  -9    0.75    0.11
   6   0   9    0.65    0.14
   6   0   9    0.83    0.16
   6   0   9    0.54    0.17
  -7   0  -9    1.27    0.20
  -7   0  -9    1.31    0.20
  -7   0  -9    1.53    0.13
   7   0   9    1.43    0.23
   7   0   9    1.12    0.18
  -8   0  -9    1.99    0.25
  -8   0  -9    1.96    0.15
  -8   0  -9    1.96    0.25
   8   0   9    2.24    0.29
   8   0   9    1.45    0.22
  -9   0  -9    4.51    0.36
  -9   0  -9    4.40    0.20
   9   0   9    4.02    0.40
   9   0   9    4.64    0.37
   7  -1  -9    0.35    0.18
   7  -1  -9    0.31    0.17
  -7   1   9    0.59    0.20
  -7   1   9    0.62    0.18
  -7   1   9    0.14    0.13
   6  -1  -9   14.40    0.57
   6  -1  -9   14.78    0.58
  -6   1   9   15.28    0.57
  -6   1   9   13.31    0.53
  -6   1   9   14.91    0.53
  -6   1   9   14.65    0.60
   5  -1  -9   20.42    0.66
   5  -1  -9   20.12    0.68
  -5   1   9   19.94    0.68
  -5   1   9   19.55    0.63
  -5   1   9   19.67    0.65
  -5   1   9   20.84    0.65
   4  -1  -9    0.61    0.15
   4  -1  -9    0.55    0.14
   4  -1  -9    0.63    0.11
  -4   1   9    0.44    0.15
  -4   1   9    0.69    0.15
  -4   1   9    0.49    0.12
  -4   1   9    0.45    0.13
   3  -1  -9    3.83    0.22
   3  -1  -9    3.74    0.24
   3  -1  -9    3.75    0.25
  -3   1   9    3.69    0.24
  -3   1   9    3.29    0.23
  -3   1   9    3.86    0.24
  -3   1   9    3.85    0.26
  -3   1   9    3.81    0.27
   2  -1  -9   17.51    0.52
   2  -1  -9   17.48    0.56
   2  -1  -9   16.03    0.50
  -2   1   9   17.61    0.57
  -2   1   9   16.19    0.54
  -2   1   9   16.24    0.53
  -2   1   9   17.63    0.56
   1  -1  -9    9.49    0.32
   1  -1  -9    9.11    0.37
   1  -1  -9    9.46    0.33
   1  -1  -9    9.41    0.35
  -1   1   9    9.65    0.36
  -1   1   9    9.82    0.38
  -1   1   9    9.87    0.38
  -1   1   9    9.56    0.37
   0  -1  -9    3.20    0.21
   0  -1  -9    3.40    0.20
   0  -1  -9    3.07    0.18
   0  -1  -9    3.25    0.16
   0  -1  -9    3.33    0.20
   0  -1  -9    3.28    0.17
   0   1   9    3.18    0.19
   0   1   9    3.07    0.21
   0   1   9    3.04    0.20
   0   1   9    2.83    0.22
  -1  -1  -9   36.78    0.98
  -1  -1  -9   39.95    0.94
  -1  -1  -9   39.87    0.97
  -1  -1  -9   38.52    0.96
  -1  -1  -9   38.76    0.97
   1   1   9   38.91    0.99
   1   1   9   39.25    0.99
   1   1   9   39.21    0.96
   1   1   9   38.31    0.98
   1   1   9   37.01    0.95
   1   1   9   38.83    1.00
  -2  -1  -9   42.05    1.01
  -2  -1  -9   41.70    1.03
  -2  -1  -9   42.12    1.04
  -2  -1  -9   41.43    1.01
  -2  -1  -9   41.60    1.02
   2   1   9   40.15    1.06
   2   1   9   39.98    1.03
   2   1   9   41.52    1.00
   2   1   9   40.60    1.03
   2   1   9   39.58    1.03
   2   1   9   41.74    1.04
  -3  -1  -9    3.66    0.21
  -3  -1  -9    4.27    0.25
  -3  -1  -9    3.68    0.21
  -3  -1  -9    4.06    0.22
  -3  -1  -9    3.78    0.21
   3   1   9    4.49    0.23
   3   1   9    3.96    0.24
   3   1   9    3.97    0.23
   3   1   9    4.37    0.25
  -4  -1  -9   31.79    0.82
  -4  -1  -9   32.91    0.89
  -4  -1  -9   31.09    0.82
  -4  -1  -9   32.24    0.81
  -4  -1  -9   32.14    0.86
   4   1   9   32.24    0.90
   4   1   9   33.35    0.86
   4   1   9   33.24    0.88
   4   1   9   32.37    0.86
  -5  -1  -9    3.17    0.19
  -5  -1  -9    3.55    0.25
  -5  -1  -9    3.10    0.24
  -5  -1  -9    3.01    0.17
   5   1   9    3.47    0.23
   5   1   9    3.03    0.22
   5   1   9    3.03    0.24
   5   1   9    3.66    0.27
  -6  -1  -9    0.23    0.12
  -6  -1  -9    0.11    0.08
  -6  -1  -9    0.02    0.11
   6   1   9    0.25    0.12
   6   1   9    0.05    0.10
   6   1   9    0.10    0.14
  -7  -1  -9    4.97    0.23
  -7  -1  -9    4.86    0.31
  -7  -1  -9    4.25    0.31
   7   1   9    4.80    0.31
   7   1   9    4.35    0.30
   7   1   9    4.59    0.36
  -8  -1  -9    0.12    0.15
  -8  -1  -9    0.05    0.08
  -8  -1  -9   -0.01    0.14
   8   1   9    0.08    0.13
   8   1   9    0.21    0.15
   8   1   9    0.05    0.17
  -9  -1  -9    0.25    0.09
  -9  -1  -9    0.21    0.16
   9   1   9    0.25    0.21
   9   1   9    0.45    0.19
   7  -2  -9   -0.01    0.16
   7  -2  -9    0.20    0.18
  -7   2   9    0.24    0.19
  -7   2   9    0.22    0.14
   6  -2  -9    7.61    0.43
   6  -2  -9    8.00    0.43
  -6   2   9    8.56    0.46
  -6   2   9    7.51    0.38
  -6   2   9    8.46    0.40
  -6   2   9    8.72    0.41
   5  -2  -9   -0.11    0.11
   5  -2  -9   -0.05    0.12
  -5   2   9   -0.07    0.13
  -5   2   9    0.05    0.10
  -5   2   9    0.06    0.12
  -5   2   9    0.00    0.11
   4  -2  -9   38.75    1.07
   4  -2  -9   38.43    1.03
  -4   2   9   38.79    1.04
  -4   2   9   39.88    1.05
  -4   2   9   39.14    1.02
  -4   2   9   39.32    1.09
   3  -2  -9   10.75    0.44
   3  -2  -9   11.28    0.41
   3  -2  -9   10.85    0.38
  -3   2   9   10.90    0.42
  -3   2   9   10.79    0.43
  -3   2   9   10.89    0.41
  -3   2   9   11.20    0.46
  -3   2   9   11.88    0.43
   2  -2  -9    0.05    0.08
   2  -2  -9    0.03    0.08
   2  -2  -9    0.06    0.08
  -2   2   9    0.19    0.09
  -2   2   9    0.20    0.09
  -2   2   9    0.07    0.08
  -2   2   9    0.16    0.12
  -2   2   9    0.21    0.11
   1  -2  -9    8.37    0.36
   1  -2  -9    8.90    0.34
   1  -2  -9    9.34    0.31
   1  -2  -9    8.49    0.31
  -1   2   9    9.33    0.38
  -1   2   9    9.32    0.35
  -1   2   9    8.95    0.36
  -1   2   9    9.29    0.36
   0  -2  -9    0.67    0.11
   0  -2  -9    0.78    0.10
   0  -2  -9    0.72    0.13
   0  -2  -9    0.82    0.11
   0   2   9    0.94    0.12
   0   2   9    0.76    0.12
   0   2   9    0.98    0.16
   0   2   9    1.02    0.14
   0   2   9    0.60    0.11
  -1  -2  -9    3.82    0.21
  -1  -2  -9    3.79    0.21
  -1  -2  -9    3.83    0.21
  -1  -2  -9    3.49    0.19
  -1  -2  -9    3.73    0.22
   1   2   9    3.52    0.23
   1   2   9    3.50    0.22
   1   2   9    3.40    0.22
   1   2   9    3.85    0.21
   1   2   9    3.48    0.18
   1   2   9    3.69    0.21
  -2  -2  -9    2.12    0.17
  -2  -2  -9    2.61    0.18
  -2  -2  -9    2.42    0.18
  -2  -2  -9    2.25    0.18
  -2  -2  -9    2.37    0.17
   2   2   9    2.52    0.19
   2   2   9    2.41    0.19
   2   2   9    2.43    0.17
   2   2   9    2.38    0.17
   2   2   9    2.27    0.19
   2   2   9    2.54    0.18
  -3  -2  -9   52.24    1.23
  -3  -2  -9   51.74    1.27
  -3  -2  -9   52.43    1.25
  -3  -2  -9   50.61    1.24
  -3  -2  -9   51.40    1.25
   3   2   9   52.12    1.27
   3   2   9   49.76    1.27
   3   2   9   51.29    1.27
   3   2   9   53.18    1.25
   3   2   9   51.22    1.20
  -4  -2  -9   23.26    0.63
  -4  -2  -9   23.77    0.63
  -4  -2  -9   22.47    0.64
  -4  -2  -9   23.51    0.67
  -4  -2  -9   23.22    0.69
   4   2   9   24.68    0.67
   4   2   9   23.52    0.69
   4   2   9   22.78    0.69
   4   2   9   22.67    0.68
  -5  -2  -9    3.60    0.20
  -5  -2  -9    3.43    0.26
  -5  -2  -9    3.53    0.25
  -5  -2  -9    3.36    0.18
   5   2   9    3.43    0.24
   5   2   9    3.56    0.27
   5   2   9    3.85    0.24
  -6  -2  -9   22.34    0.62
  -6  -2  -9   23.19    0.72
  -6  -2  -9   22.56    0.71
   6   2   9   23.68    0.75
   6   2   9   23.40    0.70
   6   2   9   23.78    0.72
  -7  -2  -9    1.06    0.18
  -7  -2  -9    0.89    0.18
  -7  -2  -9    0.83    0.12
   7   2   9    1.20    0.18
   7   2   9    1.32    0.22
   7   2   9    1.18    0.19
  -8  -2  -9    0.08    0.09
  -8  -2  -9   -0.01    0.14
  -8  -2  -9    0.05    0.14
   8   2   9    0.07    0.18
   8   2   9   -0.07    0.13
   8   2   9    0.19    0.15
  -9  -2  -9    0.53    0.12
  -9  -2  -9    0.90    0.20
   9   2   9    0.64    0.23
   9   2   9    0.74    0.20
   7  -3  -9    3.19    0.31
   7  -3  -9    3.31    0.33
  -7   3   9    3.43    0.35
   6  -3  -9    1.08    0.20
   6  -3  -9    1.29    0.22
  -6   3   9    1.41    0.19
  -6   3   9    0.63    0.20
   5  -3  -9    9.77    0.43
   5  -3  -9    9.57    0.46
  -5   3   9    9.42    0.41
  -5   3   9    9.31    0.47
  -5   3   9    9.29    0.40
   4  -3  -9   11.22    0.48
   4  -3  -9   11.53    0.44
  -4   3   9   12.06    0.45
  -4   3   9   11.83    0.44
  -4   3   9   11.82    0.45
  -4   3   9   11.95    0.51
   3  -3  -9    2.22    0.18
   3  -3  -9    1.79    0.20
   3  -3  -9    2.20    0.19
  -3   3   9    2.60    0.26
  -3   3   9    2.42    0.21
  -3   3   9    2.45    0.21
  -3   3   9    1.59    0.18
   2  -3  -9   25.12    0.75
   2  -3  -9   25.44    0.69
   2  -3  -9   25.52    0.75
   2  -3  -9   25.23    0.69
  -2   3   9   26.80    0.74
  -2   3   9   24.85    0.72
  -2   3   9   26.29    0.72
  -2   3   9   25.25    0.77
  -2   3   9   25.28    0.73
   1  -3  -9   51.51    1.27
   1  -3  -9   53.13    1.32
   1  -3  -9   52.03    1.23
   1  -3  -9   53.23    1.25
  -1   3   9   51.07    1.30
  -1   3   9   53.34    1.29
  -1   3   9   52.35    1.34
  -1   3   9   56.34    1.31
   0  -3  -9    2.31    0.18
   0  -3  -9    2.37    0.18
   0  -3  -9    2.59    0.20
   0  -3  -9    2.61    0.16
   0   3   9    2.40    0.18
   0   3   9    2.69    0.20
   0   3   9    2.75    0.24
   0   3   9    2.51    0.19
   0   3   9    2.43    0.19
  -1  -3  -9    0.19    0.08
  -1  -3  -9    0.14    0.08
  -1  -3  -9    0.38    0.10
  -1  -3  -9    0.41    0.10
  -1  -3  -9    0.27    0.09
   1   3   9    0.31    0.09
   1   3   9    0.41    0.10
   1   3   9    0.35    0.12
   1   3   9    0.29    0.09
   1   3   9    0.24    0.09
  -2  -3  -9    0.75    0.12
  -2  -3  -9    0.49    0.11
  -2  -3  -9    0.47    0.11
  -2  -3  -9    0.75    0.11
  -2  -3  -9    0.75    0.13
   2   3   9    0.44    0.10
   2   3   9    0.66    0.11
   2   3   9    0.59    0.11
   2   3   9    0.69    0.11
   2   3   9    0.69    0.11
   2   3   9    0.57    0.13
  -3  -3  -9   16.94    0.53
  -3  -3  -9   17.20    0.53
  -3  -3  -9   17.44    0.55
  -3  -3  -9   17.42    0.52
  -3  -3  -9   17.32    0.52
   3   3   9   18.48    0.50
   3   3   9   17.35    0.52
   3   3   9   17.58    0.56
   3   3   9   17.47    0.54
   3   3   9   17.25    0.53
  -4  -3  -9    6.98    0.29
  -4  -3  -9    6.26    0.27
  -4  -3  -9    6.55    0.32
  -4  -3  -9    6.66    0.30
  -4  -3  -9    6.30    0.28
   4   3   9    6.67    0.32
   4   3   9    6.47    0.29
   4   3   9    6.53    0.31
   4   3   9    6.24    0.30
  -5  -3  -9   21.70    0.66
  -5  -3  -9   21.40    0.60
  -5  -3  -9   21.98    0.62
  -5  -3  -9   21.66    0.63
  -5  -3  -9   21.73    0.67
   5   3   9   22.31    0.68
   5   3   9   22.80    0.69
   5   3   9   22.37    0.65
  -6  -3  -9   15.78    0.55
  -6  -3  -9   15.20    0.48
  -6  -3  -9   16.39    0.57
   6   3   9   16.89    0.54
   6   3   9   15.16    0.57
   6   3   9   16.32    0.57
  -7  -3  -9    0.55    0.16
  -7  -3  -9    0.54    0.16
  -7  -3  -9    0.65    0.12
   7   3   9    0.91    0.19
   7   3   9    0.68    0.15
   7   3   9    1.03    0.19
  -8  -3  -9    4.85    0.35
  -8  -3  -9    5.83    0.36
  -8  -3  -9    5.70    0.28
   8   3   9    5.43    0.34
   8   3   9    5.71    0.42
   8   3   9    6.10    0.39
  -9  -3  -9    0.32    0.12
  -9  -3  -9    0.22    0.17
   9   3   9   -0.03    0.17
   9   3   9    0.33    0.21
   9   3   9    0.29    0.18
   7  -4  -9    0.42    0.19
  -7   4   9    0.55    0.15
  -7   4   9    0.30    0.20
   6  -4  -9    0.27    0.18
   6  -4  -9    0.16    0.15
  -6   4   9    0.09    0.12
  -6   4   9    0.16    0.18
   5  -4  -9    3.82    0.33
   5  -4  -9    3.33    0.27
  -5   4   9    3.35    0.27
  -5   4   9    3.02    0.25
  -5   4   9    3.09    0.32
   4  -4  -9    0.17    0.14
   4  -4  -9    0.18    0.12
  -4   4   9    0.20    0.11
  -4   4   9    0.07    0.11
  -4   4   9    0.04    0.14
   3  -4  -9   13.25    0.52
   3  -4  -9   14.90    0.48
   3  -4  -9   14.11    0.44
  -3   4   9   14.08    0.48
  -3   4   9   13.68    0.55
   2  -4  -9   30.59    0.79
   2  -4  -9   30.82    0.79
   2  -4  -9   31.49    0.86
   2  -4  -9   28.45    0.84
  -2   4   9   29.34    0.83
  -2   4   9   30.46    0.83
  -2   4   9   29.38    0.88
  -2   4   9   28.22    0.80
   1  -4  -9    7.76    0.34
   1  -4  -9    6.82    0.30
   1  -4  -9    7.66    0.34
   1  -4  -9    7.33    0.29
  -1   4   9    7.33    0.31
  -1   4   9    7.91    0.38
  -1   4   9    6.75    0.32
  -1   4   9    7.58    0.33
   0  -4  -9   37.98    1.00
   0  -4  -9   37.40    0.94
   0  -4  -9   37.53    0.95
   0  -4  -9   37.85    0.91
   0   4   9   36.91    0.92
   0   4   9   38.71    0.99
   0   4   9   36.90    1.02
   0   4   9   37.58    0.95
   0   4   9   36.12    0.96
  -1  -4  -9   13.95    0.46
  -1  -4  -9   14.48    0.49
  -1  -4  -9   14.50    0.44
  -1  -4  -9   15.35    0.47
   1   4   9   14.14    0.52
   1   4   9   13.51    0.43
   1   4   9   14.53    0.46
   1   4   9   15.18    0.47
   1   4   9   13.80    0.48
  -2  -4  -9    0.66    0.12
  -2  -4  -9    0.56    0.11
  -2  -4  -9    0.43    0.11
  -2  -4  -9    0.48    0.11
  -2  -4  -9    0.65    0.11
   2   4   9    0.35    0.09
   2   4   9    0.62    0.11
   2   4   9    0.52    0.11
   2   4   9    0.68    0.15
   2   4   9    0.55    0.12
  -3  -4  -9    1.16    0.16
  -3  -4  -9    1.13    0.14
  -3  -4  -9    0.89    0.14
  -3  -4  -9    1.31    0.14
  -3  -4  -9    1.07    0.14
   3   4   9    0.93    0.16
   3   4   9    0.98    0.12
   3   4   9    0.81    0.13
   3   4   9    0.97    0.13
   3   4   9    0.82    0.13
   3   4   9    1.03    0.16
  -4  -4  -9   28.77    0.77
  -4  -4  -9   28.46    0.76
  -4  -4  -9   28.67    0.77
  -4  -4  -9   27.73    0.78
  -4  -4  -9   27.91    0.80
   4   4   9   29.32    0.76
   4   4   9   28.07    0.79
   4   4   9   27.27    0.82
   4   4   9   27.60    0.78
  -5  -4  -9   16.74    0.55
  -5  -4  -9   15.81    0.57
  -5  -4  -9   16.14    0.51
  -5  -4  -9   17.18    0.53
   5   4   9   17.03    0.54
   5   4   9   17.85    0.58
   5   4   9   17.56    0.59
  -6  -4  -9    0.96    0.18
  -6  -4  -9    1.40    0.15
  -6  -4  -9    1.37    0.19
   6   4   9    1.35    0.20
   6   4   9    1.42    0.18
   6   4   9    1.39    0.20
  -7  -4  -9    8.61    0.42
  -7  -4  -9    8.38    0.35
  -7  -4  -9    7.96    0.40
   7   4   9    8.47    0.43
   7   4   9    8.70    0.45
   7   4   9    8.92    0.40
  -8  -4  -9    3.96    0.32
  -8  -4  -9    4.55    0.34
  -8  -4  -9    5.09    0.28
   8   4   9    4.37    0.35
   8   4   9    4.83    0.34
   8   4   9    4.06    0.37
   6  -5  -9    0.42    0.17
   6  -5  -9    0.21    0.18
  -6   5   9    0.36    0.14
  -6   5   9    0.27    0.21
   5  -5  -9    0.19    0.16
   5  -5  -9    0.13    0.14
  -5   5   9    0.22    0.12
  -5   5   9    0.46    0.19
   4  -5  -9    4.58    0.33
   4  -5  -9    4.29    0.29
  -4   5   9    4.65    0.28
  -4   5   9    4.35    0.35
  -4   5   9    4.47    0.29
   3  -5  -9   14.44    0.50
   3  -5  -9   15.66    0.56
  -3   5   9   15.17    0.53
  -3   5   9   15.18    0.59
  -3   5   9   14.40    0.51
   2  -5  -9    8.66    0.39
   2  -5  -9    8.75    0.33
  -2   5   9    8.99    0.43
  -2   5   9    8.14    0.35
  -2   5   9    9.15    0.39
   1  -5  -9    1.63    0.16
   1  -5  -9    1.75    0.19
   1  -5  -9    1.54    0.16
   1  -5  -9    1.94    0.20
  -1   5   9    1.59    0.18
  -1   5   9    1.66    0.22
  -1   5   9    2.14    0.20
   0  -5  -9   56.57    1.31
   0  -5  -9   55.70    1.39
   0  -5  -9   54.10    1.34
   0  -5  -9   55.82    1.34
   0  -5  -9   57.34    1.37
   0   5   9   56.73    1.37
   0   5   9   54.76    1.38
   0   5   9   54.57    1.42
  -1  -5  -9    4.69    0.25
  -1  -5  -9    4.87    0.23
  -1  -5  -9    4.82    0.25
  -1  -5  -9    4.56    0.25
  -1  -5  -9    4.67    0.27
   1   5   9    5.25    0.27
   1   5   9    4.60    0.24
   1   5   9    4.99    0.31
   1   5   9    4.57    0.26
  -2  -5  -9   10.86    0.37
  -2  -5  -9    9.53    0.39
  -2  -5  -9    9.83    0.38
  -2  -5  -9    9.54    0.38
   2   5   9   10.00    0.39
   2   5   9    9.81    0.36
   2   5   9    9.43    0.37
   2   5   9    9.74    0.42
  -3  -5  -9    0.39    0.11
  -3  -5  -9    0.48    0.12
  -3  -5  -9    0.59    0.13
  -3  -5  -9    0.44    0.11
  -3  -5  -9    0.53    0.13
   3   5   9    0.53    0.14
   3   5   9    0.48    0.10
   3   5   9    0.58    0.11
   3   5   9    0.60    0.12
   3   5   9    0.39    0.11
  -4  -5  -9    2.79    0.23
  -4  -5  -9    2.76    0.21
  -4  -5  -9    2.51    0.20
  -4  -5  -9    2.50    0.21
   4   5   9    2.59    0.19
   4   5   9    2.47    0.22
   4   5   9    2.51    0.19
   4   5   9    2.23    0.23
  -5  -5  -9    0.65    0.13
  -5  -5  -9    0.46    0.14
  -5  -5  -9    0.51    0.12
  -5  -5  -9    0.24    0.13
   5   5   9    0.51    0.16
   5   5   9    0.48    0.15
   5   5   9    0.51    0.12
  -6  -5  -9   16.50    0.59
  -6  -5  -9   16.73    0.53
  -6  -5  -9   16.99    0.60
  -6  -5  -9   17.23    0.55
   6   5   9   17.01    0.61
   6   5   9   17.30    0.62
   6   5   9   17.05    0.55
  -7  -5  -9   10.26    0.45
  -7  -5  -9    9.42    0.45
  -7  -5  -9    9.26    0.38
   7   5   9    9.24    0.46
   7   5   9    8.94    0.40
   7   5   9    9.59    0.48
  -8  -5  -9   -0.01    0.15
  -8  -5  -9    0.10    0.11
  -8  -5  -9   -0.12    0.15
   8   5   9   -0.13    0.14
   8   5   9   -0.01    0.14
   6  -6  -9    0.02    0.16
  -6   6   9   -0.13    0.19
  -6   6   9    0.24    0.13
   5  -6  -9    5.11    0.35
   5  -6  -9    5.17    0.38
  -5   6   9    4.59    0.30
  -5   6   9    5.14    0.41
   4  -6  -9    2.00    0.22
   4  -6  -9    1.43    0.23
  -4   6   9    2.02    0.27
  -4   6   9    2.16    0.22
  -4   6   9    2.11    0.23
   3  -6  -9    0.08    0.11
   3  -6  -9   -0.02    0.13
  -3   6   9    0.33    0.16
  -3   6   9    0.04    0.11
  -3   6   9    0.14    0.11
   2  -6  -9    7.66    0.38
   2  -6  -9    8.22    0.40
   2  -6  -9    8.34    0.33
  -2   6   9    8.64    0.38
  -2   6   9    8.14    0.36
  -2   6   9    8.97    0.45
   1  -6  -9   56.57    1.45
   1  -6  -9   56.65    1.40
   1  -6  -9   57.45    1.39
   1  -6  -9   60.43    1.45
  -1   6   9   56.66    1.43
  -1   6   9   58.28    1.50
   0  -6  -9    2.11    0.21
   0  -6  -9    1.91    0.18
   0  -6  -9    2.19    0.18
   0  -6  -9    1.77    0.19
   0  -6  -9    2.25    0.20
   0   6   9    2.09    0.21
   0   6   9    1.97    0.23
  -1  -6  -9    4.22    0.27
  -1  -6  -9    4.79    0.26
  -1  -6  -9    4.92    0.27
  -1  -6  -9    4.32    0.24
  -1  -6  -9    4.76    0.26
   1   6   9    4.52    0.31
   1   6   9    4.47    0.27
   1   6   9    4.85    0.27
  -2  -6  -9    6.34    0.29
  -2  -6  -9    6.11    0.30
  -2  -6  -9    6.31    0.31
   2   6   9    6.58    0.32
   2   6   9    5.90    0.35
   2   6   9    5.86    0.30
  -3  -6  -9    0.05    0.11
  -3  -6  -9    0.09    0.10
  -3  -6  -9    0.06    0.10
   3   6   9    0.04    0.10
   3   6   9    0.26    0.13
   3   6   9    0.09    0.10
  -4  -6  -9    4.62    0.27
  -4  -6  -9    4.41    0.27
  -4  -6  -9    3.71    0.28
  -4  -6  -9    4.00    0.25
   4   6   9    4.34    0.31
   4   6   9    3.74    0.23
  -5  -6  -9    2.92    0.26
  -5  -6  -9    2.78    0.24
  -5  -6  -9    2.84    0.22
  -5  -6  -9    2.92    0.24
   5   6   9    3.41    0.29
  -6  -6  -9    5.74    0.34
  -6  -6  -9    5.25    0.30
  -6  -6  -9    4.78    0.32
  -6  -6  -9    4.69    0.28
   6   6   9    5.17    0.36
  -7  -6  -9    0.19    0.12
  -7  -6  -9    0.35    0.16
  -7  -6  -9    0.22    0.15
   7   6   9    0.17    0.13
   7   6   9    0.29    0.17
  -8  -6  -9    9.88    0.47
  -8  -6  -9    9.32    0.41
   8   6   9    9.46    0.45
   8   6   9    9.35    0.50
   5  -7  -9   -0.09    0.14
  -5   7   9   -0.04    0.12
  -5   7   9    0.09    0.19
   4  -7  -9    0.14    0.16
   4  -7  -9    0.12    0.14
  -4   7   9    0.15    0.18
  -4   7   9    0.19    0.14
  -4   7   9    0.35    0.13
   3  -7  -9    0.15    0.15
  -3   7   9    0.00    0.12
  -3   7   9    0.40    0.18
  -3   7   9    0.10    0.12
   2  -7  -9   12.02    0.45
   2  -7  -9   12.22    0.49
  -2   7   9   11.69    0.53
  -2   7   9   11.61    0.47
  -2   7   9   12.26    0.48
   1  -7  -9   11.90    0.45
   1  -7  -9   12.81    0.48
   1  -7  -9   12.54    0.44
  -1   7   9   13.02    0.54
  -1   7   9   12.17    0.48
   0  -7  -9    8.75    0.37
   0  -7  -9    8.28    0.49
   0  -7  -9    8.24    0.37
   0  -7  -9    9.19    0.36
   0  -7  -9    8.89    0.35
   0   7   9    8.41    0.43
   0   7   9    8.85    0.39
  -1  -7  -9   35.33    0.94
  -1  -7  -9   34.54    0.94
  -1  -7  -9   35.59    0.91
   1   7   9   33.79    0.95
   1   7   9   34.80    1.01
  -2  -7  -9    9.69    0.40
  -2  -7  -9   10.23    0.39
  -2  -7  -9    9.83    0.40
   2   7   9    9.20    0.40
   2   7   9    9.48    0.45
  -3  -7  -9    8.15    0.36
  -3  -7  -9    7.98    0.37
  -3  -7  -9    7.86    0.37
   3   7   9    8.12    0.36
   3   7   9    8.60    0.43
  -4  -7  -9    3.41    0.26
  -4  -7  -9    2.98    0.25
  -4  -7  -9    2.83    0.24
   4   7   9    3.19    0.30
   4   7   9    3.03    0.23
  -5  -7  -9    0.98    0.18
  -5  -7  -9    1.15    0.19
  -5  -7  -9    0.97    0.16
   5   7   9    1.47    0.22
  -6  -7  -9    0.23    0.14
  -6  -7  -9    0.37    0.15
  -6  -7  -9    0.23    0.15
  -6  -7  -9    0.06    0.12
   6   7   9    0.41    0.17
  -7  -7  -9    3.06    0.28
  -7  -7  -9    2.72    0.25
  -7  -7  -9    3.10    0.27
  -7  -7  -9    2.40    0.26
   7   7   9    3.06    0.32
  -8  -7  -9    8.30    0.40
  -8  -7  -9    8.65    0.46
  -8  -7  -9    7.65    0.44
   8   7   9    7.91    0.48
   4  -8  -9    2.89    0.31
  -4   8   9    2.35    0.32
  -4   8   9    2.96    0.31
  -4   8   9    2.29    0.23
   3  -8  -9    0.29    0.17
  -3   8   9    0.31    0.13
  -3   8   9    0.62    0.21
  -3   8   9    0.12    0.13
   2  -8  -9    0.72    0.18
   2  -8  -9    0.53    0.15
  -2   8   9    0.40    0.19
  -2   8   9    0.37    0.14
   1  -8  -9   -0.03    0.11
   1  -8  -9   -0.02    0.10
   1  -8  -9    0.05    0.12
  -1   8   9    0.07    0.12
  -1   8   9    0.00    0.15
   0  -8  -9   14.41    0.50
   0  -8  -9   14.29    0.52
   0  -8  -9   15.18    0.50
   0   8   9   15.18    0.55
   0   8   9   14.40    0.59
  -1  -8  -9    1.41    0.17
  -1  -8  -9    1.36    0.18
  -1  -8  -9    1.12    0.16
   1   8   9    1.05    0.17
   1   8   9    0.82    0.19
  -2  -8  -9   11.77    0.47
  -2  -8  -9   12.53    0.47
  -2  -8  -9   13.82    0.51
   2   8   9   13.45    0.49
   2   8   9   12.43    0.53
  -3  -8  -9   19.62    0.66
  -3  -8  -9   20.42    0.65
  -3  -8  -9   20.90    0.65
   3   8   9   19.34    0.64
   3   8   9   21.49    0.73
  -4  -8  -9    3.07    0.26
  -4  -8  -9    2.58    0.25
  -4  -8  -9    3.21    0.27
   4   8   9    3.01    0.25
   4   8   9    3.10    0.30
  -5  -8  -9    0.88    0.17
  -5  -8  -9    1.24    0.19
  -5  -8  -9    1.32    0.20
   5   8   9    0.96    0.21
  -6  -8  -9    0.09    0.15
  -6  -8  -9    0.35    0.16
  -6  -8  -9    0.36    0.15
   6   8   9    0.56    0.20
  -7  -8  -9    3.09    0.29
  -7  -8  -9    3.15    0.37
  -7  -8  -9    3.12    0.28
  -7  -8  -9    3.85    0.32
   7   8   9    3.24    0.34
  -4   9   9    2.46    0.33
  -4   9   9    2.81    0.26
   3  -9  -9    0.13    0.16
  -3   9   9    0.00    0.12
  -3   9   9    0.05    0.14
  -3   9   9   -0.03    0.19
   2  -9  -9    3.83    0.32
   2  -9  -9    3.78    0.30
  -2   9   9    3.29    0.34
  -2   9   9    3.05    0.28
   1  -9  -9    1.47    0.20
   1  -9  -9    1.17    0.22
  -1   9   9    0.80    0.17
  -1   9   9    0.81    0.21
   0  -9  -9    1.49    0.19
   0  -9  -9    1.36    0.20
   0  -9  -9    1.56    0.18
   0   9   9    1.26    0.23
   0   9   9    2.04    0.24
  -1  -9  -9    2.96    0.27
  -1  -9  -9    2.56    0.24
  -1  -9  -9    3.32    0.26
   1   9   9    3.09    0.31
   1   9   9    3.22    0.28
  -2  -9  -9   24.86    0.75
  -2  -9  -9   26.54    0.79
  -2  -9  -9   25.23    0.76
   2   9   9   24.34    0.78
   2   9   9   24.40    0.83
  -3  -9  -9   11.21    0.47
  -3  -9  -9    9.79    0.44
  -3  -9  -9   10.36    0.45
   3   9   9   11.10    0.52
   3   9   9   10.62    0.46
  -4  -9  -9    2.05    0.24
  -4  -9  -9    1.98    0.23
  -4  -9  -9    2.10    0.23
   4   9   9    2.30    0.23
   4   9   9    1.90    0.26
  -5  -9  -9    3.18    0.29
  -5  -9  -9    2.85    0.28
  -5  -9  -9    2.42    0.25
   5   9   9    2.97    0.31
  -6  -9  -9    0.85    0.19
  -6  -9  -9    0.59    0.18
  -6  -9  -9    0.61    0.18
   6   9   9    0.83    0.22
   2 -10  -9    2.70    0.28
   2 -10  -9    3.09    0.32
  -2  10   9    3.42    0.31
  -2  10   9    3.51    0.35
   1 -10  -9    1.27    0.21
  -1  10   9    1.17    0.24
  -1  10   9    1.25    0.22
   0 -10  -9    0.40    0.16
   0 -10  -9    0.34    0.16
   0 -10  -9    0.48    0.14
   0  10   9    0.36    0.16
   0  10   9    0.34    0.19
  -1 -10  -9    3.82    0.29
  -1 -10  -9    4.83    0.33
  -1 -10  -9    4.60    0.32
   1  10   9    4.29    0.37
   1  10   9    4.23    0.33
  -2 -10  -9    6.58    0.37
  -2 -10  -9    5.79    0.36
  -2 -10  -9    6.09    0.36
   2  10   9    7.01    0.43
   2  10   9    6.30    0.38
  -3 -10  -9    0.65    0.17
  -3 -10  -9    0.93    0.20
  -3 -10  -9    0.63    0.18
   3  10   9    0.41    0.16
   3  10   9    1.06    0.23
  -4 -10  -9   11.09    0.50
  -4 -10  -9    9.53    0.46
  -4 -10  -9    9.86    0.47
   4  10   9   10.06    0.47
   4  10   9   10.31    0.52
  -5 -10  -9   12.84    0.55
  -5 -10  -9   13.62    0.56
   5  10   9   14.12    0.62
  -1  11   9    2.10    0.27
  -1  11   9    2.00    0.28
   0 -11  -9    0.14    0.16
   0  11   9    0.13    0.18
   0  11   9    0.22    0.17
  -1 -11  -9    2.38    0.25
  -1 -11  -9    2.72    0.27
   1  11   9    2.53    0.28
   1  11   9    2.62    0.30
  -2 -11  -9    3.78    0.31
  -2 -11  -9    3.48    0.30
   2  11   9    3.52    0.34
   2  11   9    2.97    0.30
  -3 -11  -9   10.46    0.47
  -3 -11  -9    8.71    0.46
   3  11   9    9.10    0.47
   3  11   9    9.69    0.52
  -4 -11  -9    5.79    0.38
  -4 -11  -9    5.82    0.39
   4  11   9    6.38    0.45
   4  11   9    6.18    0.40
   3   9 -10    0.09    0.17
  -3  -9  10    0.07    0.19
  -3  -9  10    0.26    0.15
   2   9 -10    0.22    0.18
  -2  -9  10    0.22    0.20
   1   9 -10    2.85    0.28
  -1  -9  10    3.09    0.36
   0   9 -10   11.07    0.50
   0  -9  10   10.53    0.58
  -1   9 -10    9.69    0.47
  -1   9 -10    8.64    0.45
  -1   9 -10    9.42    0.45
   1  -9  10    9.42    0.56
  -2   9 -10    0.88    0.18
   2  -9  10    1.32    0.27
   4   8 -10    3.06    0.31
  -4  -8  10    2.72    0.34
  -4  -8  10    3.05    0.29
  -4  -8  10    2.28    0.30
   3   8 -10    0.26    0.17
  -3  -8  10    0.18    0.17
  -3  -8  10    0.39    0.21
  -3  -8  10    0.34    0.15
   2   8 -10   -0.03    0.15
  -2  -8  10    0.11    0.13
  -2  -8  10    0.11    0.18
   1   8 -10    7.59    0.41
  -1  -8  10    7.97    0.49
  -1  -8  10    7.70    0.40
   0   8 -10    8.89    0.43
   0  -8  10    8.84    0.50
  -1   8 -10    5.11    0.33
  -1   8 -10    5.40    0.35
  -1   8 -10    5.26    0.33
   1  -8  10    4.96    0.40
  -2   8 -10   10.62    0.50
  -2   8 -10   10.88    0.45
   2  -8  10   11.68    0.58
  -3   8 -10    2.74    0.30
  -3   8 -10    2.48    0.23
   3  -8  10    2.18    0.30
  -4   8 -10    0.01    0.11
   4  -8  10   -0.05    0.18
   5   7 -10    9.68    0.48
  -5  -7  10    9.87    0.49
  -5  -7  10    9.33    0.52
   4   7 -10    0.25    0.17
  -4  -7  10    0.30    0.16
  -4  -7  10    0.40    0.19
   3   7 -10    2.86    0.27
  -3  -7  10    2.51    0.30
  -3  -7  10    2.72    0.26
  -3  -7  10    2.66    0.29
   2   7 -10    0.80    0.18
  -2  -7  10    0.78    0.19
  -2  -7  10    1.00    0.23
  -2  -7  10    0.81    0.16
   1   7 -10    0.16    0.14
  -1  -7  10    0.45    0.16
  -1  -7  10    0.15    0.16
  -1  -7  10    0.31    0.13
   0   7 -10    0.85    0.16
   0   7 -10    0.57    0.15
   0   7 -10    1.07    0.18
   0  -7  10    0.98    0.21
   0  -7  10    0.70    0.17
   0  -7  10    0.58    0.19
  -1   7 -10   19.85    0.64
  -1   7 -10   19.77    0.67
  -1   7 -10   19.29    0.64
   1  -7  10   20.67    0.76
   1  -7  10   20.21    0.66
  -2   7 -10   10.43    0.42
  -2   7 -10   10.72    0.47
   2  -7  10    9.05    0.42
   2  -7  10   10.82    0.54
  -3   7 -10    0.07    0.11
  -3   7 -10    0.20    0.15
   3  -7  10    0.10    0.17
  -4   7 -10   12.63    0.55
  -4   7 -10   12.02    0.44
   4  -7  10   11.59    0.60
  -5   7 -10    1.68    0.18
   5  -7  10    1.71    0.30
   6   6 -10    5.72    0.43
  -6  -6  10    4.83    0.42
  -6  -6  10    4.35    0.37
   5   6 -10    0.67    0.18
  -5  -6  10    0.43    0.19
  -5  -6  10    0.50    0.17
   4   6 -10    6.02    0.37
  -4  -6  10    6.48    0.37
  -4  -6  10    6.36    0.41
   3   6 -10   11.36    0.49
  -3  -6  10   10.95    0.47
  -3  -6  10   11.26    0.52
  -3  -6  10   11.65    0.52
   2   6 -10    0.07    0.13
  -2  -6  10   -0.04    0.14
  -2  -6  10    0.09    0.14
  -2  -6  10    0.13    0.11
   1   6 -10    2.34    0.23
  -1  -6  10    2.83    0.26
  -1  -6  10    2.43    0.21
  -1  -6  10    2.31    0.27
   0   6 -10    0.87    0.16
   0   6 -10    0.98    0.16
   0   6 -10    0.76    0.14
   0  -6  10    0.65    0.18
   0  -6  10    0.83    0.16
   0  -6  10    1.19    0.19
  -1   6 -10    2.55    0.22
  -1   6 -10    2.72    0.23
  -1   6 -10    2.63    0.23
   1  -6  10    2.24    0.23
   1  -6  10    2.57    0.24
   1  -6  10    2.52    0.28
  -2   6 -10    0.69    0.14
  -2   6 -10    0.49    0.15
   2  -6  10    0.66    0.15
   2  -6  10    0.56    0.15
   2  -6  10    0.83    0.20
  -3   6 -10   12.11    0.50
  -3   6 -10   10.28    0.41
   3  -6  10   11.68    0.55
   3  -6  10   11.21    0.46
  -4   6 -10    2.82    0.22
  -4   6 -10    3.17    0.30
   4  -6  10    2.99    0.33
   4  -6  10    2.78    0.25
  -5   6 -10    0.86    0.13
  -5   6 -10    0.92    0.21
   5  -6  10    0.52    0.21
   5  -6  10    0.46    0.16
  -6   6 -10    5.46    0.27
   6  -6  10    5.29    0.46
   6   5 -10    0.29    0.18
  -6  -5  10    0.42    0.18
  -6  -5  10    0.34    0.19
   5   5 -10    4.69    0.33
   5   5 -10    4.80    0.37
  -5  -5  10    4.92    0.39
  -5  -5  10    5.26    0.35
   4   5 -10   19.83    0.66
  -4  -5  10   18.87    0.65
  -4  -5  10   18.73    0.70
   3   5 -10    0.35    0.15
  -3  -5  10    0.10    0.15
  -3  -5  10   -0.04    0.11
  -3  -5  10    0.05    0.15
   2   5 -10   20.06    0.65
  -2  -5  10   19.30    0.63
  -2  -5  10   19.62    0.69
  -2  -5  10   19.60    0.68
   1   5 -10    7.69    0.36
  -1  -5  10    8.18    0.42
  -1  -5  10    7.25    0.37
  -1  -5  10    7.39    0.34
   0   5 -10    6.40    0.32
   0   5 -10    6.82    0.33
   0   5 -10    6.07    0.30
   0  -5  10    5.96    0.29
   0  -5  10    6.68    0.37
   0  -5  10    6.71    0.34
   0  -5  10    6.14    0.34
  -1   5 -10   -0.14    0.08
  -1   5 -10    0.08    0.11
  -1   5 -10    0.11    0.10
   1  -5  10    0.10    0.12
   1  -5  10    0.15    0.14
   1  -5  10   -0.01    0.11
  -2   5 -10    5.27    0.29
  -2   5 -10    5.59    0.29
  -2   5 -10    5.36    0.32
   2  -5  10    5.62    0.32
   2  -5  10    6.38    0.34
   2  -5  10    6.07    0.38
  -3   5 -10    8.05    0.40
  -3   5 -10    8.68    0.35
   3  -5  10    8.85    0.39
   3  -5  10    8.72    0.40
   3  -5  10    8.37    0.46
  -4   5 -10   -0.12    0.09
  -4   5 -10    0.06    0.14
   4  -5  10   -0.12    0.14
   4  -5  10    0.04    0.11
   4  -5  10    0.05    0.11
  -5   5 -10   12.73    0.42
  -5   5 -10   12.33    0.54
   5  -5  10   12.20    0.60
   5  -5  10   11.47    0.48
  -6   5 -10    7.30    0.30
  -6   5 -10    7.10    0.43
   6  -5  10    7.42    0.39
   6  -5  10    6.70    0.47
   7   4 -10    0.86    0.23
  -7  -4  10    0.90    0.21
  -7  -4  10    0.52    0.22
   6   4 -10    4.09    0.36
  -6  -4  10    4.13    0.32
  -6  -4  10    3.04    0.32
   5   4 -10   10.02    0.47
   5   4 -10    9.45    0.42
  -5  -4  10   10.45    0.51
  -5  -4  10    9.91    0.46
   4   4 -10    3.34    0.27
  -4  -4  10    3.44    0.28
  -4  -4  10    3.54    0.31
   3   4 -10    0.17    0.12
  -3  -4  10    0.18    0.12
  -3  -4  10    0.14    0.13
  -3  -4  10    0.10    0.15
   2   4 -10   13.41    0.49
  -2  -4  10   13.18    0.53
  -2  -4  10   13.59    0.53
  -2  -4  10   13.32    0.49
   1   4 -10    0.26    0.12
  -1  -4  10    0.49    0.13
  -1  -4  10    0.21    0.10
  -1  -4  10    0.33    0.14
  -1  -4  10    0.48    0.15
   0   4 -10    8.03    0.34
   0   4 -10    7.66    0.34
   0   4 -10    8.75    0.36
   0  -4  10    8.22    0.33
   0  -4  10    8.48    0.40
   0  -4  10    8.11    0.37
   0  -4  10    8.18    0.38
  -1   4 -10    3.23    0.23
  -1   4 -10    3.19    0.23
  -1   4 -10    3.15    0.22
   1  -4  10    2.82    0.24
   1  -4  10    3.25    0.28
   1  -4  10    3.26    0.26
  -2   4 -10    0.56    0.12
  -2   4 -10    0.69    0.12
  -2   4 -10    0.49    0.13
   2  -4  10    0.47    0.13
   2  -4  10    0.65    0.16
   2  -4  10    0.59    0.14
  -3   4 -10    0.04    0.11
  -3   4 -10    0.04    0.09
  -3   4 -10    0.18    0.09
   3  -4  10    0.04    0.11
   3  -4  10    0.02    0.13
   3  -4  10    0.14    0.11
  -4   4 -10   19.27    0.57
  -4   4 -10   19.42    0.66
   4  -4  10   19.75    0.65
   4  -4  10   19.67    0.72
   4  -4  10   19.84    0.64
  -5   4 -10   11.47    0.50
  -5   4 -10   10.83    0.38
   5  -4  10   10.45    0.45
   5  -4  10   11.15    0.55
   5  -4  10   11.25    0.46
  -6   4 -10    0.11    0.09
  -6   4 -10    0.13    0.15
   6  -4  10    0.18    0.18
   6  -4  10    0.21    0.13
  -7   4 -10    7.99    0.29
  -7   4 -10    8.13    0.45
   7  -4  10    7.79    0.41
   7  -4  10    7.59    0.52
   7   3 -10    0.08    0.19
  -7  -3  10    0.55    0.20
  -7  -3  10    0.60    0.18
  -7  -3  10    0.43    0.20
   6   3 -10    0.18    0.17
  -6  -3  10    0.23    0.17
  -6  -3  10    0.18    0.15
   5   3 -10    1.17    0.20
   5   3 -10    1.33    0.18
  -5  -3  10    1.32    0.20
  -5  -3  10    1.22    0.22
   4   3 -10    4.18    0.28
   4   3 -10    4.51    0.32
  -4  -3  10    4.32    0.29
  -4  -3  10    4.77    0.34
   3   3 -10   69.01    1.64
  -3  -3  10   68.50    1.65
  -3  -3  10   64.60    1.63
  -3  -3  10   66.03    1.69
   2   3 -10    0.78    0.15
  -2  -3  10    0.65    0.16
  -2  -3  10    0.55    0.13
  -2  -3  10    0.79    0.16
  -2  -3  10    0.49    0.14
   1   3 -10   16.86    0.58
   1   3 -10   18.16    0.57
  -1  -3  10   17.67    0.58
  -1  -3  10   16.50    0.59
  -1  -3  10   17.85    0.59
  -1  -3  10   17.15    0.55
   0   3 -10   24.43    0.69
   0   3 -10   23.76    0.71
   0   3 -10   23.43    0.67
   0   3 -10   23.63    0.69
   0  -3  10   24.16    0.73
   0  -3  10   24.72    0.74
   0  -3  10   24.80    0.68
   0  -3  10   22.54    0.71
  -1   3 -10    0.40    0.11
  -1   3 -10    0.21    0.11
  -1   3 -10    0.57    0.12
  -1   3 -10    0.49    0.12
   1  -3  10    0.60    0.11
   1  -3  10    0.44    0.12
   1  -3  10    0.62    0.15
   1  -3  10    0.65    0.15
  -2   3 -10    0.24    0.09
  -2   3 -10    0.08    0.08
  -2   3 -10    0.14    0.10
  -2   3 -10    0.17    0.10
   2  -3  10    0.20    0.12
   2  -3  10    0.00    0.09
   2  -3  10    0.02    0.11
  -3   3 -10    6.00    0.32
  -3   3 -10    5.99    0.26
  -3   3 -10    6.05    0.27
   3  -3  10    5.96    0.35
   3  -3  10    5.91    0.31
   3  -3  10    5.87    0.33
  -4   3 -10   11.76    0.47
  -4   3 -10   11.08    0.38
   4  -3  10   10.85    0.50
   4  -3  10   11.15    0.46
   4  -3  10   11.17    0.45
  -5   3 -10    2.08    0.24
  -5   3 -10    2.55    0.19
   5  -3  10    2.25    0.27
   5  -3  10    1.92    0.21
   5  -3  10    2.34    0.24
  -6   3 -10   10.08    0.45
  -6   3 -10    9.77    0.34
  -6   3 -10   10.33    0.47
   6  -3  10    8.31    0.42
   6  -3  10    9.41    0.52
  -7   3 -10    7.47    0.44
  -7   3 -10    8.36    0.44
  -7   3 -10    7.48    0.29
   7  -3  10    8.06    0.50
   7  -3  10    8.10    0.42
   7   2 -10    0.08    0.19
  -7  -2  10   -0.12    0.17
  -7  -2  10    0.06    0.17
  -7  -2  10   -0.06    0.14
   6   2 -10    0.14    0.16
  -6  -2  10   -0.10    0.14
  -6  -2  10    0.26    0.14
  -6  -2  10    0.06    0.15
   5   2 -10    0.37    0.13
   5   2 -10    0.10    0.15
  -5  -2  10    0.36    0.17
  -5  -2  10    0.29    0.15
  -5  -2  10    0.57    0.15
   4   2 -10    5.24    0.33
   4   2 -10    5.95    0.31
  -4  -2  10    5.94    0.33
  -4  -2  10    5.67    0.36
  -4  -2  10    5.86    0.33
   3   2 -10    1.50    0.20
   3   2 -10    1.65    0.19
   3   2 -10    1.66    0.18
  -3  -2  10    1.60    0.19
  -3  -2  10    1.72    0.22
   2   2 -10    6.85    0.35
   2   2 -10    7.15    0.33
  -2  -2  10    6.78    0.34
  -2  -2  10    7.04    0.33
  -2  -2  10    7.14    0.33
  -2  -2  10    6.94    0.37
   1   2 -10   45.38    1.20
   1   2 -10   47.07    1.18
  -1  -2  10   46.38    1.20
  -1  -2  10   46.53    1.18
  -1  -2  10   46.81    1.22
  -1  -2  10   45.93    1.16
   0   2 -10   16.64    0.51
   0   2 -10   16.91    0.53
   0   2 -10   15.66    0.53
   0   2 -10   15.86    0.49
   0  -2  10   15.57    0.53
   0  -2  10   16.08    0.54
   0  -2  10   16.10    0.50
   0  -2  10   16.29    0.55
  -1   2 -10    6.70    0.30
  -1   2 -10    7.08    0.30
  -1   2 -10    6.91    0.31
  -1   2 -10    7.10    0.31
   1  -2  10    7.24    0.35
   1  -2  10    6.89    0.33
   1  -2  10    6.98    0.34
  -2   2 -10    6.02    0.30
  -2   2 -10    6.71    0.29
  -2   2 -10    6.39    0.28
  -2   2 -10    6.35    0.29
   2  -2  10    6.15    0.31
   2  -2  10    6.11    0.33
   2  -2  10    5.87    0.32
  -3   2 -10    1.80    0.16
  -3   2 -10    1.82    0.16
  -3   2 -10    1.68    0.19
  -3   2 -10    2.14    0.18
   3  -2  10    1.91    0.20
   3  -2  10    2.14    0.23
   3  -2  10    1.87    0.20
  -4   2 -10    2.32    0.22
  -4   2 -10    2.21    0.17
  -4   2 -10    2.04    0.22
   4  -2  10    2.05    0.21
   4  -2  10    2.19    0.22
   4  -2  10    2.31    0.25
  -5   2 -10    5.01    0.31
  -5   2 -10    4.76    0.24
  -5   2 -10    5.10    0.31
   5  -2  10    4.57    0.34
   5  -2  10    4.63    0.31
   5  -2  10    4.47    0.30
  -6   2 -10   10.28    0.45
  -6   2 -10   10.19    0.46
  -6   2 -10   10.46    0.36
   6  -2  10   10.65    0.53
   6  -2  10   10.09    0.44
  -7   2 -10    0.15    0.15
  -7   2 -10    0.10    0.15
  -7   2 -10    0.16    0.09
   7  -2  10    0.29    0.19
   7  -2  10    0.27    0.16
  -8   2 -10    4.44    0.20
  -8   2 -10    4.83    0.37
   8  -2  10    4.95    0.35
   8  -2  10    4.51    0.43
   7   1 -10    0.44    0.20
  -7  -1  10    0.12    0.14
  -7  -1  10    0.29    0.18
  -7  -1  10   -0.06    0.16
  -7  -1  10    0.27    0.16
   6   1 -10    9.23    0.46
   6   1 -10    8.79    0.46
  -6  -1  10    8.67    0.43
  -6  -1  10    8.82    0.46
  -6  -1  10    9.06    0.47
   5   1 -10    2.70    0.26
   5   1 -10    3.01    0.29
  -5  -1  10    3.33    0.27
  -5  -1  10    3.46    0.30
  -5  -1  10    3.34    0.30
   4   1 -10    0.39    0.14
   4   1 -10    0.26    0.11
  -4  -1  10    0.32    0.14
  -4  -1  10    0.30    0.15
  -4  -1  10    0.35    0.13
   3   1 -10    4.98    0.30
   3   1 -10    4.68    0.27
   3   1 -10    5.01    0.30
  -3  -1  10    5.03    0.29
  -3  -1  10    5.47    0.34
  -3  -1  10    4.83    0.29
   2   1 -10   31.36    0.90
   2   1 -10   33.38    0.86
   2   1 -10   32.10    0.86
  -2  -1  10   32.23    0.91
  -2  -1  10   31.73    0.87
  -2  -1  10   30.95    0.87
  -2  -1  10   31.31    0.89
   1   1 -10   23.76    0.71
   1   1 -10   23.44    0.67
  -1  -1  10   23.93    0.71
  -1  -1  10   23.85    0.72
  -1  -1  10   23.00    0.67
  -1  -1  10   23.59    0.68
  -1  -1  10   22.93    0.68
   0   1 -10   24.35    0.71
   0   1 -10   23.30    0.63
   0   1 -10   24.87    0.68
   0   1 -10   25.80    0.70
   0   1 -10   24.58    0.67
   0  -1  10   25.03    0.68
   0  -1  10   23.65    0.72
   0  -1  10   23.23    0.68
   0  -1  10   23.54    0.71
  -1   1 -10   16.60    0.50
  -1   1 -10   17.26    0.54
  -1   1 -10   17.24    0.53
  -1   1 -10   16.93    0.52
  -1   1 -10   17.73    0.53
   1  -1  10   17.26    0.55
   1  -1  10   17.34    0.51
   1  -1  10   16.18    0.54
   1  -1  10   17.42    0.55
  -2   1 -10    3.45    0.23
  -2   1 -10    2.65    0.19
  -2   1 -10    3.12    0.20
  -2   1 -10    3.05    0.20
  -2   1 -10    3.02    0.20
   2  -1  10    2.93    0.23
   2  -1  10    3.05    0.24
   2  -1  10    2.83    0.22
  -3   1 -10    8.10    0.36
  -3   1 -10    8.68    0.33
  -3   1 -10    8.57    0.35
  -3   1 -10    8.82    0.33
  -3   1 -10    8.62    0.33
   3  -1  10    8.53    0.37
   3  -1  10    8.61    0.39
   3  -1  10    9.81    0.40
  -4   1 -10    2.08    0.15
  -4   1 -10    2.22    0.20
  -4   1 -10    2.01    0.21
  -4   1 -10    2.19    0.18
   4  -1  10    2.16    0.21
   4  -1  10    1.92    0.23
   4  -1  10    2.51    0.23
  -5   1 -10    4.15    0.29
  -5   1 -10    4.45    0.23
  -5   1 -10    3.94    0.28
   5  -1  10    4.08    0.27
   5  -1  10    5.15    0.31
   5  -1  10    3.87    0.32
  -6   1 -10    0.06    0.12
  -6   1 -10    0.11    0.08
  -6   1 -10    0.15    0.14
   6  -1  10    0.09    0.12
   6  -1  10   -0.06    0.14
  -7   1 -10    3.62    0.21
  -7   1 -10    3.36    0.30
  -7   1 -10    3.15    0.29
   7  -1  10    3.65    0.36
   7  -1  10    3.57    0.30
  -8   1 -10   11.25    0.53
  -8   1 -10   11.60    0.54
  -8   1 -10   11.39    0.36
   8  -1  10   12.02    0.52
   8  -1  10   11.55    0.60
   7   0 -10   13.63    0.62
   7   0 -10   14.10    0.60
  -7   0  10   13.05    0.61
  -7   0  10   14.20    0.60
  -7   0  10   13.53    0.56
  -7   0  10   13.53    0.54
   6   0 -10    3.76    0.32
   6   0 -10    3.48    0.31
  -6   0  10    3.45    0.29
  -6   0  10    3.10    0.27
  -6   0  10    4.62    0.35
  -6   0  10    3.88    0.34
   5   0 -10    0.15    0.15
   5   0 -10    0.08    0.13
  -5   0  10    0.07    0.12
  -5   0  10   -0.10    0.12
  -5   0  10   -0.23    0.12
  -5   0  10    0.09    0.12
   4   0 -10    6.01    0.30
   4   0 -10    6.12    0.34
  -4   0  10    6.52    0.34
  -4   0  10    5.93    0.36
  -4   0  10    6.82    0.36
   3   0 -10    5.79    0.32
   3   0 -10    6.44    0.31
   3   0 -10    5.89    0.29
  -3   0  10    5.62    0.33
  -3   0  10    6.02    0.34
  -3   0  10    6.34    0.32
   2   0 -10    4.81    0.28
   2   0 -10    4.42    0.25
   2   0 -10    4.27    0.26
  -2   0  10    4.48    0.29
  -2   0  10    4.56    0.27
  -2   0  10    4.97    0.27
  -2   0  10    4.82    0.30
   1   0 -10    0.64    0.12
   1   0 -10    0.74    0.12
   1   0 -10    0.57    0.12
   1   0 -10    0.67    0.16
  -1   0  10    0.54    0.12
  -1   0  10    0.58    0.14
  -1   0  10    0.62    0.14
  -1   0  10    0.44    0.12
   0   0 -10   16.17    0.47
   0   0 -10   15.72    0.53
   0   0 -10   16.24    0.51
   0   0 -10   15.73    0.48
   0   0  10   15.52    0.53
   0   0  10   16.76    0.52
   0   0  10   16.00    0.49
   0   0  10   15.57    0.50
   0   0  10   15.08    0.53
  -1   0 -10   19.07    0.54
  -1   0 -10   19.39    0.59
  -1   0 -10   19.34    0.56
  -1   0 -10   19.03    0.57
  -1   0 -10   18.97    0.56
   1   0  10   18.70    0.59
   1   0  10   18.64    0.61
   1   0  10   18.98    0.57
   1   0  10   19.38    0.55
   1   0  10   18.15    0.56
   1   0  10   18.79    0.58
  -2   0 -10    7.75    0.32
  -2   0 -10    7.15    0.30
  -2   0 -10    7.49    0.31
  -2   0 -10    7.66    0.30
  -2   0 -10    7.30    0.32
   2   0  10    7.05    0.33
   2   0  10    7.10    0.28
   2   0  10    6.52    0.33
   2   0  10    8.04    0.33
   2   0  10    6.91    0.30
  -3   0 -10   26.88    0.72
  -3   0 -10   27.76    0.73
  -3   0 -10   27.04    0.74
  -3   0 -10   26.54    0.77
  -3   0 -10   26.02    0.73
   3   0  10   25.91    0.73
   3   0  10   28.17    0.79
   3   0  10   27.00    0.77
   3   0  10   26.87    0.79
  -4   0 -10    1.10    0.13
  -4   0 -10    1.50    0.19
  -4   0 -10    1.46    0.17
  -4   0 -10    1.23    0.13
   4   0  10    1.39    0.19
   4   0  10    0.96    0.16
   4   0  10    0.92    0.15
  -5   0 -10    1.41    0.20
  -5   0 -10    1.35    0.15
  -5   0 -10    1.38    0.18
   5   0  10    1.30    0.18
   5   0  10    1.55    0.21
   5   0  10    1.38    0.18
  -6   0 -10    0.48    0.16
  -6   0 -10    0.38    0.15
  -6   0 -10    0.56    0.11
   6   0  10    0.13    0.15
   6   0  10    0.22    0.13
  -7   0 -10    9.74    0.35
  -7   0 -10    9.81    0.47
  -7   0 -10   10.42    0.47
   7   0  10   10.63    0.47
   7   0  10    9.85    0.51
  -8   0 -10   -0.09    0.15
  -8   0 -10    0.07    0.08
  -8   0 -10   -0.01    0.15
   8   0  10    0.14    0.18
   8   0  10   -0.01    0.15
   7  -1 -10    4.85    0.39
   7  -1 -10    5.24    0.39
  -7   1  10    4.92    0.34
  -7   1  10    4.60    0.38
  -7   1  10    5.23    0.41
   6  -1 -10    0.09    0.15
   6  -1 -10    0.13    0.15
  -6   1  10    0.27    0.18
  -6   1  10    0.37    0.16
  -6   1  10   -0.03    0.14
  -6   1  10    0.19    0.14
   5  -1 -10   10.94    0.51
   5  -1 -10   12.26    0.49
  -5   1  10   11.78    0.49
  -5   1  10   12.22    0.52
  -5   1  10   12.26    0.51
  -5   1  10   11.77    0.47
   4  -1 -10    4.49    0.30
   4  -1 -10    4.28    0.25
   4  -1 -10    4.29    0.32
  -4   1  10    4.11    0.28
  -4   1  10    4.21    0.30
  -4   1  10    4.27    0.31
  -4   1  10    4.06    0.28
   3  -1 -10    1.27    0.16
   3  -1 -10    1.42    0.19
   3  -1 -10    1.45    0.17
  -3   1  10    1.30    0.19
  -3   1  10    1.14    0.18
  -3   1  10    1.69    0.19
   2  -1 -10    0.53    0.13
   2  -1 -10    0.65    0.12
   2  -1 -10    0.35    0.11
  -2   1  10    0.70    0.15
  -2   1  10    0.37    0.13
  -2   1  10    0.42    0.12
  -2   1  10    0.76    0.14
   1  -1 -10   23.57    0.66
   1  -1 -10   25.76    0.73
   1  -1 -10   24.45    0.69
   1  -1 -10   24.60    0.65
  -1   1  10   25.03    0.73
  -1   1  10   24.14    0.72
  -1   1  10   24.37    0.73
  -1   1  10   25.25    0.71
   0  -1 -10   20.74    0.69
   0  -1 -10   20.83    0.61
   0  -1 -10   20.89    0.58
   0  -1 -10   20.26    0.63
   0   1  10   20.75    0.61
   0   1  10   20.26    0.63
   0   1  10   20.47    0.63
   0   1  10   20.25    0.63
   0   1  10   20.88    0.61
  -1  -1 -10    5.23    0.27
  -1  -1 -10    5.36    0.24
  -1  -1 -10    4.83    0.26
  -1  -1 -10    5.68    0.26
  -1  -1 -10    5.76    0.27
   1   1  10    5.49    0.28
   1   1  10    5.54    0.26
   1   1  10    5.83    0.29
   1   1  10    5.60    0.26
   1   1  10    5.28    0.28
   1   1  10    5.90    0.30
  -2  -1 -10   19.63    0.57
  -2  -1 -10   19.28    0.58
  -2  -1 -10   19.46    0.56
  -2  -1 -10   18.56    0.58
  -2  -1 -10   19.80    0.56
   2   1  10   18.67    0.58
   2   1  10   18.98    0.58
   2   1  10   19.96    0.59
   2   1  10   19.13    0.55
   2   1  10   18.44    0.61
  -3  -1 -10   32.49    0.90
  -3  -1 -10   33.69    0.88
  -3  -1 -10   33.56    0.87
  -3  -1 -10   33.95    0.87
  -3  -1 -10   34.25    0.88
   3   1  10   32.69    0.92
   3   1  10   33.41    0.90
   3   1  10   32.25    0.90
   3   1  10   34.66    0.89
  -4  -1 -10    3.05    0.21
  -4  -1 -10    2.91    0.19
  -4  -1 -10    2.70    0.22
  -4  -1 -10    2.87    0.24
  -4  -1 -10    2.65    0.20
   4   1  10    3.01    0.25
   4   1  10    3.13    0.22
   4   1  10    3.22    0.25
   4   1  10    3.02    0.24
  -5  -1 -10    8.00    0.38
  -5  -1 -10    7.76    0.36
  -5  -1 -10    7.61    0.31
   5   1  10    8.06    0.35
   5   1  10    7.57    0.37
   5   1  10    8.12    0.40
   5   1  10    8.17    0.36
  -6  -1 -10    0.70    0.16
  -6  -1 -10    0.75    0.12
  -6  -1 -10    0.74    0.16
   6   1  10    0.86    0.19
   6   1  10    0.55    0.14
   6   1  10    0.87    0.16
  -7  -1 -10    0.04    0.14
  -7  -1 -10   -0.02    0.13
  -7  -1 -10    0.24    0.10
   7   1  10   -0.07    0.14
   7   1  10    0.03    0.13
   7   1  10    0.22    0.14
  -8  -1 -10    4.54    0.35
  -8  -1 -10    4.40    0.23
  -8  -1 -10    4.60    0.36
   8   1  10    4.20    0.43
   8   1  10    4.29    0.40
   8   1  10    4.63    0.35
   7  -2 -10    2.37    0.29
  -7   2  10    1.40    0.27
  -7   2  10    1.72    0.22
   6  -2 -10    3.30    0.32
   6  -2 -10    3.75    0.32
  -6   2  10    4.00    0.30
  -6   2  10    2.95    0.29
  -6   2  10    3.77    0.31
  -6   2  10    4.58    0.38
   5  -2 -10   13.80    0.54
   5  -2 -10   13.81    0.57
  -5   2  10   14.32    0.60
  -5   2  10   13.93    0.53
  -5   2  10   14.81    0.56
   4  -2 -10    0.37    0.15
   4  -2 -10    0.23    0.13
  -4   2  10    0.26    0.12
  -4   2  10    0.17    0.15
  -4   2  10    0.20    0.12
  -4   2  10    0.21    0.14
   3  -2 -10    7.49    0.38
   3  -2 -10    7.85    0.34
   3  -2 -10    7.48    0.32
  -3   2  10    6.92    0.34
  -3   2  10    7.49    0.39
  -3   2  10    7.64    0.37
   2  -2 -10    1.21    0.16
   2  -2 -10    1.10    0.14
   2  -2 -10    0.97    0.14
  -2   2  10    1.17    0.17
  -2   2  10    1.11    0.16
  -2   2  10    1.17    0.16
  -2   2  10    1.61    0.20
   1  -2 -10    0.31    0.10
   1  -2 -10    0.27    0.09
   1  -2 -10    0.17    0.09
   1  -2 -10    0.26    0.11
  -1   2  10    0.15    0.09
  -1   2  10    0.15    0.12
  -1   2  10    0.20    0.11
   0  -2 -10    0.68    0.12
   0  -2 -10    0.58    0.11
   0  -2 -10    0.53    0.12
   0   2  10    0.33    0.10
   0   2  10    0.43    0.12
   0   2  10    0.29    0.10
   0   2  10    0.54    0.12
   0   2  10    0.49    0.13
  -1  -2 -10   40.09    1.00
  -1  -2 -10   39.10    1.02
  -1  -2 -10   38.97    0.99
  -1  -2 -10   38.47    0.98
  -1  -2 -10   39.40    0.95
   1   2  10   38.03    1.02
   1   2  10   36.85    1.01
   1   2  10   38.42    0.98
   1   2  10   38.41    0.99
   1   2  10   38.25    1.01
  -2  -2 -10   25.33    0.70
  -2  -2 -10   26.59    0.73
  -2  -2 -10   27.66    0.72
  -2  -2 -10   25.44    0.70
  -2  -2 -10   25.66    0.72
   2   2  10   25.23    0.74
   2   2  10   25.90    0.70
   2   2  10   24.32    0.73
   2   2  10   24.32    0.74
   2   2  10   25.17    0.70
   2   2  10   26.60    0.72
  -3  -2 -10    8.94    0.34
  -3  -2 -10    8.61    0.34
  -3  -2 -10    8.73    0.34
  -3  -2 -10    8.91    0.35
  -3  -2 -10    8.45    0.37
   3   2  10    8.14    0.36
   3   2  10    8.86    0.37
   3   2  10    8.89    0.35
   3   2  10    8.53    0.35
   3   2  10    8.91    0.37
  -4  -2 -10   36.34    0.95
  -4  -2 -10   37.00    1.01
  -4  -2 -10   36.91    0.95
  -4  -2 -10   36.63    0.96
  -4  -2 -10   39.47    1.00
   4   2  10   39.15    0.99
   4   2  10   38.08    1.01
   4   2  10   37.35    1.00
   4   2  10   36.19    1.01
  -5  -2 -10    4.09    0.27
  -5  -2 -10    4.03    0.23
  -5  -2 -10    3.98    0.21
  -5  -2 -10    4.63    0.30
   5   2  10    4.65    0.28
   5   2  10    4.12    0.30
   5   2  10    4.43    0.28
   5   2  10    4.20    0.29
  -6  -2 -10    0.65    0.16
  -6  -2 -10    0.54    0.12
  -6  -2 -10    0.57    0.17
   6   2  10    0.51    0.16
   6   2  10    0.49    0.14
   6   2  10    0.65    0.16
  -7  -2 -10    0.26    0.15
  -7  -2 -10    0.09    0.10
  -7  -2 -10   -0.03    0.13
   7   2  10    0.06    0.14
   7   2  10    0.11    0.14
   7   2  10    0.09    0.16
  -8  -2 -10    0.71    0.19
  -8  -2 -10    1.01    0.14
  -8  -2 -10    0.96    0.20
   8   2  10    0.67    0.22
   8   2  10    0.73    0.19
   8   2  10    0.76    0.19
   6  -3 -10    8.99    0.46
   6  -3 -10    7.37    0.46
  -6   3  10    7.94    0.49
  -6   3  10    7.75    0.40
   5  -3 -10    0.34    0.15
   5  -3 -10    0.51    0.18
  -5   3  10    0.64    0.15
  -5   3  10    0.51    0.19
  -5   3  10    0.62    0.16
   4  -3 -10   18.02    0.60
   4  -3 -10   18.15    0.66
  -4   3  10   18.09    0.60
  -4   3  10   19.68    0.63
  -4   3  10   18.46    0.69
  -4   3  10   18.94    0.66
   3  -3 -10   21.32    0.62
   3  -3 -10   20.76    0.60
   3  -3 -10   19.52    0.68
  -3   3  10   19.53    0.64
  -3   3  10   21.15    0.65
  -3   3  10   19.94    0.70
  -3   3  10   20.06    0.63
   2  -3 -10    0.03    0.10
   2  -3 -10   -0.06    0.11
   2  -3 -10   -0.03    0.08
   2  -3 -10   -0.03    0.08
  -2   3  10   -0.01    0.13
  -2   3  10    0.06    0.10
   1  -3 -10    0.11    0.10
   1  -3 -10   -0.08    0.08
   1  -3 -10    0.11    0.09
  -1   3  10    0.16    0.10
  -1   3  10    0.29    0.11
  -1   3  10    0.24    0.11
  -1   3  10    0.16    0.13
   0  -3 -10    0.22    0.10
   0  -3 -10    0.09    0.09
   0  -3 -10    0.13    0.10
   0   3  10   -0.08    0.08
   0   3  10    0.07    0.12
   0   3  10   -0.04    0.08
   0   3  10    0.05    0.09
   0   3  10    0.11    0.09
  -1  -3 -10   11.51    0.41
  -1  -3 -10   12.04    0.38
  -1  -3 -10   10.35    0.42
  -1  -3 -10   12.06    0.42
   1   3  10   11.32    0.45
   1   3  10   11.31    0.41
   1   3  10   11.24    0.39
   1   3  10   11.24    0.43
   1   3  10   11.66    0.42
  -2  -3 -10    0.05    0.08
  -2  -3 -10    0.04    0.09
  -2  -3 -10    0.06    0.08
  -2  -3 -10    0.08    0.10
  -2  -3 -10    0.21    0.10
   2   3  10    0.14    0.09
   2   3  10    0.20    0.09
   2   3  10    0.15    0.09
   2   3  10    0.07    0.09
   2   3  10    0.07    0.11
  -3  -3 -10   23.32    0.67
  -3  -3 -10   23.47    0.68
  -3  -3 -10   23.06    0.69
  -3  -3 -10   23.68    0.66
  -3  -3 -10   22.79    0.66
   3   3  10   23.84    0.70
   3   3  10   22.72    0.71
   3   3  10   22.30    0.66
   3   3  10   22.89    0.64
   3   3  10   24.05    0.67
  -4  -3 -10   26.40    0.77
  -4  -3 -10   26.51    0.74
  -4  -3 -10   28.41    0.76
  -4  -3 -10   27.05    0.79
   4   3  10   26.97    0.80
   4   3  10   26.22    0.78
   4   3  10   29.14    0.77
   4   3  10   27.10    0.78
  -5  -3 -10    0.07    0.12
  -5  -3 -10    0.00    0.09
  -5  -3 -10    0.07    0.09
  -5  -3 -10    0.00    0.11
   5   3  10    0.09    0.12
   5   3  10   -0.08    0.10
   5   3  10    0.07    0.10
  -6  -3 -10   14.56    0.56
  -6  -3 -10   14.95    0.49
  -6  -3 -10   15.25    0.55
   6   3  10   16.35    0.60
   6   3  10   16.27    0.55
   6   3  10   14.93    0.57
  -7  -3 -10    1.41    0.22
  -7  -3 -10    1.35    0.21
  -7  -3 -10    1.30    0.16
   7   3  10    1.28    0.21
   7   3  10    1.52    0.24
   7   3  10    1.10    0.19
  -8  -3 -10    0.22    0.11
  -8  -3 -10    0.27    0.17
  -8  -3 -10    0.04    0.16
   8   3  10    0.00    0.15
   8   3  10    0.30    0.19
   8   3  10    0.42    0.18
   6  -4 -10    2.95    0.30
   6  -4 -10    2.60    0.31
  -6   4  10    2.34    0.24
  -6   4  10    2.51    0.33
   5  -4 -10    6.44    0.42
   5  -4 -10    6.94    0.37
  -5   4  10    6.69    0.45
  -5   4  10    6.51    0.37
  -5   4  10    6.70    0.36
   4  -4 -10   30.67    0.95
   4  -4 -10   31.23    0.89
  -4   4  10   30.90    0.88
  -4   4  10   30.95    0.98
  -4   4  10   31.50    0.91
   3  -4 -10    0.12    0.09
   3  -4 -10    0.17    0.13
   3  -4 -10   -0.03    0.10
  -3   4  10    0.09    0.10
  -3   4  10    0.10    0.15
   2  -4 -10    3.50    0.23
   2  -4 -10    3.80    0.28
   2  -4 -10    3.33    0.28
  -2   4  10    3.59    0.30
  -2   4  10    3.60    0.26
   1  -4 -10   27.97    0.81
   1  -4 -10   26.28    0.81
   1  -4 -10   27.25    0.75
   1  -4 -10   28.33    0.77
  -1   4  10   27.79    0.84
  -1   4  10   27.18    0.77
  -1   4  10   30.54    1.07
  -1   4  10   27.68    0.79
   0  -4 -10    0.97    0.14
   0  -4 -10    1.17    0.17
   0  -4 -10    1.28    0.16
   0   4  10    1.18    0.16
   0   4  10    1.10    0.15
   0   4  10    1.36    0.20
   0   4  10    1.20    0.15
   0   4  10    1.37    0.17
  -1  -4 -10    1.79    0.18
  -1  -4 -10    1.81    0.18
  -1  -4 -10    1.94    0.19
  -1  -4 -10    2.15    0.17
   1   4  10    2.09    0.17
   1   4  10    2.00    0.18
   1   4  10    2.35    0.23
   1   4  10    2.43    0.21
   1   4  10    2.40    0.21
  -2  -4 -10   11.24    0.42
  -2  -4 -10   10.94    0.42
  -2  -4 -10   11.53    0.42
  -2  -4 -10   11.42    0.40
   2   4  10   10.61    0.42
   2   4  10   11.17    0.41
   2   4  10   11.20    0.40
   2   4  10   11.22    0.45
   2   4  10   10.79    0.38
  -3  -4 -10   31.88    0.90
  -3  -4 -10   33.21    0.87
  -3  -4 -10   33.15    0.88
  -3  -4 -10   33.64    0.89
   3   4  10   32.88    0.86
   3   4  10   32.94    0.90
   3   4  10   34.92    0.87
   3   4  10   32.76    0.94
  -4  -4 -10    2.05    0.19
  -4  -4 -10    1.73    0.17
  -4  -4 -10    1.51    0.19
  -4  -4 -10    1.43    0.18
   4   4  10    1.47    0.20
   4   4  10    1.80    0.18
   4   4  10    1.66    0.19
   4   4  10    1.67    0.19
  -5  -4 -10   17.79    0.56
  -5  -4 -10   17.75    0.58
  -5  -4 -10   17.89    0.61
  -5  -4 -10   16.35    0.54
   5   4  10   16.41    0.61
   5   4  10   18.02    0.61
   5   4  10   17.64    0.56
  -6  -4 -10    0.57    0.16
  -6  -4 -10    0.37    0.12
  -6  -4 -10    0.23    0.14
   6   4  10    0.66    0.17
   6   4  10    0.91    0.16
   6   4  10    0.54    0.16
  -7  -4 -10    1.42    0.22
  -7  -4 -10    0.98    0.19
  -7  -4 -10    1.08    0.15
   7   4  10    1.47    0.23
   7   4  10    1.29    0.23
   7   4  10    1.48    0.20
  -8  -4 -10    5.48    0.37
  -8  -4 -10    4.40    0.28
  -8  -4 -10    5.22    0.38
   8   4  10    4.94    0.41
   8   4  10    4.58    0.38
   8   4  10    5.59    0.35
   6  -5 -10    1.45    0.23
  -6   5  10    1.88    0.32
  -6   5  10    1.80    0.22
   5  -5 -10    2.57    0.29
   5  -5 -10    2.45    0.26
  -5   5  10    2.47    0.33
  -5   5  10    2.24    0.23
  -5   5  10    2.38    0.25
   4  -5 -10    0.15    0.14
   4  -5 -10    0.33    0.17
  -4   5  10    0.17    0.13
  -4   5  10    0.26    0.18
  -4   5  10    0.27    0.12
   3  -5 -10   15.31    0.58
  -3   5  10   14.42    0.53
  -3   5  10   14.75    0.54
  -3   5  10   15.26    0.61
   2  -5 -10   27.68    0.78
   2  -5 -10   28.81    0.86
  -2   5  10   28.98    0.91
  -2   5  10   29.60    0.84
   1  -5 -10    3.91    0.25
   1  -5 -10    3.54    0.26
   1  -5 -10    3.52    0.26
   1  -5 -10    3.81    0.24
  -1   5  10    3.97    0.27
  -1   5  10    3.18    0.29
   0  -5 -10    3.33    0.25
   0  -5 -10    2.44    0.21
   0  -5 -10    2.69    0.21
   0  -5 -10    2.88    0.23
   0   5  10    3.27    0.29
   0   5  10    2.31    0.21
  -1  -5 -10    0.44    0.11
  -1  -5 -10    0.30    0.12
  -1  -5 -10    0.65    0.13
  -1  -5 -10    0.31    0.12
   1   5  10    0.42    0.12
   1   5  10    0.56    0.16
   1   5  10    0.50    0.11
   1   5  10    0.42    0.12
  -2  -5 -10    7.56    0.32
  -2  -5 -10    8.05    0.35
  -2  -5 -10    8.15    0.36
   2   5  10    7.35    0.33
   2   5  10    7.44    0.34
   2   5  10    8.23    0.37
   2   5  10    7.45    0.38
  -3  -5 -10    1.53    0.17
  -3  -5 -10    1.40    0.17
  -3  -5 -10    1.25    0.18
   3   5  10    1.34    0.16
   3   5  10    1.53    0.21
   3   5  10    1.66    0.18
  -4  -5 -10   12.21    0.44
  -4  -5 -10   13.28    0.47
  -4  -5 -10   11.97    0.46
  -4  -5 -10   12.97    0.49
   4   5  10   11.69    0.50
   4   5  10   12.84    0.43
  -5  -5 -10   19.95    0.66
  -5  -5 -10   19.99    0.62
  -5  -5 -10   21.48    0.65
  -5  -5 -10   21.12    0.68
   5   5  10   20.20    0.67
   5   5  10   20.30    0.62
   5   5  10   20.43    0.71
  -6  -5 -10    5.78    0.35
  -6  -5 -10    5.52    0.30
  -6  -5 -10    5.79    0.31
  -6  -5 -10    5.10    0.35
   6   5  10    5.79    0.32
   6   5  10    5.80    0.38
   6   5  10    5.18    0.35
  -7  -5 -10    8.51    0.38
  -7  -5 -10    8.97    0.45
  -7  -5 -10    8.31    0.43
   7   5  10    8.23    0.40
   7   5  10    9.00    0.48
   7   5  10    8.35    0.46
  -8  -5 -10    5.35    0.32
  -8  -5 -10    5.61    0.39
  -8  -5 -10    5.22    0.39
   8   5  10    5.81    0.43
   8   5  10    6.11    0.37
   8   5  10    5.34    0.41
   5  -6 -10    2.02    0.36
   5  -6 -10    1.53    0.23
  -5   6  10    1.86    0.22
  -5   6  10    2.79    0.35
   4  -6 -10    0.82    0.20
   4  -6 -10    1.11    0.30
  -4   6  10    0.62    0.15
  -4   6  10    0.89    0.24
  -4   6  10    1.02    0.19
   3  -6 -10   18.58    0.66
  -3   6  10   18.66    0.71
  -3   6  10   18.49    0.63
  -3   6  10   16.91    0.60
   2  -6 -10    4.15    0.25
   2  -6 -10    4.11    0.30
  -2   6  10    4.58    0.36
  -2   6  10    4.78    0.31
   1  -6 -10    2.50    0.21
   1  -6 -10    2.05    0.22
   1  -6 -10    2.19    0.20
  -1   6  10    2.41    0.24
  -1   6  10    2.08    0.25
   0  -6 -10   18.50    0.58
   0  -6 -10   17.81    0.58
   0  -6 -10   19.38    0.61
   0   6  10   18.11    0.66
   0   6  10   19.21    0.62
  -1  -6 -10    3.52    0.26
  -1  -6 -10    3.54    0.23
  -1  -6 -10    3.68    0.25
  -1  -6 -10    3.46    0.25
   1   6  10    3.45    0.29
   1   6  10    3.72    0.27
  -2  -6 -10    2.55    0.21
  -2  -6 -10    2.39    0.22
  -2  -6 -10    2.67    0.23
   2   6  10    2.70    0.27
   2   6  10    2.88    0.23
  -3  -6 -10    0.34    0.14
  -3  -6 -10    0.37    0.13
  -3  -6 -10    0.39    0.13
   3   6  10    0.26    0.12
   3   6  10    0.41    0.12
   3   6  10    0.28    0.15
  -4  -6 -10   11.92    0.48
  -4  -6 -10   12.62    0.47
  -4  -6 -10   12.46    0.47
   4   6  10   11.96    0.44
   4   6  10   13.13    0.53
  -5  -6 -10    1.89    0.22
  -5  -6 -10    2.05    0.21
  -5  -6 -10    1.67    0.22
  -5  -6 -10    1.75    0.19
   5   6  10    2.63    0.29
  -6  -6 -10   14.00    0.52
  -6  -6 -10   14.27    0.56
  -6  -6 -10   13.73    0.50
  -6  -6 -10   14.34    0.54
   6   6  10   14.21    0.60
  -7  -6 -10    8.45    0.39
  -7  -6 -10    7.70    0.43
  -7  -6 -10    8.63    0.44
   7   6  10    8.94    0.49
  -8  -6 -10    0.07    0.16
  -8  -6 -10    0.05    0.26
  -8  -6 -10    0.09    0.12
   8   6  10   -0.10    0.15
   8   6  10   -0.07    0.17
  -5   7  10   -0.05    0.12
  -5   7  10    0.25    0.22
   4  -7 -10    6.16    0.43
  -4   7  10    6.18    0.46
  -4   7  10    5.65    0.35
  -4   7  10    6.04    0.37
   3  -7 -10    0.82    0.19
  -3   7  10    0.87    0.18
  -3   7  10    1.09    0.19
  -3   7  10    0.74    0.22
   2  -7 -10    3.18    0.29
  -2   7  10    2.92    0.27
  -2   7  10    3.06    0.31
   1  -7 -10   25.71    0.80
   1  -7 -10   25.62    0.74
   1  -7 -10   26.25    0.76
  -1   7  10   26.54    0.86
  -1   7  10   26.46    0.80
   0  -7 -10    6.86    0.35
   0  -7 -10    6.94    0.35
   0  -7 -10    6.16    0.32
   0   7  10    7.06    0.41
   0   7  10    6.70    0.36
  -1  -7 -10   12.63    0.48
  -1  -7 -10   12.35    0.47
  -1  -7 -10   12.11    0.44
   1   7  10   12.67    0.48
   1   7  10   11.93    0.53
  -2  -7 -10   11.57    0.45
  -2  -7 -10   10.90    0.44
  -2  -7 -10   11.52    0.43
   2   7  10   10.32    0.50
   2   7  10   10.47    0.44
  -3  -7 -10    3.20    0.26
  -3  -7 -10    3.47    0.28
  -3  -7 -10    2.95    0.24
   3   7  10    3.16    0.31
   3   7  10    3.39    0.26
  -4  -7 -10    0.06    0.12
  -4  -7 -10    0.16    0.14
  -4  -7 -10    0.28    0.14
   4   7  10   -0.05    0.10
   4   7  10    0.26    0.16
  -5  -7 -10    7.11    0.39
  -5  -7 -10    7.21    0.38
  -5  -7 -10    6.75    0.37
   5   7  10    7.37    0.43
  -6  -7 -10   14.88    0.58
  -6  -7 -10   14.53    0.53
  -6  -7 -10   14.22    0.56
  -6  -7 -10   14.75    0.56
   6   7  10   13.89    0.61
  -7  -7 -10    2.18    0.25
  -7  -7 -10    2.40    0.27
  -7  -7 -10    1.89    0.25
  -7  -7 -10    1.94    0.22
   7   7  10    2.26    0.29
  -4   8  10    0.65    0.17
  -4   8  10    1.06    0.26
  -4   8  10    1.13    0.21
   3  -8 -10    0.00    0.16
  -3   8  10   -0.07    0.18
  -3   8  10    0.12    0.14
   2  -8 -10    6.54    0.39
  -2   8  10    6.35    0.37
  -2   8  10    5.13    0.42
   1  -8 -10    0.48    0.16
   1  -8 -10    0.49    0.15
   1  -8 -10    0.47    0.13
  -1   8  10    0.63    0.17
  -1   8  10    0.42    0.19
   0  -8 -10    4.21    0.28
   0  -8 -10    4.04    0.29
   0   8  10    4.03    0.32
   0   8  10    4.65    0.37
  -1  -8 -10   25.90    0.79
  -1  -8 -10   28.00    0.78
  -1  -8 -10   26.45    0.81
   1   8  10   27.31    0.88
   1   8  10   26.37    0.82
  -2  -8 -10    6.11    0.33
  -2  -8 -10    6.50    0.35
  -2  -8 -10    6.73    0.37
   2   8  10    5.38    0.34
   2   8  10    6.46    0.41
  -3  -8 -10    1.70    0.22
  -3  -8 -10    1.81    0.22
  -3  -8 -10    1.72    0.21
   3   8  10    2.06    0.27
   3   8  10    2.07    0.22
  -4  -8 -10    0.39    0.16
  -4  -8 -10    0.62    0.16
  -4  -8 -10    0.17    0.14
   4   8  10    0.16    0.12
   4   8  10    0.18    0.17
  -5  -8 -10    0.48    0.17
  -5  -8 -10    0.64    0.18
  -5  -8 -10    0.69    0.17
   5   8  10    0.52    0.19
  -6  -8 -10    1.69    0.25
  -6  -8 -10    1.69    0.23
  -6  -8 -10    1.91    0.24
   6   8  10    1.62    0.27
  -7  -8 -10    2.38    0.28
  -7  -8 -10    1.90    0.24
   7   8  10    2.69    0.33
  -3   9  10   -0.14    0.19
  -3   9  10    0.14    0.16
   2  -9 -10    0.25    0.18
  -2   9  10    0.30    0.20
  -2   9  10    0.21    0.15
   1  -9 -10    0.44    0.16
  -1   9  10    0.34    0.19
  -1   9  10    0.67    0.17
   0  -9 -10   23.26    0.72
   0  -9 -10   23.99    0.76
   0   9  10   23.47    0.83
   0   9  10   23.13    0.77
  -1  -9 -10   10.76    0.46
  -1  -9 -10   11.54    0.46
  -1  -9 -10   11.59    0.48
   1   9  10   11.30    0.50
   1   9  10   12.08    0.56
  -2  -9 -10    2.49    0.26
  -2  -9 -10    2.53    0.24
  -2  -9 -10    3.10    0.26
   2   9  10    2.92    0.31
   2   9  10    2.48    0.26
  -3  -9 -10    9.46    0.45
  -3  -9 -10   10.29    0.46
  -3  -9 -10    9.54    0.43
   3   9  10   10.04    0.51
   3   9  10    9.05    0.44
  -4  -9 -10    0.52    0.17
  -4  -9 -10    0.68    0.17
  -4  -9 -10    0.51    0.18
   4   9  10    0.36    0.14
   4   9  10    0.40    0.19
  -5  -9 -10    0.17    0.15
  -5  -9 -10    0.16    0.16
  -5  -9 -10    0.12    0.17
   5   9  10    0.27    0.19
  -6  -9 -10    3.54    0.32
  -6  -9 -10    3.23    0.30
   6   9  10    3.38    0.36
  -2  10  10    0.69    0.24
  -2  10  10    0.49    0.19
   1 -10 -10    3.15    0.30
  -1  10  10    2.87    0.29
  -1  10  10    3.09    0.34
   0 -10 -10    5.00    0.36
   0 -10 -10    4.70    0.36
   0  10  10    6.24    0.43
   0  10  10    4.62    0.36
  -1 -10 -10    0.33    0.16
  -1 -10 -10    0.50    0.18
  -1 -10 -10    0.44    0.16
   1  10  10    0.36    0.20
   1  10  10    0.47    0.17
  -2 -10 -10    4.31    0.34
  -2 -10 -10    4.54    0.33
  -2 -10 -10    3.90    0.31
   2  10  10    4.57    0.39
   2  10  10    4.11    0.34
  -3 -10 -10    6.19    0.39
  -3 -10 -10    5.07    0.40
  -3 -10 -10    6.80    0.39
   3  10  10    6.65    0.45
   3  10  10    7.75    0.42
  -4 -10 -10    1.14    0.21
  -4 -10 -10    1.11    0.21
   4  10  10    1.02    0.20
   4  10  10    0.71    0.22
  -5 -10 -10    4.40    0.36
  -5 -10 -10    5.57    0.39
   5  10  10    5.80    0.45
  -1 -11 -10   11.07    0.50
  -1 -11 -10   11.49    0.49
   1  11  10   11.54    0.55
   1  11  10   11.79    0.59
  -2 -11 -10   13.92    0.57
  -2 -11 -10   14.80    0.59
   2  11  10   16.51    0.63
   2  11  10   14.97    0.67
   1   9 -11    2.98    0.31
  -1  -9  11    3.72    0.39
   0   9 -11   -0.04    0.16
   0  -9  11    0.45    0.23
  -1   9 -11    5.62    0.40
  -1   9 -11    6.20    0.39
   1  -9  11    6.23    0.49
   3   8 -11    1.34    0.24
  -3  -8  11    1.52    0.29
  -3  -8  11    1.38    0.22
  -3  -8  11    1.12    0.23
   2   8 -11    9.74    0.50
  -2  -8  11   10.74    0.57
   1   8 -11    0.98    0.21
  -1  -8  11    0.70    0.18
  -1  -8  11    0.87    0.24
   0   8 -11   11.30    0.51
   0  -8  11   12.14    0.60
  -1   8 -11    4.15    0.33
  -1   8 -11    4.88    0.35
  -1   8 -11    4.35    0.32
   1  -8  11    4.37    0.40
  -2   8 -11    0.43    0.16
  -2   8 -11    0.10    0.16
   2  -8  11    0.68    0.22
  -3   8 -11    2.35    0.24
   3  -8  11    2.11    0.32
   4   7 -11    0.52    0.19
  -4  -7  11    0.48    0.21
  -4  -7  11    0.51    0.18
  -4  -7  11    0.22    0.20
   3   7 -11   -0.04    0.15
  -3  -7  11    0.03    0.16
  -3  -7  11   -0.06    0.13
  -3  -7  11    0.05    0.18
   2   7 -11    2.72    0.28
  -2  -7  11    2.18    0.26
  -2  -7  11    2.30    0.24
  -2  -7  11    2.81    0.33
   1   7 -11    5.87    0.38
  -1  -7  11    5.92    0.37
  -1  -7  11    5.80    0.42
  -1  -7  11    5.87    0.36
   0   7 -11   16.22    0.59
   0  -7  11   16.65    0.62
   0  -7  11   15.22    0.67
   0  -7  11   15.89    0.60
  -1   7 -11    2.19    0.24
  -1   7 -11    2.34    0.25
  -1   7 -11    2.07    0.23
   1  -7  11    2.39    0.30
   1  -7  11    2.27    0.24
  -2   7 -11   17.62    0.64
  -2   7 -11   16.14    0.58
   2  -7  11   16.22    0.60
   2  -7  11   18.20    0.73
  -3   7 -11    2.56    0.23
  -3   7 -11    2.50    0.28
   3  -7  11    3.00    0.34
   3  -7  11    2.38    0.32
  -4   7 -11    0.24    0.13
   4  -7  11    0.05    0.19
   5   6 -11    4.97    0.40
   5   6 -11    4.32    0.35
  -5  -6  11    4.68    0.41
  -5  -6  11    4.48    0.36
   4   6 -11    0.52    0.17
  -4  -6  11    0.49    0.21
  -4  -6  11    0.56    0.21
  -4  -6  11    0.42    0.17
   3   6 -11    2.59    0.27
  -3  -6  11    1.73    0.25
  -3  -6  11    2.45    0.25
  -3  -6  11    2.35    0.29
   2   6 -11    0.21    0.15
  -2  -6  11   -0.03    0.14
  -2  -6  11   -0.06    0.12
  -2  -6  11    0.33    0.18
   1   6 -11    4.52    0.33
  -1  -6  11    4.48    0.29
  -1  -6  11    4.56    0.34
  -1  -6  11    4.44    0.35
   0   6 -11    0.20    0.14
   0  -6  11   -0.03    0.14
   0  -6  11    0.11    0.13
   0  -6  11    0.11    0.13
  -1   6 -11    4.40    0.30
  -1   6 -11    4.37    0.30
  -1   6 -11    4.28    0.29
   1  -6  11    4.40    0.30
   1  -6  11    3.55    0.30
   1  -6  11    4.03    0.34
  -2   6 -11   10.48    0.46
  -2   6 -11   10.21    0.42
   2  -6  11   10.43    0.53
   2  -6  11    9.81    0.46
   2  -6  11    9.42    0.44
  -3   6 -11    0.72    0.18
  -3   6 -11    0.50    0.14
   3  -6  11    0.28    0.19
   3  -6  11    0.45    0.15
  -4   6 -11    4.87    0.29
  -4   6 -11    5.35    0.39
   4  -6  11    5.10    0.43
   4  -6  11    4.28    0.32
  -5   6 -11    0.76    0.14
   5  -6  11    0.49    0.22
   5  -6  11    0.69    0.18
   6   5 -11    6.22    0.45
  -6  -5  11    6.10    0.47
  -6  -5  11    7.49    0.45
   5   5 -11    0.63    0.17
   5   5 -11    0.31    0.19
  -5  -5  11    0.43    0.17
  -5  -5  11    0.55    0.21
   4   5 -11    5.71    0.36
  -4  -5  11    5.84    0.46
  -4  -5  11    6.05    0.42
  -4  -5  11    5.56    0.36
   3   5 -11   11.06    0.48
  -3  -5  11   12.12    0.53
  -3  -5  11   11.15    0.52
  -3  -5  11   11.47    0.49
   2   5 -11   -0.06    0.13
  -2  -5  11    0.00    0.11
  -2  -5  11    0.05    0.14
  -2  -5  11   -0.19    0.13
   1   5 -11    0.13    0.14
  -1  -5  11    0.22    0.14
  -1  -5  11    0.21    0.14
  -1  -5  11    0.11    0.11
   0   5 -11    6.32    0.34
   0   5 -11    6.21    0.46
   0  -5  11    6.73    0.37
   0  -5  11    6.64    0.40
   0  -5  11    6.63    0.35
  -1   5 -11   21.48    0.68
  -1   5 -11   21.99    0.69
  -1   5 -11   21.96    0.67
   1  -5  11   21.43    0.72
   1  -5  11   21.37    0.70
   1  -5  11   22.27    0.76
  -2   5 -11    0.09    0.11
  -2   5 -11    0.45    0.15
  -2   5 -11    0.16    0.11
   2  -5  11    0.38    0.14
   2  -5  11    0.27    0.14
   2  -5  11    0.30    0.16
  -3   5 -11   13.63    0.54
  -3   5 -11   13.46    0.48
   3  -5  11   13.81    0.54
   3  -5  11   13.36    0.53
   3  -5  11   15.06    0.62
  -4   5 -11    6.72    0.39
  -4   5 -11    6.77    0.32
   4  -5  11    7.20    0.45
   4  -5  11    7.07    0.37
   4  -5  11    6.58    0.38
  -5   5 -11    0.72    0.14
  -5   5 -11    0.34    0.17
   5  -5  11    0.39    0.19
   5  -5  11    0.78    0.17
  -6   5 -11    1.95    0.18
   6  -5  11    1.75    0.24
   6  -5  11    1.82    0.31
   6   4 -11    0.01    0.19
  -6  -4  11    0.25    0.20
  -6  -4  11    0.03    0.16
   5   4 -11    1.51    0.25
   5   4 -11    1.76    0.22
  -5  -4  11    1.76    0.27
  -5  -4  11    1.63    0.23
   4   4 -11   12.53    0.53
   4   4 -11   13.06    0.51
  -4  -4  11   13.94    0.59
  -4  -4  11   13.19    0.54
   3   4 -11    0.01    0.12
  -3  -4  11   -0.08    0.14
  -3  -4  11    0.05    0.14
  -3  -4  11    0.12    0.13
   2   4 -11    5.55    0.33
  -2  -4  11    5.40    0.31
  -2  -4  11    4.77    0.33
  -2  -4  11    5.32    0.36
   1   4 -11    7.61    0.37
  -1  -4  11    7.55    0.35
  -1  -4  11    7.45    0.39
  -1  -4  11    7.37    0.39
   0   4 -11    1.10    0.18
   0   4 -11    0.99    0.15
   0  -4  11    1.00    0.18
   0  -4  11    1.06    0.17
   0  -4  11    1.11    0.19
   0  -4  11    0.97    0.15
  -1   4 -11    0.52    0.13
  -1   4 -11    0.43    0.12
  -1   4 -11    0.22    0.12
   1  -4  11    0.15    0.14
   1  -4  11    0.61    0.15
   1  -4  11    0.43    0.14
  -2   4 -11   20.70    0.67
  -2   4 -11   22.03    0.66
  -2   4 -11   21.71    0.65
   2  -4  11   20.66    0.69
   2  -4  11   21.19    0.74
   2  -4  11   22.52    0.72
  -3   4 -11   11.62    0.48
  -3   4 -11   11.73    0.42
   3  -4  11   11.29    0.49
   3  -4  11   11.44    0.47
   3  -4  11   11.95    0.53
  -4   4 -11    8.69    0.43
  -4   4 -11    8.21    0.35
   4  -4  11    8.97    0.43
   4  -4  11    8.29    0.41
   4  -4  11    8.84    0.48
  -5   4 -11    2.84    0.22
  -5   4 -11    2.73    0.29
   5  -4  11    2.41    0.26
   5  -4  11    2.39    0.31
   5  -4  11    2.21    0.24
  -6   4 -11    4.12    0.24
  -6   4 -11    3.79    0.33
  -6   4 -11    3.95    0.35
   6  -4  11    4.03    0.31
   6  -4  11    3.82    0.38
   6   3 -11    0.20    0.18
  -6  -3  11    0.35    0.16
  -6  -3  11    0.50    0.21
   5   3 -11   14.05    0.52
   5   3 -11   13.90    0.58
  -5  -3  11   13.74    0.60
  -5  -3  11   14.34    0.57
   4   3 -11    2.70    0.26
   4   3 -11    2.10    0.22
  -4  -3  11    2.90    0.30
  -4  -3  11    2.15    0.24
   3   3 -11    0.77    0.16
  -3  -3  11    1.10    0.21
  -3  -3  11    1.06    0.18
   2   3 -11   27.34    0.81
  -2  -3  11   27.71    0.86
  -2  -3  11   25.90    0.79
  -2  -3  11   28.51    0.83
   1   3 -11    1.75    0.19
  -1  -3  11    2.61    0.24
  -1  -3  11    1.67    0.20
  -1  -3  11    2.17    0.20
  -1  -3  11    2.72    0.26
   0   3 -11    1.34    0.16
   0   3 -11    1.46    0.18
   0  -3  11    1.49    0.19
   0  -3  11    1.20    0.15
   0  -3  11    1.76    0.21
   0  -3  11    1.83    0.22
  -1   3 -11    0.48    0.13
  -1   3 -11    0.57    0.13
  -1   3 -11    0.43    0.12
   1  -3  11    0.44    0.14
   1  -3  11    0.51    0.14
   1  -3  11    0.27    0.13
  -2   3 -11    5.69    0.31
  -2   3 -11    5.27    0.28
  -2   3 -11    5.46    0.29
   2  -3  11    5.92    0.35
   2  -3  11    5.15    0.31
   2  -3  11    5.29    0.33
  -3   3 -11    0.15    0.10
  -3   3 -11    0.13    0.12
   3  -3  11   -0.06    0.11
   3  -3  11    0.22    0.14
   3  -3  11    0.12    0.12
  -4   3 -11   36.74    1.06
  -4   3 -11   37.90    0.97
   4  -3  11   39.80    1.14
   4  -3  11   38.55    1.08
   4  -3  11   37.06    1.05
  -5   3 -11   13.05    0.52
  -5   3 -11   13.76    0.55
  -5   3 -11   12.59    0.44
   5  -3  11   12.45    0.59
   5  -3  11   12.95    0.53
   5  -3  11   12.85    0.52
  -6   3 -11   -0.20    0.13
  -6   3 -11   -0.06    0.13
  -6   3 -11   -0.10    0.09
   6  -3  11    0.03    0.13
   6  -3  11    0.24    0.18
  -7   3 -11    2.52    0.29
  -7   3 -11    2.76    0.20
   7  -3  11    2.75    0.29
   7  -3  11    2.51    0.33
   6   2 -11    7.40    0.44
  -6  -2  11    7.27    0.47
  -6  -2  11    6.90    0.43
  -6  -2  11    8.07    0.43
   5   2 -11    0.86    0.20
   5   2 -11    1.17    0.26
  -5  -2  11    1.06    0.20
  -5  -2  11    1.08    0.22
  -5  -2  11    1.59    0.25
   4   2 -11    0.86    0.16
   4   2 -11    0.97    0.19
  -4  -2  11    1.34    0.22
  -4  -2  11    1.15    0.19
   3   2 -11   27.08    0.79
   3   2 -11   24.79    0.77
  -3  -2  11   26.75    0.80
  -3  -2  11   27.25    0.85
   2   2 -11    3.78    0.27
  -2  -2  11    3.38    0.25
  -2  -2  11    3.58    0.30
   1   2 -11    9.97    0.41
  -1  -2  11   10.22    0.41
  -1  -2  11    9.14    0.41
  -1  -2  11    9.75    0.40
  -1  -2  11   10.06    0.44
   0   2 -11   17.35    0.57
   0   2 -11   16.44    0.53
   0  -2  11   17.06    0.59
   0  -2  11   17.71    0.60
   0  -2  11   18.43    0.59
   0  -2  11   17.28    0.58
   0  -2  11   17.03    0.54
  -1   2 -11    0.31    0.11
  -1   2 -11    0.29    0.12
  -1   2 -11    0.23    0.10
  -1   2 -11    0.23    0.10
   1  -2  11    0.21    0.12
   1  -2  11    0.33    0.10
   1  -2  11    0.40    0.13
   1  -2  11    0.27    0.13
  -2   2 -11    0.65    0.14
  -2   2 -11    0.96    0.15
  -2   2 -11    0.96    0.14
  -2   2 -11    1.36    0.16
   2  -2  11    0.92    0.17
   2  -2  11    0.63    0.15
   2  -2  11    1.00    0.18
  -3   2 -11    1.33    0.15
  -3   2 -11    0.84    0.16
  -3   2 -11    1.24    0.16
  -3   2 -11    1.33    0.17
   3  -2  11    1.07    0.18
   3  -2  11    1.41    0.20
   3  -2  11    1.04    0.17
  -4   2 -11    5.32    0.31
  -4   2 -11    4.90    0.26
  -4   2 -11    5.58    0.33
   4  -2  11    4.68    0.31
   4  -2  11    5.45    0.36
   4  -2  11    5.51    0.34
  -5   2 -11    4.54    0.32
  -5   2 -11    4.21    0.24
  -5   2 -11    4.17    0.29
   5  -2  11    3.89    0.33
   5  -2  11    3.76    0.30
   5  -2  11    4.19    0.32
  -6   2 -11    4.99    0.26
  -6   2 -11    5.32    0.35
  -6   2 -11    5.43    0.37
   6  -2  11    4.66    0.40
   6  -2  11    4.66    0.33
  -7   2 -11    9.78    0.49
  -7   2 -11   10.33    0.51
  -7   2 -11    9.22    0.35
   7  -2  11   10.10    0.57
   7  -2  11    9.91    0.48
   6   1 -11    0.20    0.18
   6   1 -11    0.12    0.16
  -6  -1  11    0.20    0.15
  -6  -1  11    0.10    0.17
  -6  -1  11    0.31    0.19
   5   1 -11    0.09    0.15
   5   1 -11    0.02    0.15
  -5  -1  11    0.20    0.14
  -5  -1  11    0.05    0.16
  -5  -1  11    0.13    0.15
   4   1 -11    8.29    0.38
   4   1 -11    9.05    0.42
  -4  -1  11    8.87    0.42
  -4  -1  11    9.51    0.44
  -4  -1  11    8.75    0.46
   3   1 -11   14.42    0.50
   3   1 -11   13.48    0.49
  -3  -1  11   13.08    0.54
  -3  -1  11   13.11    0.50
  -3  -1  11   12.04    0.50
   2   1 -11    5.84    0.31
   2   1 -11    5.82    0.30
  -2  -1  11    5.56    0.31
  -2  -1  11    5.92    0.35
  -2  -1  11    6.39    0.33
   1   1 -11   27.58    0.77
  -1  -1  11   26.49    0.77
  -1  -1  11   25.73    0.79
  -1  -1  11   26.87    0.79
   0   1 -11    5.88    0.39
   0   1 -11    6.21    0.31
   0   1 -11    5.89    0.28
   0  -1  11    6.51    0.31
   0  -1  11    5.89    0.29
   0  -1  11    6.61    0.35
   0  -1  11    6.54    0.32
   0  -1  11    6.65    0.32
  -1   1 -11    9.89    0.46
  -1   1 -11   10.76    0.40
  -1   1 -11   10.41    0.37
  -1   1 -11   10.28    0.40
  -1   1 -11   10.55    0.39
   1  -1  11   10.35    0.41
   1  -1  11   10.64    0.44
   1  -1  11   10.76    0.42
   1  -1  11   10.48    0.38
  -2   1 -11    3.47    0.23
  -2   1 -11    3.32    0.22
  -2   1 -11    3.40    0.23
  -2   1 -11    3.24    0.26
  -2   1 -11    3.24    0.24
   2  -1  11    2.91    0.25
   2  -1  11    3.02    0.24
   2  -1  11    3.81    0.26
  -3   1 -11    0.67    0.13
  -3   1 -11    0.72    0.15
  -3   1 -11    0.51    0.13
  -3   1 -11    0.73    0.13
  -3   1 -11    0.66    0.14
   3  -1  11    0.70    0.16
   3  -1  11    0.80    0.16
   3  -1  11    0.65    0.15
  -4   1 -11    0.43    0.14
  -4   1 -11    0.30    0.10
  -4   1 -11    0.36    0.09
  -4   1 -11    0.48    0.14
   4  -1  11    0.48    0.15
   4  -1  11    0.55    0.16
  -5   1 -11    5.27    0.32
  -5   1 -11    4.93    0.26
  -5   1 -11    4.70    0.33
   5  -1  11    5.35    0.37
   5  -1  11    5.86    0.35
   5  -1  11    5.10    0.32
  -6   1 -11   15.20    0.57
  -6   1 -11   13.80    0.46
  -6   1 -11   15.09    0.58
   6  -1  11   12.65    0.59
   6  -1  11   14.02    0.55
  -7   1 -11    0.25    0.10
  -7   1 -11    0.34    0.18
  -7   1 -11   -0.09    0.15
   7  -1  11    0.24    0.20
   7  -1  11    0.31    0.16
  -8   1 -11    4.57    0.24
  -8   1 -11    4.22    0.36
   8  -1  11    5.24    0.38
   8  -1  11    4.65    0.44
   6   0 -11    1.09    0.22
   6   0 -11    1.25    0.22
  -6   0  11    1.60    0.25
  -6   0  11    1.17    0.21
  -6   0  11    0.65    0.21
   5   0 -11    0.16    0.15
   5   0 -11    0.68    0.18
  -5   0  11    0.27    0.15
  -5   0  11    0.33    0.17
  -5   0  11    0.22    0.15
   4   0 -11    1.02    0.16
   4   0 -11    0.86    0.17
  -4   0  11    1.14    0.21
  -4   0  11    0.77    0.17
  -4   0  11    1.00    0.20
   3   0 -11    0.51    0.13
   3   0 -11    0.61    0.15
  -3   0  11    0.82    0.18
  -3   0  11    0.76    0.18
  -3   0  11    0.58    0.14
   2   0 -11   20.64    0.63
   2   0 -11   21.01    0.61
   2   0 -11   18.92    0.72
  -2   0  11   20.15    0.65
  -2   0  11   19.99    0.64
  -2   0  11   19.32    0.66
   1   0 -11   18.08    0.53
   1   0 -11   17.49    0.59
   1   0 -11   17.91    0.57
  -1   0  11   16.58    0.56
  -1   0  11   17.36    0.59
  -1   0  11   17.41    0.60
  -1   0  11   17.90    0.58
   0   0 -11    1.83    0.19
   0   0 -11    2.63    0.20
   0   0 -11    2.14    0.21
   0   0  11    2.28    0.21
   0   0  11    2.57    0.24
   0   0  11    2.51    0.22
   0   0  11    2.49    0.22
  -1   0 -11   25.80    0.72
  -1   0 -11   24.31    0.70
  -1   0 -11   24.41    0.72
  -1   0 -11   24.63    0.70
  -1   0 -11   26.15    0.68
   1   0  11   24.82    0.69
   1   0  11   23.85    0.75
   1   0  11   23.25    0.73
   1   0  11   23.63    0.70
   1   0  11   24.35    0.72
   1   0  11   25.34    0.71
  -2   0 -11    0.85    0.14
  -2   0 -11    0.61    0.14
  -2   0 -11    0.92    0.14
  -2   0 -11    1.02    0.13
  -2   0 -11    0.75    0.12
   2   0  11    0.82    0.15
   2   0  11    0.62    0.14
   2   0  11    0.89    0.15
   2   0  11    0.76    0.12
  -3   0 -11    1.26    0.15
  -3   0 -11    1.12    0.15
  -3   0 -11    1.03    0.15
  -3   0 -11    1.28    0.17
  -3   0 -11    0.98    0.16
   3   0  11    1.15    0.18
   3   0  11    1.50    0.19
   3   0  11    1.28    0.18
  -4   0 -11    0.35    0.13
  -4   0 -11    0.57    0.12
  -4   0 -11    0.56    0.15
  -4   0 -11    0.14    0.11
   4   0  11    0.29    0.12
   4   0  11    0.40    0.15
   4   0  11    0.45    0.15
  -5   0 -11    8.54    0.40
  -5   0 -11    8.45    0.35
  -5   0 -11    7.94    0.41
   5   0  11    8.87    0.40
   5   0  11    8.79    0.43
   5   0  11    8.80    0.42
  -6   0 -11    3.18    0.29
  -6   0 -11    3.05    0.28
  -6   0 -11    3.00    0.22
   6   0  11    2.50    0.29
   6   0  11    2.54    0.26
  -7   0 -11    1.46    0.16
  -7   0 -11    1.25    0.22
  -7   0 -11    1.19    0.22
   7   0  11    1.12    0.24
   7   0  11    1.19    0.21
  -8   0 -11   10.96    0.51
  -8   0 -11    9.93    0.37
   8   0  11   10.04    0.51
   8   0  11   10.75    0.58
   6  -1 -11    4.80    0.37
   6  -1 -11    4.31    0.38
  -6   1  11    4.95    0.36
  -6   1  11    4.45    0.38
  -6   1  11    4.75    0.39
  -6   1  11    3.21    0.29
   5  -1 -11    0.33    0.16
   5  -1 -11    0.46    0.16
  -5   1  11    0.68    0.19
  -5   1  11    0.55    0.20
  -5   1  11    0.75    0.18
   4  -1 -11   -0.14    0.13
   4  -1 -11   -0.13    0.12
   4  -1 -11    0.07    0.11
  -4   1  11    0.10    0.15
  -4   1  11    0.04    0.15
  -4   1  11    0.12    0.12
   3  -1 -11   17.87    0.88
   3  -1 -11   18.06    0.60
   3  -1 -11   18.30    0.59
  -3   1  11   19.44    0.63
  -3   1  11   18.96    0.66
  -3   1  11   18.78    0.64
   2  -1 -11   18.28    0.57
   2  -1 -11   18.00    0.55
   2  -1 -11   16.99    0.60
  -2   1  11   17.73    0.61
  -2   1  11   16.78    0.60
  -2   1  11   18.88    0.59
   1  -1 -11    3.28    0.23
   1  -1 -11    3.53    0.25
   1  -1 -11    3.03    0.24
  -1   1  11    3.12    0.23
  -1   1  11    3.50    0.27
  -1   1  11    3.15    0.24
  -1   1  11    3.25    0.26
   0  -1 -11   23.14    0.68
   0  -1 -11   23.52    0.66
   0  -1 -11   24.03    0.72
   0   1  11   21.75    0.67
   0   1  11   23.66    0.71
   0   1  11   22.93    0.71
   0   1  11   23.12    0.72
   0   1  11   24.25    0.69
  -1  -1 -11   17.34    0.54
  -1  -1 -11   16.22    0.56
  -1  -1 -11   16.93    0.54
  -1  -1 -11   17.54    0.55
  -1  -1 -11   18.00    0.51
   1   1  11   15.93    0.56
   1   1  11   17.18    0.54
   1   1  11   17.39    0.58
   1   1  11   17.91    0.57
   1   1  11   16.50    0.55
  -2  -1 -11    2.60    0.20
  -2  -1 -11    2.29    0.20
  -2  -1 -11    2.82    0.21
  -2  -1 -11    2.58    0.21
  -2  -1 -11    2.61    0.22
   2   1  11    2.18    0.21
   2   1  11    2.73    0.22
   2   1  11    2.38    0.18
   2   1  11    2.58    0.25
   2   1  11    2.53    0.22
  -3  -1 -11   12.63    0.44
  -3  -1 -11   12.08    0.45
  -3  -1 -11   11.31    0.42
  -3  -1 -11   12.51    0.43
   3   1  11   11.23    0.47
   3   1  11   12.81    0.46
   3   1  11   11.64    0.45
   3   1  11   11.74    0.44
  -4  -1 -11    9.58    0.39
  -4  -1 -11    9.04    0.37
  -4  -1 -11    8.50    0.40
  -4  -1 -11    8.51    0.36
   4   1  11    8.59    0.38
   4   1  11    9.28    0.42
   4   1  11    9.37    0.40
   4   1  11    9.27    0.41
  -5  -1 -11    1.29    0.20
  -5  -1 -11    0.94    0.17
  -5  -1 -11    1.57    0.17
   5   1  11    1.18    0.18
   5   1  11    1.17    0.20
   5   1  11    1.31    0.19
   5   1  11    1.08    0.18
  -6  -1 -11    3.28    0.23
  -6  -1 -11    3.37    0.30
  -6  -1 -11    3.21    0.28
   6   1  11    3.64    0.36
   6   1  11    2.96    0.27
   6   1  11    3.09    0.31
  -7  -1 -11   15.09    0.49
  -7  -1 -11   14.24    0.59
  -7  -1 -11   15.49    0.60
   7   1  11   15.61    0.65
   7   1  11   15.84    0.60
  -8  -1 -11    1.84    0.18
  -8  -1 -11    1.55    0.31
  -8  -1 -11    1.40    0.25
   8   1  11    2.15    0.26
   8   1  11    1.37    0.27
   6  -2 -11    1.17    0.22
   6  -2 -11    1.39    0.25
  -6   2  11    1.43    0.21
  -6   2  11    2.06    0.25
  -6   2  11    1.91    0.30
   5  -2 -11    4.81    0.38
   5  -2 -11    5.43    0.35
  -5   2  11    3.25    0.33
  -5   2  11    5.30    0.41
  -5   2  11    5.29    0.37
  -5   2  11    5.11    0.33
   4  -2 -11    7.08    0.36
   4  -2 -11    6.56    0.40
  -4   2  11    6.52    0.41
  -4   2  11    6.50    0.36
  -4   2  11    6.73    0.38
   3  -2 -11    0.07    0.10
   3  -2 -11    0.14    0.11
   3  -2 -11   -0.07    0.13
  -3   2  11    0.02    0.11
  -3   2  11    0.03    0.14
  -3   2  11   -0.03    0.12
   2  -2 -11    0.17    0.11
   2  -2 -11    0.09    0.10
   2  -2 -11   -0.02    0.10
  -2   2  11    0.01    0.10
  -2   2  11   -0.23    0.12
  -2   2  11    0.11    0.11
   1  -2 -11   18.86    0.59
   1  -2 -11   19.16    0.63
  -1   2  11   18.99    0.64
  -1   2  11   19.24    0.61
  -1   2  11   18.96    0.61
  -1   2  11   18.10    0.69
   0  -2 -11   53.02    1.37
   0  -2 -11   54.61    1.31
   0  -2 -11   55.30    1.35
   0   2  11   54.46    1.37
   0   2  11   56.03    1.34
   0   2  11   52.31    1.37
   0   2  11   53.86    1.34
   0   2  11   54.18    1.38
  -1  -2 -11    0.28    0.11
  -1  -2 -11    0.17    0.11
  -1  -2 -11    0.71    0.14
  -1  -2 -11    0.07    0.09
   1   2  11    0.20    0.12
   1   2  11    0.14    0.11
   1   2  11    0.19    0.10
   1   2  11    0.16    0.10
   1   2  11    0.02    0.10
  -2  -2 -11   15.37    0.50
  -2  -2 -11   15.19    0.51
  -2  -2 -11   15.67    0.49
  -2  -2 -11   15.72    0.52
   2   2  11   16.02    0.55
   2   2  11   14.78    0.53
   2   2  11   16.05    0.52
   2   2  11   14.92    0.49
  -3  -2 -11    6.55    0.31
  -3  -2 -11    6.89    0.31
  -3  -2 -11    6.35    0.30
  -3  -2 -11    6.10    0.32
   3   2  11    5.93    0.32
   3   2  11    6.38    0.32
   3   2  11    6.15    0.33
   3   2  11    5.79    0.30
  -4  -2 -11    1.10    0.18
  -4  -2 -11    1.18    0.15
  -4  -2 -11    1.25    0.16
  -4  -2 -11    0.73    0.16
   4   2  11    1.27    0.19
   4   2  11    1.14    0.18
   4   2  11    1.06    0.17
   4   2  11    1.26    0.18
  -5  -2 -11    1.94    0.22
  -5  -2 -11    1.82    0.18
  -5  -2 -11    1.94    0.22
   5   2  11    1.96    0.22
   5   2  11    2.18    0.22
   5   2  11    1.99    0.23
   5   2  11    2.30    0.23
  -6  -2 -11    0.88    0.18
  -6  -2 -11    0.92    0.14
  -6  -2 -11    1.08    0.20
   6   2  11    1.29    0.22
   6   2  11    1.09    0.19
   6   2  11    1.20    0.19
  -7  -2 -11    0.49    0.17
  -7  -2 -11    0.43    0.18
  -7  -2 -11    0.38    0.12
   7   2  11    0.91    0.22
   7   2  11    0.50    0.17
   7   2  11    0.55    0.17
  -8  -2 -11    0.85    0.21
  -8  -2 -11    0.72    0.14
  -8  -2 -11    1.13    0.25
   8   2  11    1.25    0.22
   8   2  11    1.08    0.22
   8   2  11    1.09    0.24
   6  -3 -11    8.39    0.46
  -6   3  11    8.85    0.55
  -6   3  11    9.18    0.46
   5  -3 -11    6.69    0.39
   5  -3 -11    6.21    0.42
  -5   3  11    7.20    0.46
  -5   3  11    6.60    0.39
  -5   3  11    6.00    0.36
   4  -3 -11    1.16    0.21
   4  -3 -11    1.46    0.19
  -4   3  11    1.23    0.23
  -4   3  11    1.63    0.21
   3  -3 -11    3.37    0.30
   3  -3 -11    3.92    0.26
   3  -3 -11    4.16    0.26
  -3   3  11    3.97    0.29
  -3   3  11    4.59    0.35
  -3   3  11    4.08    0.29
   2  -3 -11    0.46    0.12
   2  -3 -11    0.22    0.12
   2  -3 -11    0.10    0.14
  -2   3  11    0.20    0.13
  -2   3  11    0.19    0.15
   1  -3 -11    2.02    0.21
   1  -3 -11    2.56    0.22
  -1   3  11    2.40    0.22
  -1   3  11    2.14    0.25
  -1   3  11    2.18    0.21
   0  -3 -11   10.61    0.41
   0  -3 -11   10.00    0.39
   0  -3 -11   10.15    0.47
   0   3  11   10.66    0.42
   0   3  11    9.46    0.41
   0   3  11    9.81    0.41
   0   3  11   10.72    0.45
   0   3  11   10.77    0.40
  -1  -3 -11   29.57    0.81
  -1  -3 -11   30.42    0.78
  -1  -3 -11   28.90    0.82
   1   3  11   28.41    0.84
   1   3  11   28.33    0.82
   1   3  11   29.88    0.87
   1   3  11   30.93    0.85
   1   3  11   29.87    0.81
  -2  -3 -11   24.35    0.72
  -2  -3 -11   23.94    0.77
  -2  -3 -11   23.81    0.71
  -2  -3 -11   25.76    0.69
   2   3  11   23.78    0.75
   2   3  11   23.52    0.69
   2   3  11   23.75    0.73
   2   3  11   25.28    0.70
   2   3  11   23.73    0.78
  -3  -3 -11    0.05    0.10
  -3  -3 -11   -0.07    0.09
  -3  -3 -11    0.08    0.12
  -3  -3 -11   -0.05    0.10
   3   3  11    0.17    0.11
   3   3  11   -0.03    0.11
   3   3  11    0.19    0.12
   3   3  11    0.06    0.08
  -4  -3 -11   15.59    0.57
  -4  -3 -11   16.57    0.54
  -4  -3 -11   17.01    0.55
  -4  -3 -11   16.74    0.56
   4   3  11   16.14    0.59
   4   3  11   16.91    0.59
   4   3  11   16.70    0.55
   4   3  11   16.56    0.56
  -5  -3 -11    6.10    0.35
  -5  -3 -11    6.29    0.36
  -5  -3 -11    5.90    0.30
  -5  -3 -11    6.32    0.32
   5   3  11    7.26    0.35
   5   3  11    6.38    0.36
   5   3  11    5.96    0.35
   5   3  11    6.35    0.36
  -6  -3 -11    0.91    0.20
  -6  -3 -11    0.56    0.17
  -6  -3 -11    0.96    0.15
   6   3  11    0.91    0.20
   6   3  11    1.11    0.20
   6   3  11    1.16    0.19
  -7  -3 -11    1.72    0.24
  -7  -3 -11    1.44    0.23
  -7  -3 -11    1.49    0.18
   7   3  11    1.59    0.25
   7   3  11    1.53    0.23
   7   3  11    2.11    0.24
  -8  -3 -11    1.70    0.25
  -8  -3 -11    2.00    0.20
  -8  -3 -11    1.96    0.30
   8   3  11    2.40    0.30
   8   3  11    1.57    0.24
   8   3  11    2.05    0.30
   6  -4 -11    7.51    0.44
  -6   4  11    8.23    0.53
   5  -4 -11   -0.08    0.16
   5  -4 -11    0.21    0.15
  -5   4  11    0.21    0.15
  -5   4  11    0.33    0.21
  -5   4  11    0.22    0.13
   4  -4 -11    5.95    0.41
   4  -4 -11    6.38    0.36
  -4   4  11    6.42    0.44
   3  -4 -11   15.09    0.52
   3  -4 -11   15.35    0.60
  -3   4  11   16.67    0.58
  -3   4  11   16.68    0.64
   2  -4 -11    0.04    0.13
   2  -4 -11    0.00    0.10
  -2   4  11    0.09    0.11
  -2   4  11   -0.09    0.14
   1  -4 -11    3.70    0.29
   1  -4 -11    3.33    0.25
  -1   4  11    3.31    0.26
  -1   4  11    3.18    0.29
  -1   4  11    3.12    0.24
   0  -4 -11    0.12    0.11
   0  -4 -11    0.10    0.10
   0   4  11    0.08    0.11
   0   4  11    0.14    0.11
   0   4  11    0.18    0.13
  -1  -4 -11   22.23    0.66
  -1  -4 -11   21.34    0.61
  -1  -4 -11   20.85    0.64
   1   4  11   20.36    0.65
   1   4  11   21.12    0.68
   1   4  11   20.70    0.62
   1   4  11   21.90    0.66
   1   4  11   21.95    0.71
  -2  -4 -11    2.95    0.25
  -2  -4 -11    2.74    0.22
  -2  -4 -11    3.49    0.25
   2   4  11    2.93    0.21
   2   4  11    3.30    0.25
   2   4  11    3.24    0.23
   2   4  11    3.11    0.27
   2   4  11    3.02    0.24
  -3  -4 -11   14.13    0.49
  -3  -4 -11   14.63    0.51
  -3  -4 -11   14.79    0.52
  -3  -4 -11   14.94    0.51
   3   4  11   15.08    0.49
   3   4  11   14.70    0.52
   3   4  11   14.41    0.56
   3   4  11   14.71    0.49
  -4  -4 -11   15.04    0.55
  -4  -4 -11   15.43    0.53
  -4  -4 -11   14.31    0.50
  -4  -4 -11   14.43    0.52
   4   4  11   15.54    0.52
   4   4  11   16.31    0.56
   4   4  11   14.98    0.57
  -5  -4 -11    0.47    0.13
  -5  -4 -11    0.49    0.16
  -5  -4 -11    0.67    0.16
  -5  -4 -11    0.25    0.13
   5   4  11    0.60    0.17
   5   4  11    0.36    0.15
   5   4  11    0.32    0.14
  -6  -4 -11    1.74    0.19
  -6  -4 -11    1.39    0.22
  -6  -4 -11    1.30    0.21
   6   4  11    1.31    0.19
   6   4  11    1.33    0.21
   6   4  11    1.59    0.23
  -7  -4 -11    0.29    0.18
  -7  -4 -11    0.28    0.17
  -7  -4 -11    0.15    0.12
   7   4  11    0.75    0.18
   7   4  11    0.22    0.17
   7   4  11    0.60    0.20
  -8  -4 -11    0.26    0.13
  -8  -4 -11    0.31    0.19
   8   4  11    0.17    0.18
   8   4  11    0.30    0.17
   8   4  11    0.06    0.19
   5  -5 -11    0.98    0.20
  -5   5  11    0.99    0.25
  -5   5  11    0.90    0.18
  -5   5  11    1.16    0.21
   4  -5 -11   21.68    0.76
  -4   5  11   20.03    0.77
  -4   5  11   20.14    0.70
  -4   5  11   17.65    0.85
   3  -5 -11    1.13    0.21
  -3   5  11    1.17    0.23
  -3   5  11    1.12    0.19
   2  -5 -11    5.41    0.35
   2  -5 -11    5.66    0.30
  -2   5  11    4.86    0.32
  -2   5  11    5.58    0.38
   1  -5 -11    0.31    0.12
   1  -5 -11    0.07    0.11
   1  -5 -11    0.27    0.14
  -1   5  11    0.18    0.12
  -1   5  11    0.23    0.17
   0  -5 -11    0.34    0.12
   0  -5 -11    0.28    0.12
   0  -5 -11    0.25    0.13
   0   5  11    0.22    0.15
   0   5  11    0.34    0.13
  -1  -5 -11    0.28    0.12
  -1  -5 -11    0.20    0.11
  -1  -5 -11    0.25    0.12
   1   5  11    0.21    0.15
   1   5  11    0.23    0.12
   1   5  11    0.09    0.10
  -2  -5 -11   16.55    0.56
  -2  -5 -11   16.98    0.53
  -2  -5 -11   15.92    0.56
   2   5  11   16.80    0.62
   2   5  11   17.04    0.56
   2   5  11   15.14    0.67
   2   5  11   16.41    0.55
  -3  -5 -11   10.86    0.43
  -3  -5 -11   10.36    0.45
  -3  -5 -11   11.03    0.43
   3   5  11   11.04    0.44
   3   5  11   11.13    0.42
   3   5  11   10.39    0.48
  -4  -5 -11    1.76    0.22
  -4  -5 -11    1.70    0.21
  -4  -5 -11    1.81    0.19
  -4  -5 -11    1.78    0.20
   4   5  11    1.98    0.25
   4   5  11    1.80    0.24
   4   5  11    1.75    0.21
  -5  -5 -11   17.15    0.62
  -5  -5 -11   17.51    0.59
  -5  -5 -11   16.88    0.57
  -5  -5 -11   16.89    0.60
   5   5  11   17.83    0.66
   5   5  11   16.33    0.56
  -6  -5 -11   22.66    0.70
  -6  -5 -11   22.87    0.72
  -6  -5 -11   22.59    0.76
  -6  -5 -11   22.63    0.75
   6   5  11   23.77    0.72
   6   5  11   22.42    0.79
   6   5  11   22.75    0.77
  -7  -5 -11    0.02    0.17
  -7  -5 -11    0.13    0.17
  -7  -5 -11    0.10    0.12
   7   5  11    0.11    0.17
   7   5  11    0.09    0.14
   7   5  11   -0.15    0.15
  -5   6  11    7.31    0.40
  -5   6  11    6.67    0.50
  -5   6  11    7.48    0.43
   4  -6 -11    3.64    0.34
  -4   6  11    3.79    0.38
  -4   6  11    3.83    0.32
   3  -6 -11    1.61    0.24
  -3   6  11    1.93    0.24
  -3   6  11    1.95    0.29
   2  -6 -11   16.27    0.55
   2  -6 -11   17.39    0.64
  -2   6  11   18.51    0.69
  -2   6  11   17.71    0.62
   1  -6 -11    2.61    0.26
   1  -6 -11    2.21    0.21
   1  -6 -11    2.63    0.22
  -1   6  11    2.12    0.26
  -1   6  11    2.49    0.25
   0  -6 -11    0.55    0.15
   0  -6 -11    0.76    0.15
   0  -6 -11    0.57    0.14
   0   6  11    0.97    0.17
   0   6  11    0.63    0.18
  -1  -6 -11    0.37    0.12
  -1  -6 -11    0.24    0.13
  -1  -6 -11    0.61    0.15
  -1  -6 -11    0.57    0.15
   1   6  11    0.39    0.14
   1   6  11    0.39    0.16
  -2  -6 -11   11.89    0.46
  -2  -6 -11   11.69    0.47
  -2  -6 -11   11.89    0.44
   2   6  11   12.13    0.46
   2   6  11   11.16    0.51
  -3  -6 -11    2.75    0.25
  -3  -6 -11    3.29    0.27
  -3  -6 -11    3.18    0.26
   3   6  11    3.33    0.25
   3   6  11    3.20    0.25
   3   6  11    3.74    0.33
  -4  -6 -11    9.20    0.41
  -4  -6 -11    8.79    0.41
  -4  -6 -11    8.80    0.42
   4   6  11    9.00    0.47
  -5  -6 -11   13.83    0.51
  -5  -6 -11   14.70    0.57
  -5  -6 -11   14.74    0.54
  -5  -6 -11   14.18    0.54
   5   6  11   12.96    0.58
  -6  -6 -11    0.01    0.11
  -6  -6 -11   -0.04    0.13
  -6  -6 -11   -0.11    0.14
  -6  -6 -11   -0.16    0.14
   6   6  11    0.28    0.18
  -7  -6 -11    2.15    0.27
  -7  -6 -11    2.04    0.27
  -7  -6 -11    1.90    0.22
   7   6  11    2.59    0.31
  -4   7  11    2.04    0.25
  -4   7  11    2.37    0.33
   3  -7 -11   19.23    0.72
  -3   7  11   19.68    0.77
  -3   7  11   19.41    0.70
   2  -7 -11    4.64    0.35
  -2   7  11    4.35    0.38
  -2   7  11    4.70    0.34
   1  -7 -11    1.56    0.22
   1  -7 -11    1.19    0.18
   1  -7 -11    1.07    0.17
  -1   7  11    1.50    0.21
  -1   7  11    1.28    0.23
   0  -7 -11   15.60    0.54
   0  -7 -11   14.68    0.55
   0  -7 -11   14.72    0.56
   0   7  11   16.30    0.64
   0   7  11   15.37    0.57
  -1  -7 -11    1.24    0.18
  -1  -7 -11    1.57    0.20
  -1  -7 -11    1.14    0.17
   1   7  11    1.15    0.21
   1   7  11    1.08    0.19
  -2  -7 -11    1.02    0.18
  -2  -7 -11    0.70    0.16
  -2  -7 -11    0.99    0.18
   2   7  11    0.83    0.17
   2   7  11    1.09    0.22
  -3  -7 -11    2.32    0.24
  -3  -7 -11    2.31    0.23
  -3  -7 -11    2.95    0.27
   3   7  11    2.58    0.24
   3   7  11    2.36    0.28
  -4  -7 -11   13.19    0.53
  -4  -7 -11   13.65    0.53
  -4  -7 -11   14.35    0.56
   4   7  11   15.04    0.62
   4   7  11   13.84    0.52
  -5  -7 -11    2.16    0.26
  -5  -7 -11    2.33    0.26
  -5  -7 -11    2.48    0.25
   5   7  11    2.56    0.31
  -6  -7 -11    7.56    0.43
  -6  -7 -11    8.18    0.45
  -6  -7 -11    8.30    0.42
   6   7  11    8.27    0.48
  -7  -7 -11    5.46    0.37
  -7  -7 -11    4.99    0.39
  -7  -7 -11    4.29    0.32
   7   7  11    4.13    0.39
   3  -8 -11    5.56    0.62
  -3   8  11    4.86    0.43
  -3   8  11    5.41    0.38
   2  -8 -11    4.24    0.35
  -2   8  11    4.73    0.40
  -2   8  11    3.29    0.30
   1  -8 -11    6.95    0.40
   1  -8 -11    6.93    0.38
   1  -8 -11    6.03    0.33
  -1   8  11    7.36    0.41
  -1   8  11    7.13    0.44
   0  -8 -11    2.91    0.27
   0  -8 -11    2.78    0.25
   0   8  11    3.64    0.34
   0   8  11    2.86    0.28
  -1  -8 -11    0.39    0.14
  -1  -8 -11    0.42    0.15
  -1  -8 -11    0.22    0.15
   1   8  11    0.47    0.19
   1   8  11    0.44    0.16
  -2  -8 -11    4.70    0.34
  -2  -8 -11    5.13    0.32
  -2  -8 -11    4.47    0.31
   2   8  11    4.88    0.39
   2   8  11    4.72    0.33
  -3  -8 -11    1.12    0.19
  -3  -8 -11    0.76    0.18
  -3  -8 -11    0.92    0.19
   3   8  11    0.95    0.18
   3   8  11    0.94    0.22
  -4  -8 -11    2.16    0.25
  -4  -8 -11    2.34    0.26
  -4  -8 -11    2.21    0.25
   4   8  11    2.06    0.29
   4   8  11    1.78    0.22
  -5  -8 -11    1.05    0.22
  -5  -8 -11    1.31    0.21
  -5  -8 -11    0.90    0.20
   5   8  11    1.28    0.25
  -6  -8 -11    9.80    0.49
  -6  -8 -11   10.49    0.49
   6   8  11    9.99    0.55
   2  -9 -11   11.07    0.54
  -2   9  11   11.79    0.54
  -2   9  11   11.86    0.61
   1  -9 -11   11.03    0.50
  -1   9  11   11.48    0.53
  -1   9  11   12.66    0.60
   0  -9 -11    0.63    0.18
   0  -9 -11    0.62    0.16
   0   9  11    0.84    0.23
   0   9  11    0.69    0.19
  -1  -9 -11   11.83    0.49
  -1  -9 -11   11.64    0.51
  -1  -9 -11   10.91    0.47
   1   9  11   12.49    0.53
   1   9  11   11.81    0.57
  -2  -9 -11    3.10    0.28
  -2  -9 -11    3.06    0.28
  -2  -9 -11    2.25    0.26
   2   9  11    2.46    0.26
   2   9  11    2.85    0.33
  -3  -9 -11    0.42    0.17
  -3  -9 -11    0.46    0.16
  -3  -9 -11    0.37    0.17
   3   9  11    0.23    0.15
   3   9  11    0.46    0.20
  -4  -9 -11   -0.09    0.14
  -4  -9 -11    0.30    0.21
  -4  -9 -11   -0.08    0.15
   4   9  11   -0.02    0.13
   4   9  11   -0.32    0.16
  -5  -9 -11    5.19    0.37
  -5  -9 -11    5.80    0.38
   5   9  11    5.86    0.44
   0  10  11    5.37    0.44
   0  10  11    5.13    0.39
  -1 -10 -11   10.87    0.48
  -1 -10 -11   11.01    0.48
   1  10  11   11.97    0.59
   1  10  11   10.82    0.52
  -2 -10 -11    0.08    0.14
  -2 -10 -11    0.11    0.17
   2  10  11    0.33    0.21
   2  10  11   -0.14    0.15
  -3 -10 -11    0.98    0.21
  -3 -10 -11    0.92    0.21
   3  10  11    1.05    0.21
   3  10  11    1.48    0.28
   1   8 -12    6.41    0.43
  -1  -8  12    7.33    0.49
  -1  -8  12    5.66    0.39
   0   8 -12   -0.11    0.15
   0  -8  12   -0.10    0.18
   0  -8  12    0.07    0.20
  -1   8 -12    2.10    0.25
  -1   8 -12    2.70    0.28
   1  -8  12    2.06    0.31
   3   7 -12    4.73    0.39
  -3  -7  12    4.55    0.39
  -3  -7  12    4.71    0.42
  -3  -7  12    4.76    0.36
   2   7 -12    6.15    0.41
  -2  -7  12    5.89    0.44
  -2  -7  12    5.65    0.40
  -2  -7  12    4.94    0.35
   1   7 -12    0.32    0.17
  -1  -7  12    0.09    0.18
  -1  -7  12    0.22    0.16
  -1  -7  12    0.09    0.15
   0   7 -12    9.38    0.47
   0  -7  12    9.11    0.53
   0  -7  12    9.41    0.46
   0  -7  12    9.07    0.48
  -1   7 -12    6.04    0.39
  -1   7 -12    5.70    0.36
  -1   7 -12    6.67    0.39
   1  -7  12    6.67    0.39
   1  -7  12    4.99    0.42
  -2   7 -12    0.84    0.18
  -2   7 -12    0.80    0.20
   2  -7  12    1.06    0.25
   2  -7  12    1.06    0.20
  -3   7 -12    0.42    0.15
   3  -7  12    0.53    0.17
   3  -7  12    0.68    0.24
   4   6 -12    0.01    0.16
  -4  -6  12   -0.30    0.16
  -4  -6  12    0.01    0.15
   3   6 -12    1.74    0.25
  -3  -6  12    1.81    0.27
  -3  -6  12    2.29    0.30
  -3  -6  12    2.34    0.26
   2   6 -12    1.01    0.21
  -2  -6  12    0.86    0.20
  -2  -6  12    0.85    0.18
  -2  -6  12    1.49    0.25
   1   6 -12   14.09    0.56
  -1  -6  12   12.65    0.55
  -1  -6  12   14.59    0.61
  -1  -6  12   13.54    0.58
   0   6 -12   11.33    0.51
   0  -6  12   12.40    0.54
   0  -6  12   12.47    0.58
   0  -6  12   12.23    0.52
  -1   6 -12   -0.04    0.13
  -1   6 -12    0.19    0.15
  -1   6 -12    0.17    0.13
   1  -6  12    0.09    0.14
   1  -6  12    0.18    0.15
   1  -6  12    0.07    0.16
  -2   6 -12    7.93    0.43
  -2   6 -12    7.14    0.38
   2  -6  12    7.61    0.47
   2  -6  12    7.33    0.42
   2  -6  12    7.73    0.41
  -3   6 -12    2.19    0.22
  -3   6 -12    2.00    0.26
   3  -6  12    2.05    0.24
   3  -6  12    2.66    0.33
  -4   6 -12    0.33    0.13
   4  -6  12    0.52    0.17
   4  -6  12    0.23    0.20
   5   5 -12    7.20    0.46
   5   5 -12    6.13    0.39
  -5  -5  12    6.16    0.42
  -5  -5  12    6.87    0.49
   4   5 -12   -0.03    0.15
  -4  -5  12    0.40    0.21
  -4  -5  12    0.04    0.15
   3   5 -12   -0.10    0.14
  -3  -5  12    0.16    0.17
  -3  -5  12    0.16    0.17
  -3  -5  12    0.01    0.13
   2   5 -12    1.34    0.22
  -2  -5  12    1.94    0.26
  -2  -5  12    1.54    0.24
  -2  -5  12    1.57    0.21
   1   5 -12    6.20    0.38
  -1  -5  12    5.97    0.33
  -1  -5  12    6.33    0.39
  -1  -5  12    5.83    0.38
   0   5 -12    0.60    0.17
   0  -5  12    0.83    0.20
   0  -5  12    0.51    0.17
   0  -5  12    0.50    0.17
  -1   5 -12    6.62    0.35
  -1   5 -12    7.13    0.38
  -1   5 -12    6.96    0.37
   1  -5  12    7.47    0.41
   1  -5  12    6.96    0.39
   1  -5  12    7.13    0.43
  -2   5 -12   11.58    0.50
  -2   5 -12   11.84    0.48
  -2   5 -12   11.69    0.47
   2  -5  12   12.35    0.57
   2  -5  12   11.81    0.52
   2  -5  12   12.19    0.51
  -3   5 -12    0.02    0.12
  -3   5 -12    0.09    0.15
   3  -5  12    0.03    0.17
   3  -5  12    0.17    0.14
   3  -5  12   -0.15    0.12
  -4   5 -12    5.70    0.39
  -4   5 -12    5.63    0.32
   4  -5  12    5.13    0.37
   4  -5  12    5.95    0.37
   4  -5  12    5.46    0.42
  -5   5 -12    0.39    0.13
   5  -5  12    0.43    0.21
   5  -5  12    0.30    0.17
   5   4 -12    1.18    0.21
   5   4 -12    0.63    0.21
  -5  -4  12    1.09    0.22
  -5  -4  12    1.16    0.26
   4   4 -12    2.16    0.25
   4   4 -12    1.88    0.25
  -4  -4  12    2.00    0.25
  -4  -4  12    1.82    0.27
   3   4 -12    0.36    0.16
  -3  -4  12    0.53    0.19
  -3  -4  12    0.12    0.14
   2   4 -12    8.22    0.42
  -2  -4  12    9.16    0.44
  -2  -4  12    8.72    0.41
  -2  -4  12    8.28    0.45
   1   4 -12    0.25    0.14
  -1  -4  12    0.18    0.15
  -1  -4  12    0.10    0.14
  -1  -4  12    0.15    0.12
   0   4 -12    7.56    0.39
   0  -4  12    7.36    0.39
   0  -4  12    8.06    0.41
   0  -4  12    7.90    0.37
   0  -4  12    7.97    0.41
  -1   4 -12   14.31    0.51
  -1   4 -12   14.42    0.53
  -1   4 -12   14.63    0.53
   1  -4  12   14.59    0.57
   1  -4  12   13.86    0.57
   1  -4  12   14.02    0.54
  -2   4 -12    0.30    0.13
  -2   4 -12    0.45    0.14
  -2   4 -12    0.42    0.15
   2  -4  12    0.46    0.16
   2  -4  12    0.54    0.17
   2  -4  12    0.31    0.15
  -3   4 -12   11.62    0.44
  -3   4 -12   11.22    0.49
   3  -4  12   10.21    0.47
   3  -4  12   10.86    0.50
   3  -4  12   11.85    0.54
  -4   4 -12   11.66    0.51
  -4   4 -12   11.73    0.43
   4  -4  12   11.65    0.57
   4  -4  12   10.09    0.48
   4  -4  12   11.69    0.52
  -5   4 -12    2.04    0.25
  -5   4 -12    2.97    0.31
  -5   4 -12    2.34    0.20
   5  -4  12    2.46    0.32
   5  -4  12    3.09    0.30
   5  -4  12    2.55    0.27
  -6   4 -12    1.10    0.16
  -6   4 -12    0.98    0.21
   6  -4  12    0.79    0.25
   6  -4  12    1.15    0.21
   5   3 -12    3.44    0.32
   5   3 -12    3.18    0.28
  -5  -3  12    3.08    0.30
  -5  -3  12    3.08    0.34
   4   3 -12    8.27    0.41
   4   3 -12    7.37    0.42
  -4  -3  12    8.08    0.43
  -4  -3  12    8.23    0.48
   3   3 -12    8.01    0.40
  -3  -3  12    8.41    0.46
  -3  -3  12    8.48    0.42
   2   3 -12    1.39    0.20
  -2  -3  12    1.46    0.22
  -2  -3  12    1.15    0.18
   1   3 -12    1.73    0.21
  -1  -3  12    1.74    0.20
  -1  -3  12    1.81    0.22
  -1  -3  12    1.66    0.22
   0   3 -12    1.16    0.19
   0  -3  12    0.94    0.18
   0  -3  12    0.73    0.14
   0  -3  12    1.03    0.18
   0  -3  12    1.08    0.19
  -1   3 -12    2.66    0.23
  -1   3 -12    3.10    0.25
  -1   3 -12    3.10    0.26
   1  -3  12    3.39    0.30
   1  -3  12    3.18    0.28
   1  -3  12    2.93    0.26
  -2   3 -12    9.62    0.43
  -2   3 -12    9.47    0.41
  -2   3 -12    9.97    0.40
   2  -3  12   10.66    0.47
   2  -3  12    9.83    0.46
   2  -3  12   10.83    0.46
  -3   3 -12   23.88    0.70
  -3   3 -12   22.64    0.75
  -3   3 -12   25.39    0.74
   3  -3  12   24.89    0.81
   3  -3  12   22.72    0.75
   3  -3  12   23.38    0.78
  -4   3 -12    0.57    0.17
  -4   3 -12    0.58    0.17
  -4   3 -12    0.60    0.13
   4  -3  12    0.48    0.16
   4  -3  12    0.40    0.16
   4  -3  12    0.53    0.19
  -5   3 -12    5.25    0.29
  -5   3 -12    5.14    0.37
  -5   3 -12    4.42    0.34
   5  -3  12    4.94    0.36
   5  -3  12    4.63    0.34
   5  -3  12    5.10    0.42
  -6   3 -12    1.93    0.19
  -6   3 -12    1.72    0.24
  -6   3 -12    1.61    0.37
   6  -3  12    1.70    0.24
   6  -3  12    2.16    0.31
   6   2 -12    0.40    0.21
  -6  -2  12    0.21    0.17
  -6  -2  12    0.21    0.20
   5   2 -12   15.52    0.62
  -5  -2  12   15.33    0.67
  -5  -2  12   16.18    0.63
   4   2 -12    1.82    0.24
   4   2 -12    1.86    0.22
  -4  -2  12    1.72    0.26
  -4  -2  12    2.35    0.26
   3   2 -12    6.43    0.35
   3   2 -12    5.94    0.34
  -3  -2  12    5.92    0.35
  -3  -2  12    6.19    0.40
   2   2 -12   13.34    0.51
  -2  -2  12   13.73    0.52
  -2  -2  12   14.16    0.57
   1   2 -12    4.21    0.29
  -1  -2  12    3.80    0.27
  -1  -2  12    3.56    0.30
   0   2 -12    0.16    0.12
   0  -2  12    0.10    0.11
   0  -2  12    0.22    0.12
   0  -2  12    0.33    0.14
   0  -2  12    0.01    0.11
  -1   2 -12    7.78    0.33
  -1   2 -12    7.55    0.35
  -1   2 -12    7.34    0.36
  -1   2 -12    7.68    0.35
   1  -2  12    7.37    0.38
   1  -2  12    7.69    0.38
   1  -2  12    7.74    0.39
  -2   2 -12   22.36    0.69
  -2   2 -12   22.09    0.66
  -2   2 -12   22.52    0.68
  -2   2 -12   22.10    0.66
   2  -2  12   22.18    0.72
   2  -2  12   21.83    0.73
   2  -2  12   22.32    0.72
  -3   2 -12    2.46    0.22
  -3   2 -12    2.36    0.24
  -3   2 -12    2.65    0.23
  -3   2 -12    2.16    0.20
   3  -2  12    2.09    0.23
   3  -2  12    2.65    0.27
   3  -2  12    1.81    0.23
  -4   2 -12    1.76    0.21
  -4   2 -12    1.91    0.19
  -4   2 -12    2.06    0.24
   4  -2  12    1.54    0.22
   4  -2  12    2.07    0.23
   4  -2  12    1.78    0.25
  -5   2 -12   12.11    0.44
  -5   2 -12   11.63    0.51
  -5   2 -12   11.76    0.49
   5  -2  12   11.77    0.57
   5  -2  12   12.23    0.52
   5  -2  12   12.14    0.54
  -6   2 -12    0.02    0.15
  -6   2 -12    0.10    0.11
  -6   2 -12    0.00    0.15
   6  -2  12    0.14    0.15
   6  -2  12   -0.22    0.16
  -7   2 -12    1.45    0.24
  -7   2 -12    1.46    0.16
   7  -2  12    1.72    0.26
   7  -2  12    1.42    0.29
   6   1 -12    3.37    0.33
   6   1 -12    2.15    0.30
  -6  -1  12    3.04    0.34
  -6  -1  12    3.15    0.32
  -6  -1  12    2.77    0.33
   5   1 -12    1.75    0.26
   5   1 -12    1.56    0.24
  -5  -1  12    1.76    0.27
  -5  -1  12    2.29    0.26
  -5  -1  12    2.45    0.30
   4   1 -12    2.66    0.24
   4   1 -12    3.09    0.28
  -4  -1  12    2.85    0.27
  -4  -1  12    2.24    0.28
  -4  -1  12    3.19    0.31
   3   1 -12   18.42    0.63
   3   1 -12   18.36    0.62
  -3  -1  12   19.22    0.65
  -3  -1  12   19.05    0.69
   2   1 -12    3.87    0.27
   2   1 -12    4.20    0.29
  -2  -1  12    4.10    0.28
  -2  -1  12    4.39    0.33
   1   1 -12    2.79    0.24
  -1  -1  12    2.13    0.24
  -1  -1  12    1.95    0.21
   0   1 -12    9.29    0.40
   0   1 -12    9.65    0.39
   0  -1  12    9.05    0.42
   0  -1  12    9.87    0.42
   0  -1  12   10.14    0.44
   0  -1  12   10.01    0.39
  -1   1 -12    0.41    0.13
  -1   1 -12    0.62    0.14
  -1   1 -12    0.31    0.11
  -1   1 -12    0.42    0.12
   1  -1  12    0.64    0.15
   1  -1  12    0.28    0.14
   1  -1  12    0.52    0.14
   1  -1  12    0.57    0.12
  -2   1 -12    4.92    0.28
  -2   1 -12    4.92    0.27
  -2   1 -12    4.53    0.29
  -2   1 -12    5.11    0.29
   2  -1  12    4.88    0.31
   2  -1  12    5.58    0.34
   2  -1  12    4.72    0.31
  -3   1 -12    5.92    0.30
  -3   1 -12    5.07    0.30
  -3   1 -12    5.32    0.33
  -3   1 -12    5.70    0.29
   3  -1  12    5.15    0.33
   3  -1  12    4.99    0.34
   3  -1  12    5.10    0.34
  -4   1 -12   17.14    0.58
  -4   1 -12   17.41    0.54
  -4   1 -12   15.36    0.59
   4  -1  12   15.85    0.59
   4  -1  12   16.52    0.63
   4  -1  12   15.21    0.61
  -5   1 -12    3.49    0.25
  -5   1 -12    2.95    0.27
  -5   1 -12    3.14    0.29
   5  -1  12    3.80    0.34
   5  -1  12    2.98    0.30
   5  -1  12    3.37    0.29
  -6   1 -12    3.30    0.24
  -6   1 -12    3.11    0.30
  -6   1 -12    3.39    0.32
   6  -1  12    3.17    0.30
   6  -1  12    3.14    0.34
  -7   1 -12    2.96    0.23
  -7   1 -12    2.90    0.30
   7  -1  12    3.23    0.31
   7  -1  12    2.90    0.36
   6   0 -12    0.21    0.19
  -6   0  12    0.11    0.19
  -6   0  12    0.33    0.18
  -6   0  12    0.28    0.20
   5   0 -12    0.49    0.19
   5   0 -12    0.61    0.19
  -5   0  12    0.51    0.21
  -5   0  12    0.33    0.19
  -5   0  12    0.54    0.17
   4   0 -12   11.19    0.45
   4   0 -12   12.01    0.50
  -4   0  12   11.76    0.54
  -4   0  12   11.83    0.54
  -4   0  12   12.08    0.51
   3   0 -12   14.37    0.53
   3   0 -12   15.17    0.55
  -3   0  12   15.03    0.56
  -3   0  12   15.23    0.58
  -3   0  12   14.60    0.58
   2   0 -12    1.33    0.17
   2   0 -12    1.10    0.17
  -2   0  12    0.92    0.18
  -2   0  12    0.94    0.16
  -2   0  12    1.19    0.20
   1   0 -12   28.90    0.84
  -1   0  12   30.13    0.85
  -1   0  12   28.83    0.87
  -1   0  12   29.02    0.83
   0   0 -12    0.88    0.15
   0   0 -12    1.37    0.17
   0   0  12    1.00    0.16
   0   0  12    1.52    0.30
   0   0  12    0.93    0.15
   0   0  12    1.17    0.18
   0   0  12    1.03    0.17
  -1   0 -12    1.16    0.17
  -1   0 -12    1.63    0.18
  -1   0 -12    1.53    0.16
   1   0  12    1.32    0.18
   1   0  12    1.15    0.19
   1   0  12    1.33    0.16
  -2   0 -12   -0.08    0.10
  -2   0 -12    0.06    0.10
  -2   0 -12    0.00    0.09
  -2   0 -12   -0.03    0.11
   2   0  12    0.04    0.10
   2   0  12    0.03    0.12
   2   0  12   -0.18    0.10
  -3   0 -12    7.59    0.36
  -3   0 -12    7.96    0.36
  -3   0 -12    7.94    0.38
  -3   0 -12    8.06    0.35
   3   0  12    7.90    0.40
   3   0  12    7.64    0.39
   3   0  12    7.43    0.38
  -4   0 -12    3.45    0.27
  -4   0 -12    2.96    0.24
  -4   0 -12    2.91    0.27
   4   0  12    3.33    0.29
   4   0  12    3.11    0.27
   4   0  12    2.93    0.28
  -5   0 -12    3.46    0.25
  -5   0 -12    3.87    0.30
  -5   0 -12    3.88    0.32
   5   0  12    3.62    0.32
   5   0  12    4.12    0.32
   5   0  12    3.72    0.31
  -6   0 -12   10.86    0.50
  -6   0 -12    9.72    0.40
  -6   0 -12    9.57    0.46
   6   0  12   10.78    0.54
   6   0  12   11.83    0.51
  -7   0 -12    7.08    0.46
  -7   0 -12    6.98    0.42
  -7   0 -12    6.29    0.31
   7   0  12    6.90    0.43
   7   0  12    7.15    0.47
   6  -1 -12    1.62    0.26
  -6   1  12    2.04    0.29
  -6   1  12    2.21    0.32
  -6   1  12    1.77    0.25
   5  -1 -12    1.99    0.25
   5  -1 -12    1.73    0.26
  -5   1  12    1.73    0.28
  -5   1  12    1.83    0.24
  -5   1  12    1.59    0.25
   4  -1 -12    3.46    0.27
   4  -1 -12    3.80    0.34
   4  -1 -12    4.22    0.32
  -4   1  12    3.66    0.32
  -4   1  12    4.24    0.37
  -4   1  12    3.59    0.31
   3  -1 -12    0.43    0.14
   3  -1 -12    0.30    0.13
  -3   1  12    0.61    0.18
  -3   1  12    0.52    0.15
  -3   1  12    0.11    0.16
   2  -1 -12   13.70    0.49
   2  -1 -12   13.04    0.49
  -2   1  12   14.36    0.55
  -2   1  12   13.08    0.51
  -2   1  12   14.47    0.54
   1  -1 -12    9.35    0.40
  -1   1  12   10.02    0.44
  -1   1  12    9.65    0.43
   0  -1 -12    0.46    0.13
   0  -1 -12    0.58    0.14
   0   1  12    0.47    0.15
   0   1  12    0.46    0.13
   0   1  12    0.45    0.14
   0   1  12    0.44    0.14
   0   1  12    0.23    0.12
  -1  -1 -12   19.42    0.57
  -1  -1 -12   18.40    0.59
  -1  -1 -12   20.19    0.62
   1   1  12   19.52    0.62
   1   1  12   19.58    0.60
   1   1  12   18.50    0.64
   1   1  12   17.87    0.84
   1   1  12   19.35    0.62
  -2  -1 -12    2.21    0.20
  -2  -1 -12    2.00    0.21
  -2  -1 -12    2.08    0.21
  -2  -1 -12    2.23    0.21
   2   1  12    2.46    0.20
   2   1  12    2.44    0.23
   2   1  12    2.69    0.24
   2   1  12    2.66    0.26
  -3  -1 -12    0.19    0.13
  -3  -1 -12    0.27    0.12
  -3  -1 -12    0.05    0.11
  -3  -1 -12    0.37    0.12
   3   1  12    0.14    0.12
   3   1  12    0.35    0.14
   3   1  12    0.09    0.11
   3   1  12    0.13    0.12
  -4  -1 -12    3.27    0.28
  -4  -1 -12    3.45    0.25
  -4  -1 -12    3.08    0.26
  -4  -1 -12    2.96    0.24
   4   1  12    3.10    0.27
   4   1  12    3.43    0.28
   4   1  12    3.40    0.29
  -5  -1 -12   10.16    0.41
  -5  -1 -12   11.16    0.47
  -5  -1 -12   11.48    0.49
   5   1  12   10.46    0.47
   5   1  12    9.50    0.48
   5   1  12   11.14    0.49
  -6  -1 -12    4.03    0.34
  -6  -1 -12    4.26    0.33
  -6  -1 -12    4.56    0.28
   6   1  12    4.26    0.36
   6   1  12    4.86    0.35
  -7  -1 -12    3.68    0.34
  -7  -1 -12    3.95    0.34
  -7  -1 -12    3.80    0.26
   7   1  12    3.52    0.36
   7   1  12    3.79    0.33
   6  -2 -12    0.19    0.17
  -6   2  12    0.13    0.21
  -6   2  12    0.10    0.16
   5  -2 -12    0.70    0.21
   5  -2 -12    0.39    0.18
  -5   2  12    0.70    0.23
  -5   2  12    0.46    0.19
  -5   2  12    0.42    0.17
   4  -2 -12    0.21    0.14
   4  -2 -12    0.20    0.17
  -4   2  12    0.13    0.14
  -4   2  12   -0.07    0.17
  -4   2  12    0.13    0.15
   3  -2 -12    2.17    0.21
   3  -2 -12    1.75    0.24
   3  -2 -12    2.07    0.21
  -3   2  12    2.53    0.25
  -3   2  12    2.07    0.27
  -3   2  12    1.93    0.22
   2  -2 -12   26.87    0.78
  -2   2  12   25.99    0.83
  -2   2  12   26.61    0.80
  -2   2  12   26.47    0.81
   1  -2 -12   -0.01    0.10
  -1   2  12   -0.05    0.13
  -1   2  12    0.09    0.12
  -1   2  12    0.06    0.11
   0  -2 -12   28.15    0.81
   0  -2 -12   25.77    0.77
   0   2  12   28.98    0.84
   0   2  12   27.39    0.83
   0   2  12   28.91    0.81
   0   2  12   29.35    0.81
  -1  -2 -12   25.02    0.69
  -1  -2 -12   26.02    0.73
  -1  -2 -12   24.98    0.74
   1   2  12   24.20    0.76
   1   2  12   25.40    0.77
   1   2  12   26.10    0.74
   1   2  12   24.13    0.73
   1   2  12   25.12    0.78
  -2  -2 -12    0.72    0.15
  -2  -2 -12    0.46    0.12
  -2  -2 -12    0.59    0.14
  -2  -2 -12    0.46    0.14
   2   2  12    0.44    0.15
   2   2  12    0.50    0.14
   2   2  12    0.55    0.12
   2   2  12    0.36    0.14
  -3  -2 -12   11.70    0.44
  -3  -2 -12   10.40    0.45
  -3  -2 -12   10.66    0.41
  -3  -2 -12   11.11    0.42
   3   2  12   10.73    0.46
   3   2  12   10.11    0.43
   3   2  12   10.10    0.44
  -4  -2 -12    0.04    0.13
  -4  -2 -12    0.25    0.11
  -4  -2 -12    0.11    0.11
  -4  -2 -12   -0.17    0.11
   4   2  12   -0.08    0.11
   4   2  12    0.12    0.13
   4   2  12    0.17    0.12
   4   2  12    0.05    0.13
  -5  -2 -12   -0.06    0.14
  -5  -2 -12    0.15    0.14
  -5  -2 -12    0.29    0.12
   5   2  12    0.02    0.14
   5   2  12    0.12    0.13
   5   2  12    0.17    0.14
   5   2  12    0.23    0.14
  -6  -2 -12    0.42    0.18
  -6  -2 -12    0.53    0.17
  -6  -2 -12    0.68    0.14
   6   2  12    0.69    0.17
   6   2  12    0.36    0.18
   6   2  12    0.26    0.16
  -7  -2 -12   11.47    0.45
  -7  -2 -12   12.51    0.54
  -7  -2 -12   12.68    0.56
   7   2  12   12.40    0.54
   7   2  12   11.89    0.53
   7   2  12   11.63    0.58
   5  -3 -12    2.35    0.27
   5  -3 -12    2.58    0.35
  -5   3  12    2.88    0.29
  -5   3  12    2.19    0.32
   4  -3 -12    0.86    0.21
   4  -3 -12    0.77    0.17
  -4   3  12    0.60    0.21
  -4   3  12    1.05    0.19
   3  -3 -12    1.59    0.23
   3  -3 -12    1.94    0.20
  -3   3  12    1.86    0.21
  -3   3  12    1.95    0.27
   2  -3 -12    0.06    0.15
   2  -3 -12    0.23    0.12
  -2   3  12    0.40    0.14
  -2   3  12    0.11    0.15
  -2   3  12    0.28    0.13
   1  -3 -12   12.07    0.46
  -1   3  12   12.40    0.49
  -1   3  12   12.60    0.45
  -1   3  12   12.98    0.53
  -1   3  12   11.86    0.48
   0  -3 -12    5.23    0.31
   0  -3 -12    5.24    0.29
   0   3  12    5.69    0.32
   0   3  12    6.01    0.30
   0   3  12    5.88    0.33
   0   3  12    5.94    0.34
  -1  -3 -12    2.64    0.23
  -1  -3 -12    2.73    0.22
  -1  -3 -12    2.67    0.24
   1   3  12    2.98    0.24
   1   3  12    2.86    0.27
   1   3  12    2.53    0.22
   1   3  12    3.08    0.26
  -2  -3 -12   18.92    0.57
  -2  -3 -12   18.25    0.60
  -2  -3 -12   18.16    0.60
   2   3  12   17.50    0.62
   2   3  12   16.97    0.57
   2   3  12   18.03    0.58
   2   3  12   18.84    0.64
  -3  -3 -12    4.50    0.28
  -3  -3 -12    4.62    0.28
  -3  -3 -12    4.54    0.29
  -3  -3 -12    4.54    0.31
   3   3  12    4.91    0.33
   3   3  12    4.27    0.28
   3   3  12    4.41    0.30
  -4  -3 -12    0.31    0.14
  -4  -3 -12    0.32    0.15
  -4  -3 -12    0.50    0.13
  -4  -3 -12    0.72    0.15
   4   3  12    0.48    0.15
   4   3  12    0.33    0.15
   4   3  12    0.51    0.15
  -5  -3 -12    0.09    0.11
  -5  -3 -12    0.25    0.13
  -5  -3 -12    0.10    0.14
  -5  -3 -12   -0.05    0.14
   5   3  12    0.04    0.13
   5   3  12    0.19    0.13
   5   3  12    0.11    0.14
   5   3  12    0.08    0.14
  -6  -3 -12    2.53    0.28
  -6  -3 -12    2.45    0.22
  -6  -3 -12    2.52    0.27
   6   3  12    2.47    0.26
   6   3  12    2.20    0.27
   6   3  12    2.99    0.29
  -7  -3 -12    2.95    0.24
  -7  -3 -12    3.05    0.31
  -7  -3 -12    3.38    0.31
   7   3  12    3.95    0.36
   7   3  12    3.06    0.31
   7   3  12    3.66    0.31
   5  -4 -12    3.04    0.29
  -5   4  12    2.76    0.35
   4  -4 -12    1.03    0.23
  -4   4  12    1.70    0.23
  -4   4  12    1.39    0.26
   3  -4 -12    0.09    0.16
  -3   4  12    0.21    0.14
  -3   4  12    0.07    0.17
   2  -4 -12    1.03    0.17
   2  -4 -12    1.37    0.22
  -2   4  12    1.14    0.19
  -2   4  12    1.72    0.25
   1  -4 -12   17.74    0.60
   1  -4 -12   19.09    0.66
  -1   4  12   19.64    0.69
  -1   4  12   18.69    0.64
  -1   4  12   18.69    0.62
   0  -4 -12   10.35    0.41
   0  -4 -12    9.61    0.42
   0   4  12   10.53    0.47
   0   4  12   10.39    0.44
   0   4  12   10.46    0.44
  -1  -4 -12   16.49    0.56
  -1  -4 -12   15.93    0.56
  -1  -4 -12   16.00    0.52
   1   4  12   16.25    0.60
   1   4  12   16.29    0.57
   1   4  12   16.50    0.56
  -2  -4 -12   25.02    0.75
  -2  -4 -12   25.09    0.72
  -2  -4 -12   25.44    0.75
   2   4  12   23.80    0.80
   2   4  12   24.47    0.73
   2   4  12   25.55    0.77
   2   4  12   24.42    0.72
  -3  -4 -12    0.26    0.14
  -3  -4 -12    0.06    0.12
  -3  -4 -12    0.13    0.13
   3   4  12    0.24    0.11
   3   4  12    0.29    0.14
   3   4  12    0.31    0.12
   3   4  12    0.12    0.14
  -4  -4 -12    5.37    0.35
  -4  -4 -12    5.31    0.32
  -4  -4 -12    5.61    0.33
  -4  -4 -12    5.47    0.31
   4   4  12    4.99    0.34
   4   4  12    5.39    0.34
   4   4  12    5.36    0.31
  -5  -4 -12    3.46    0.31
  -5  -4 -12    3.84    0.27
  -5  -4 -12    4.25    0.31
  -5  -4 -12    3.30    0.27
   5   4  12    3.41    0.31
   5   4  12    4.40    0.30
  -6  -4 -12    1.45    0.22
  -6  -4 -12    1.62    0.24
  -6  -4 -12    1.43    0.18
   6   4  12    1.53    0.22
   6   4  12    1.44    0.24
   6   4  12    1.24    0.22
  -7  -4 -12    0.16    0.13
  -7  -4 -12    0.04    0.16
  -7  -4 -12    0.11    0.21
   7   4  12   -0.02    0.15
   7   4  12    0.22    0.18
   7   4  12    0.22    0.18
   4  -5 -12    6.15    0.44
  -4   5  12    5.00    0.43
  -4   5  12    5.51    0.38
   3  -5 -12    5.33    0.40
  -3   5  12    6.19    0.38
  -3   5  12    5.67    0.43
   2  -5 -12    0.28    0.13
   2  -5 -12    0.28    0.17
  -2   5  12    0.53    0.20
  -2   5  12    0.42    0.16
   1  -5 -12    0.19    0.12
   1  -5 -12    0.10    0.14
  -1   5  12    0.17    0.13
  -1   5  12    0.06    0.16
   0  -5 -12   18.56    0.61
   0  -5 -12   18.61    0.62
   0  -5 -12   19.88    0.66
   0   5  12   19.40    0.69
   0   5  12   18.62    0.64
  -1  -5 -12   14.53    0.49
  -1  -5 -12   13.46    0.51
  -1  -5 -12   12.98    0.50
   1   5  12   13.80    0.56
   1   5  12   14.27    0.51
   1   5  12   13.34    0.51
  -2  -5 -12    4.44    0.28
  -2  -5 -12    4.75    0.31
  -2  -5 -12    4.52    0.31
   2   5  12    4.87    0.36
   2   5  12    4.10    0.28
   2   5  12    4.75    0.30
  -3  -5 -12    2.12    0.23
  -3  -5 -12    1.98    0.22
  -3  -5 -12    2.49    0.25
   3   5  12    2.37    0.23
   3   5  12    2.03    0.26
   3   5  12    1.90    0.20
  -4  -5 -12    7.10    0.37
  -4  -5 -12    7.92    0.38
  -4  -5 -12    7.38    0.40
   4   5  12    7.65    0.39
   4   5  12    6.47    0.41
  -5  -5 -12    0.11    0.15
  -5  -5 -12    0.08    0.16
  -5  -5 -12    0.20    0.13
  -5  -5 -12   -0.08    0.11
   5   5  12    0.24    0.18
   5   5  12    0.42    0.17
  -6  -5 -12    0.60    0.17
  -6  -5 -12    0.71    0.16
  -6  -5 -12    0.85    0.20
  -6  -5 -12    0.88    0.21
   6   5  12    0.41    0.18
   6   5  12    0.38    0.16
  -7  -5 -12    0.25    0.13
  -7  -5 -12   -0.03    0.17
   7   5  12    0.19    0.16
   7   5  12   -0.16    0.16
   7   5  12    0.01    0.17
  -4   6  12    4.90    0.44
  -4   6  12    4.43    0.37
   3  -6 -12    8.08    0.47
  -3   6  12    8.29    0.51
  -3   6  12    8.12    0.44
   2  -6 -12    0.78    0.19
   2  -6 -12    0.49    0.14
  -2   6  12    1.17    0.20
  -2   6  12    0.56    0.21
   1  -6 -12    0.18    0.16
   1  -6 -12    0.34    0.14
  -1   6  12    0.25    0.18
  -1   6  12    0.51    0.16
   0  -6 -12    7.24    0.37
   0  -6 -12    7.16    0.37
   0  -6 -12    7.74    0.40
   0   6  12    7.67    0.40
   0   6  12    7.73    0.44
  -1  -6 -12    1.82    0.21
  -1  -6 -12    1.74    0.21
  -1  -6 -12    1.35    0.21
  -1  -6 -12    2.08    0.28
   1   6  12    2.17    0.28
   1   6  12    1.98    0.22
  -2  -6 -12    8.72    0.38
  -2  -6 -12    7.78    0.40
  -2  -6 -12    8.78    0.41
   2   6  12    7.78    0.39
   2   6  12    8.38    0.46
  -3  -6 -12   23.78    0.74
  -3  -6 -12   25.60    0.78
  -3  -6 -12   25.13    0.77
   3   6  12   24.75    0.96
   3   6  12   23.16    0.74
   3   6  12   23.08    0.82
  -4  -6 -12    1.25    0.20
  -4  -6 -12    0.97    0.20
  -4  -6 -12    1.11    0.19
   4   6  12    1.02    0.22
  -5  -6 -12    3.64    0.31
  -5  -6 -12    4.83    0.36
  -5  -6 -12    3.57    0.30
   5   6  12    3.47    0.35
  -6  -6 -12   10.22    0.47
  -6  -6 -12   10.77    0.49
  -6  -6 -12   10.34    0.45
  -6  -6 -12   10.62    0.52
   6   6  12   10.57    0.55
  -3   7  12    1.31    0.23
  -3   7  12    1.27    0.28
   2  -7 -12   11.81    0.54
  -2   7  12   11.20    0.57
  -2   7  12   12.13    0.54
   1  -7 -12    1.24    0.18
   1  -7 -12    1.71    0.24
  -1   7  12    1.96    0.28
  -1   7  12    1.67    0.23
   0  -7 -12    0.18    0.15
   0  -7 -12   -0.02    0.13
   0  -7 -12    0.30    0.14
   0   7  12    0.21    0.15
   0   7  12    0.21    0.18
  -1  -7 -12    0.33    0.15
  -1  -7 -12    0.23    0.23
  -1  -7 -12    0.27    0.14
   1   7  12    0.39    0.19
   1   7  12    0.18    0.14
  -2  -7 -12    4.95    0.34
  -2  -7 -12    5.49    0.32
  -2  -7 -12    5.07    0.34
   2   7  12    4.87    0.33
   2   7  12    5.28    0.39
  -3  -7 -12    0.59    0.17
  -3  -7 -12    0.22    0.16
  -3  -7 -12    0.50    0.16
   3   7  12    0.60    0.15
   3   7  12    0.21    0.18
  -4  -7 -12    3.72    0.32
  -4  -7 -12    3.66    0.31
  -4  -7 -12    3.18    0.29
   4   7  12    3.08    0.33
  -5  -7 -12   12.05    0.54
  -5  -7 -12   12.63    0.53
  -5  -7 -12   11.26    0.51
   5   7  12   11.49    0.57
  -6  -7 -12    0.58    0.19
  -6  -7 -12    0.33    0.18
   6   7  12    0.35    0.20
   2  -8 -12    5.82    0.42
  -2   8  12    5.23    0.39
  -2   8  12    5.66    0.44
   1  -8 -12    2.12    0.24
   1  -8 -12    2.37    0.28
  -1   8  12    2.30    0.27
  -1   8  12    2.58    0.32
   0  -8 -12    2.43    0.25
   0  -8 -12    2.38    0.25
   0   8  12    2.58    0.31
   0   8  12    2.52    0.27
  -1  -8 -12    0.40    0.15
  -1  -8 -12    0.28    0.16
   1   8  12    0.33    0.19
   1   8  12    0.17    0.16
  -2  -8 -12    0.66    0.19
  -2  -8 -12    0.97    0.19
  -2  -8 -12    0.68    0.18
   2   8  12    0.73    0.22
   2   8  12    0.50    0.17
  -3  -8 -12    2.67    0.29
  -3  -8 -12    2.67    0.27
  -3  -8 -12    2.90    0.27
   3   8  12    2.64    0.33
   3   8  12    2.60    0.26
  -4  -8 -12   12.62    0.55
  -4  -8 -12   14.85    0.58
  -4  -8 -12   12.91    0.58
   4   8  12   14.76    0.66
  -5  -8 -12    3.96    0.33
  -5  -8 -12    3.24    0.32
   5   8  12    3.23    0.35
  -1   9  12    9.05    0.50
  -1   9  12   10.35    0.58
   0  -9 -12    2.54    0.26
   0  -9 -12    2.21    0.26
   0   9  12    2.93    0.34
   0   9  12    2.97    0.31
  -1  -9 -12    0.13    0.16
  -1  -9 -12    0.24    0.15
   1   9  12    0.08    0.20
   1   9  12    0.28    0.16
  -2  -9 -12    0.21    0.16
  -2  -9 -12    0.12    0.16
   2   9  12    0.26    0.16
   2   9  12    0.30    0.20
  -3  -9 -12    1.68    0.24
  -3  -9 -12    1.75    0.25
   3   9  12    1.80    0.29
   3   9  12    1.96    0.24
  -4  -9 -12    2.64    0.29
  -4  -9 -12    2.56    0.29
   4   9  12    2.70    0.35
   1   7 -13    8.22    0.48
  -1  -7  13    7.63    0.51
  -1  -7  13    6.95    0.43
  -1  -7  13    7.93    0.47
   0   7 -13    0.04    0.17
   0  -7  13    0.34    0.17
   0  -7  13    0.01    0.18
   0  -7  13    0.22    0.17
  -1   7 -13    0.97    0.21
   1  -7  13    1.41    0.23
   1  -7  13    1.61    0.27
   3   6 -13    6.26    0.44
  -3  -6  13    6.89    0.42
  -3  -6  13    6.75    0.46
   2   6 -13    8.41    0.47
  -2  -6  13    7.82    0.42
  -2  -6  13    7.75    0.48
  -2  -6  13    7.95    0.47
   1   6 -13    0.26    0.18
  -1  -6  13    0.21    0.16
  -1  -6  13    0.31    0.18
  -1  -6  13    0.51    0.21
   0   6 -13    5.67    0.40
   0  -6  13    5.71    0.38
   0  -6  13    5.05    0.39
   0  -6  13    5.79    0.43
  -1   6 -13    0.29    0.16
   1  -6  13    0.44    0.17
   1  -6  13    0.32    0.17
   1  -6  13    0.40    0.20
  -2   6 -13    0.24    0.14
  -2   6 -13    0.60    0.19
   2  -6  13    0.31    0.16
   2  -6  13    0.32    0.19
   2  -6  13    0.16    0.16
  -3   6 -13    0.75    0.17
   3  -6  13    0.62    0.23
   3  -6  13    0.60    0.18
   4   5 -13    0.14    0.17
   4   5 -13    0.47    0.22
  -4  -5  13    0.45    0.21
  -4  -5  13    0.19    0.17
   3   5 -13    4.75    0.37
  -3  -5  13    3.61    0.32
  -3  -5  13    3.67    0.37
   2   5 -13    2.87    0.29
  -2  -5  13    3.15    0.29
  -2  -5  13    3.14    0.32
  -2  -5  13    3.24    0.32
   1   5 -13    3.52    0.31
  -1  -5  13    3.76    0.34
  -1  -5  13    3.44    0.34
  -1  -5  13    3.40    0.29
  -1  -5  13    3.57    0.32
   0   5 -13   11.90    0.52
   0  -5  13   12.09    0.55
   0  -5  13   11.15    0.53
   0  -5  13   11.67    0.52
  -1   5 -13    0.42    0.25
  -1   5 -13    0.64    0.17
   1  -5  13    0.63    0.18
   1  -5  13    0.56    0.19
   1  -5  13    0.71    0.21
  -2   5 -13    6.69    0.36
  -2   5 -13    7.00    0.39
  -2   5 -13    6.71    0.40
   2  -5  13    6.12    0.43
   2  -5  13    6.02    0.41
   2  -5  13    6.78    0.40
  -3   5 -13    2.12    0.22
  -3   5 -13    2.30    0.27
   3  -5  13    2.19    0.27
   3  -5  13    2.37    0.31
   3  -5  13    1.85    0.25
  -4   5 -13    0.62    0.15
   4  -5  13    0.41    0.18
   4  -5  13    0.76    0.19
   4  -5  13    0.47    0.22
   4   4 -13    0.00    0.17
   4   4 -13   -0.11    0.14
  -4  -4  13    0.09    0.16
  -4  -4  13    0.12    0.19
   3   4 -13    0.46    0.17
  -3  -4  13    0.28    0.16
  -3  -4  13    0.44    0.20
   2   4 -13   11.50    0.52
  -2  -4  13   12.95    0.56
  -2  -4  13   11.69    0.50
   1   4 -13    9.87    0.47
  -1  -4  13    9.20    0.47
  -1  -4  13    9.15    0.42
  -1  -4  13    9.31    0.47
  -1  -4  13    9.70    0.46
   0   4 -13    0.16    0.15
   0  -4  13    0.33    0.16
   0  -4  13    0.51    0.18
   0  -4  13    0.22    0.15
  -1   4 -13    8.88    0.60
  -1   4 -13    7.71    0.39
  -1   4 -13    8.59    0.42
   1  -4  13    8.35    0.45
   1  -4  13    7.76    0.44
   1  -4  13    8.66    0.44
  -2   4 -13   10.78    0.48
  -2   4 -13    8.90    0.42
  -2   4 -13   11.23    0.47
   2  -4  13   11.12    0.53
   2  -4  13   10.45    0.51
   2  -4  13   10.32    0.49
  -3   4 -13    0.65    0.14
  -3   4 -13    1.23    0.22
   3  -4  13    0.87    0.22
   3  -4  13    1.06    0.21
   3  -4  13    0.52    0.18
  -4   4 -13    0.25    0.13
  -4   4 -13    0.35    0.17
  -4   4 -13   -0.03    0.15
   4  -4  13    0.05    0.18
   4  -4  13   -0.10    0.14
   4  -4  13    0.19    0.15
  -5   4 -13    0.46    0.18
  -5   4 -13    0.59    0.15
   5  -4  13    0.47    0.19
   5  -4  13    0.38    0.18
   5  -4  13    0.49    0.22
   5   3 -13    0.27    0.19
  -5  -3  13    0.76    0.22
  -5  -3  13    0.59    0.23
   4   3 -13    2.09    0.27
   4   3 -13    1.84    0.24
  -4  -3  13    2.27    0.27
  -4  -3  13    2.05    0.29
   3   3 -13    0.56    0.19
   3   3 -13    1.06    0.19
  -3  -3  13    0.96    0.22
  -3  -3  13    1.16    0.21
   2   3 -13    0.22    0.15
  -2  -3  13    0.15    0.13
  -2  -3  13    0.08    0.15
   1   3 -13    0.66    0.17
  -1  -3  13    0.24    0.15
  -1  -3  13    0.46    0.14
   0   3 -13   10.87    0.47
   0  -3  13   10.21    0.47
   0  -3  13   10.55    0.47
   0  -3  13   10.41    0.42
   0  -3  13   10.35    0.49
  -1   3 -13   24.41    0.76
  -1   3 -13   22.84    0.73
  -1   3 -13   24.44    0.77
   1  -3  13   25.33    0.80
   1  -3  13   23.48    0.79
   1  -3  13   23.46    0.77
  -2   3 -13    3.88    0.28
  -2   3 -13    5.00    0.32
  -2   3 -13    4.27    0.31
  -2   3 -13    4.65    0.29
   2  -3  13    4.62    0.36
   2  -3  13    4.74    0.36
   2  -3  13    5.02    0.34
  -3   3 -13    4.90    0.33
  -3   3 -13    5.41    0.31
  -3   3 -13    4.83    0.32
   3  -3  13    5.47    0.39
   3  -3  13    4.78    0.37
   3  -3  13    4.43    0.34
  -4   3 -13   11.43    0.52
  -4   3 -13   11.41    0.44
  -4   3 -13   10.89    0.48
   4  -3  13   10.16    0.52
   4  -3  13   10.68    0.51
   4  -3  13   12.58    0.58
  -5   3 -13   -0.03    0.14
  -5   3 -13    0.04    0.17
  -5   3 -13    0.02    0.11
   5  -3  13   -0.08    0.14
   5  -3  13   -0.21    0.17
   5  -3  13    0.18    0.16
  -6   3 -13    0.59    0.20
  -6   3 -13    0.42    0.14
   6  -3  13   -0.02    0.20
   6  -3  13    0.21    0.18
   6  -3  13    0.52    0.19
   5   2 -13    2.05    0.27
  -5  -2  13    2.56    0.29
  -5  -2  13    2.35    0.31
   4   2 -13   12.91    0.53
   4   2 -13   14.47    0.58
  -4  -2  13   14.27    0.58
  -4  -2  13   12.68    0.60
   3   2 -13    2.61    0.26
   3   2 -13    2.07    0.24
  -3  -2  13    2.26    0.28
  -3  -2  13    2.22    0.25
   2   2 -13    0.01    0.13
   2   2 -13   -0.04    0.13
  -2  -2  13    0.16    0.15
  -2  -2  13    0.20    0.13
   1   2 -13    0.54    0.16
  -1  -2  13    0.47    0.16
  -1  -2  13    0.56    0.15
   0   2 -13   13.22    0.51
   0  -2  13   12.93    0.55
   0  -2  13   12.76    0.48
   0  -2  13   13.73    0.54
  -1   2 -13    0.22    0.13
  -1   2 -13    0.88    0.17
   1  -2  13    0.54    0.16
   1  -2  13    0.42    0.15
   1  -2  13    0.77    0.18
  -2   2 -13    2.72    0.25
  -2   2 -13    3.08    0.25
  -2   2 -13    3.08    0.26
  -2   2 -13    2.80    0.24
   2  -2  13    2.68    0.27
   2  -2  13    2.97    0.29
   2  -2  13    3.35    0.30
  -3   2 -13   16.02    0.56
  -3   2 -13   15.87    0.56
  -3   2 -13   16.27    0.59
  -3   2 -13   15.76    0.54
   3  -2  13   16.27    0.63
   3  -2  13   15.11    0.61
   3  -2  13   14.76    0.59
  -4   2 -13    0.26    0.12
  -4   2 -13    0.01    0.14
  -4   2 -13    0.30    0.15
   4  -2  13    0.26    0.15
   4  -2  13    0.18    0.16
   4  -2  13    0.33    0.18
  -5   2 -13    2.04    0.21
  -5   2 -13    2.09    0.26
  -5   2 -13    1.43    0.22
   5  -2  13    1.66    0.27
   5  -2  13    1.70    0.24
   5  -2  13    1.50    0.24
  -6   2 -13    0.59    0.19
  -6   2 -13    0.41    0.13
   6  -2  13    0.51    0.19
   6  -2  13    0.33    0.20
   6  -2  13    0.34    0.18
   5   1 -13    7.30    0.71
   5   1 -13    6.95    0.44
  -5  -1  13    7.19    0.48
  -5  -1  13    6.97    0.43
   4   1 -13    4.33    0.31
   4   1 -13    3.44    0.30
  -4  -1  13    4.52    0.39
  -4  -1  13    3.59    0.32
   3   1 -13    2.54    0.25
   3   1 -13    2.87    0.26
  -3  -1  13    2.66    0.29
  -3  -1  13    2.57    0.27
   2   1 -13    4.02    0.30
   2   1 -13    4.25    0.31
  -2  -1  13    3.88    0.33
  -2  -1  13    4.45    0.31
   1   1 -13    0.43    0.14
  -1  -1  13    0.43    0.15
  -1  -1  13    0.22    0.12
   0   1 -13    0.58    0.15
   0  -1  13    1.12    0.20
   0  -1  13    0.76    0.17
  -1   1 -13    0.27    0.13
  -1   1 -13    0.16    0.12
   1  -1  13    0.17    0.11
   1  -1  13    0.14    0.13
   1  -1  13    0.07    0.13
  -2   1 -13   18.58    0.59
  -2   1 -13   17.18    0.60
  -2   1 -13   18.28    0.62
  -2   1 -13   19.60    0.63
   2  -1  13   18.27    0.65
   2  -1  13   18.94    0.68
   2  -1  13   18.88    0.64
  -3   1 -13    4.71    0.29
  -3   1 -13    4.74    0.30
  -3   1 -13    4.91    0.33
  -3   1 -13    5.26    0.31
   3  -1  13    4.69    0.34
   3  -1  13    4.54    0.34
   3  -1  13    4.31    0.35
  -4   1 -13    5.09    0.30
  -4   1 -13    5.26    0.36
  -4   1 -13    5.63    0.34
   4  -1  13    5.14    0.37
   4  -1  13    5.02    0.37
   4  -1  13    4.90    0.36
  -5   1 -13    7.96    0.44
  -5   1 -13    7.21    0.36
  -5   1 -13    7.53    0.41
   5  -1  13    8.31    0.45
   5  -1  13    8.09    0.47
   5  -1  13    7.46    0.44
  -6   1 -13    0.56    0.19
  -6   1 -13    0.30    0.12
   6  -1  13    0.64    0.20
   6  -1  13    0.59    0.22
   6  -1  13    0.73    0.20
   5   0 -13    8.83    0.47
  -5   0  13    9.31    0.48
  -5   0  13    8.92    0.53
  -5   0  13    9.06    0.52
   4   0 -13    0.35    0.15
   4   0 -13    0.26    0.17
  -4   0  13    0.39    0.17
  -4   0  13    0.37    0.18
  -4   0  13    0.37    0.19
   3   0 -13    5.64    0.34
   3   0 -13    5.97    0.35
  -3   0  13    5.76    0.40
  -3   0  13    6.08    0.37
  -3   0  13    5.87    0.39
   2   0 -13    3.37    0.28
  -2   0  13    3.75    0.31
  -2   0  13    3.95    0.33
  -2   0  13    3.38    0.29
   1   0 -13    2.40    0.24
  -1   0  13    2.04    0.22
  -1   0  13    2.44    0.25
   0   0 -13    0.69    0.16
   0   0  13    0.39    0.15
   0   0  13    0.40    0.16
   0   0  13    0.31    0.13
  -1   0 -13    2.46    0.23
  -1   0 -13    2.85    0.25
   1   0  13    3.36    0.27
   1   0  13    2.57    0.26
   1   0  13    3.27    0.24
  -2   0 -13    1.69    0.20
  -2   0 -13    2.00    0.20
  -2   0 -13    1.70    0.19
  -2   0 -13    1.83    0.21
   2   0  13    1.71    0.21
   2   0  13    1.88    0.25
  -3   0 -13    0.85    0.15
  -3   0 -13    0.59    0.16
  -3   0 -13    0.46    0.14
  -3   0 -13    0.77    0.16
   3   0  13    0.70    0.17
   3   0  13    1.04    0.19
   3   0  13    0.58    0.17
  -4   0 -13   27.37    0.83
  -4   0 -13   27.52    0.80
  -4   0 -13   26.95    0.78
   4   0  13   24.36    0.85
   4   0  13   24.71    0.83
   4   0  13   27.59    0.86
  -5   0 -13    5.55    0.31
  -5   0 -13    5.36    0.37
  -5   0 -13    4.95    0.34
   5   0  13    5.83    0.40
   5   0  13    5.43    0.38
   5   0  13    4.93    0.38
  -6   0 -13    1.01    0.20
  -6   0 -13    0.98    0.16
  -6   0 -13    0.97    0.21
   6   0  13    0.94    0.23
   6   0  13    1.07    0.22
  -7   0 -13    3.59    0.33
  -7   0 -13    3.81    0.27
   7   0  13    3.95    0.36
   7   0  13    4.01    0.40
   5  -1 -13    1.30    0.23
  -5   1  13    0.85    0.25
  -5   1  13    0.86    0.22
  -5   1  13    1.03    0.21
   4  -1 -13    9.05    0.44
   4  -1 -13    9.09    0.51
  -4   1  13    9.37    0.46
  -4   1  13    9.93    0.50
  -4   1  13    9.46    0.51
   3  -1 -13   10.44    0.45
   3  -1 -13   10.75    0.58
  -3   1  13   10.34    0.50
  -3   1  13   10.37    0.48
  -3   1  13   10.79    0.50
   2  -1 -13    0.19    0.13
  -2   1  13    0.00    0.13
  -2   1  13    0.09    0.16
  -2   1  13    0.04    0.12
   1  -1 -13   11.89    0.48
  -1   1  13   12.11    0.48
  -1   1  13   12.65    0.52
  -1   1  13   11.99    0.51
  -1   1  13   12.82    0.49
   0  -1 -13    8.78    0.41
   0   1  13    8.82    0.40
   0   1  13    9.86    0.43
   0   1  13    9.30    0.44
   0   1  13    8.71    0.41
  -1  -1 -13    0.58    0.15
  -1  -1 -13    0.65    0.15
   1   1  13    0.45    0.15
   1   1  13    0.93    0.17
   1   1  13    0.91    0.18
   1   1  13    0.55    0.13
  -2  -1 -13    0.00    0.11
  -2  -1 -13    0.09    0.13
  -2  -1 -13    0.14    0.12
   2   1  13    0.10    0.12
   2   1  13    0.18    0.14
  -3  -1 -13   10.82    0.43
  -3  -1 -13   10.91    0.47
  -3  -1 -13   10.57    0.43
  -3  -1 -13   10.79    0.45
   3   1  13   11.50    0.47
   3   1  13   10.73    0.49
  -4  -1 -13    0.73    0.17
  -4  -1 -13    0.70    0.18
  -4  -1 -13    0.88    0.17
  -4  -1 -13    0.73    0.15
   4   1  13    0.75    0.18
   4   1  13    0.70    0.19
   4   1  13    0.94    0.19
  -5  -1 -13    3.90    0.31
  -5  -1 -13    3.67    0.27
  -5  -1 -13    4.01    0.34
   5   1  13    3.44    0.32
   5   1  13    3.84    0.32
   5   1  13    3.55    0.33
  -6  -1 -13   10.21    0.49
  -6  -1 -13    9.92    0.51
  -6  -1 -13    9.88    0.42
   6   1  13   10.08    0.50
   6   1  13    9.73    0.52
  -7  -1 -13    2.29    0.22
  -7  -1 -13    2.10    0.28
   7   1  13    1.75    0.28
   7   1  13    2.36    0.29
   5  -2 -13    3.19    0.30
  -5   2  13    3.77    0.33
  -5   2  13    3.31    0.34
  -5   2  13    3.16    0.36
   4  -2 -13    6.04    0.44
   4  -2 -13    5.87    0.41
  -4   2  13    6.54    0.40
  -4   2  13    6.73    0.41
  -4   2  13    5.76    0.44
   3  -2 -13    0.20    0.13
   3  -2 -13    0.11    0.17
  -3   2  13    0.13    0.17
  -3   2  13    0.27    0.15
  -3   2  13    0.17    0.14
   2  -2 -13    9.36    0.43
  -2   2  13   10.14    0.46
  -2   2  13    9.75    0.48
   1  -2 -13    9.75    0.44
  -1   2  13   10.24    0.45
  -1   2  13   11.00    0.49
  -1   2  13   11.19    0.44
  -1   2  13   11.04    0.48
   0  -2 -13    0.11    0.13
   0   2  13    0.04    0.13
   0   2  13    0.31    0.13
   0   2  13    0.21    0.14
   0   2  13    0.21    0.13
  -1  -2 -13    7.81    0.38
  -1  -2 -13    8.24    0.39
   1   2  13    8.03    0.38
   1   2  13    7.85    0.41
   1   2  13    8.24    0.40
   1   2  13    7.96    0.37
  -2  -2 -13    0.77    0.15
  -2  -2 -13    0.57    0.15
  -2  -2 -13    0.67    0.16
   2   2  13    0.56    0.13
   2   2  13    0.94    0.18
   2   2  13    0.85    0.16
   2   2  13    0.92    0.18
  -3  -2 -13    2.70    0.24
  -3  -2 -13    2.91    0.26
  -3  -2 -13    3.22    0.26
  -3  -2 -13    2.69    0.25
   3   2  13    3.49    0.29
   3   2  13    2.96    0.26
   3   2  13    2.83    0.28
  -4  -2 -13    0.54    0.14
  -4  -2 -13    0.31    0.16
  -4  -2 -13    0.66    0.16
  -4  -2 -13    0.44    0.15
   4   2  13    0.43    0.17
   4   2  13    0.64    0.17
   4   2  13    0.66    0.17
  -5  -2 -13   13.34    0.54
  -5  -2 -13   14.24    0.58
  -5  -2 -13   13.91    0.51
   5   2  13   14.27    0.57
   5   2  13   14.63    0.58
   5   2  13   13.38    0.55
   5   2  13   14.45    0.60
  -6  -2 -13    9.27    0.41
  -6  -2 -13   10.37    0.51
  -6  -2 -13    9.66    0.47
   6   2  13   10.45    0.50
   6   2  13    8.92    0.49
  -7  -2 -13    0.61    0.16
  -7  -2 -13    1.05    0.23
   7   2  13    1.15    0.23
   7   2  13    0.60    0.22
   4  -3 -13    0.08    0.19
  -4   3  13   -0.10    0.18
   3  -3 -13    9.73    0.50
   3  -3 -13    9.97    0.43
  -3   3  13   10.37    0.48
  -3   3  13   10.03    0.47
  -3   3  13   10.23    0.53
   2  -3 -13    9.04    0.42
   2  -3 -13   10.19    0.50
  -2   3  13   10.44    0.50
  -2   3  13    9.33    0.44
  -2   3  13    9.75    0.45
   1  -3 -13    2.85    0.25
  -1   3  13    2.31    0.24
  -1   3  13    2.61    0.28
  -1   3  13    2.16    0.24
  -1   3  13    2.32    0.24
   0  -3 -13   29.99    0.88
   0   3  13   29.21    0.88
   0   3  13   31.14    0.86
   0   3  13   32.05    0.91
   0   3  13   30.86    0.93
  -1  -3 -13    7.13    0.36
  -1  -3 -13    7.20    0.37
   1   3  13    7.22    0.39
   1   3  13    7.77    0.40
   1   3  13    7.22    0.36
   1   3  13    7.05    0.36
  -2  -3 -13    1.05    0.16
  -2  -3 -13    1.22    0.19
  -2  -3 -13    1.43    0.20
   2   3  13    1.53    0.21
   2   3  13    1.45    0.19
   2   3  13    0.96    0.16
   2   3  13    0.88    0.19
  -3  -3 -13    0.86    0.17
  -3  -3 -13    1.13    0.18
  -3  -3 -13    0.67    0.17
   3   3  13    1.41    0.22
   3   3  13    0.97    0.17
   3   3  13    1.13    0.20
  -4  -3 -13    3.45    0.27
  -4  -3 -13    3.29    0.28
  -4  -3 -13    3.98    0.29
  -4  -3 -13    3.14    0.29
   4   3  13    3.19    0.27
   4   3  13    3.32    0.31
   4   3  13    3.09    0.30
  -5  -3 -13    4.75    0.31
  -5  -3 -13    5.14    0.34
  -5  -3 -13    4.83    0.32
  -5  -3 -13    4.72    0.36
   5   3  13    4.79    0.36
   5   3  13    5.78    0.36
   5   3  13    5.55    0.37
  -6  -3 -13    0.33    0.17
  -6  -3 -13    0.47    0.19
  -6  -3 -13    0.29    0.14
   6   3  13    0.61    0.19
   6   3  13    0.35    0.19
   6   3  13    0.53    0.19
  -7  -3 -13    0.50    0.20
  -7  -3 -13    0.50    0.16
   7   3  13    0.51    0.19
   7   3  13    0.51    0.20
   7   3  13    0.25    0.19
  -4   4  13    0.13    0.20
  -4   4  13    0.01    0.15
   3  -4 -13    1.10    0.23
  -3   4  13    1.79    0.28
  -3   4  13    1.06    0.21
   2  -4 -13    0.47    0.15
   2  -4 -13    0.30    0.18
  -2   4  13    0.74    0.18
  -2   4  13    0.47    0.19
   1  -4 -13    9.25    0.47
   1  -4 -13   10.00    0.44
  -1   4  13   10.14    0.46
  -1   4  13   10.21    0.50
  -1   4  13    9.90    0.46
   0  -4 -13   11.85    0.49
   0  -4 -13   12.76    0.49
   0   4  13   13.04    0.52
   0   4  13   12.85    0.52
   0   4  13   13.84    0.57
  -1  -4 -13    1.73    0.21
  -1  -4 -13    1.54    0.20
   1   4  13    1.47    0.23
   1   4  13    1.56    0.21
   1   4  13    1.66    0.20
  -2  -4 -13    7.52    0.38
  -2  -4 -13    7.15    0.35
  -2  -4 -13    6.71    0.37
   2   4  13    6.34    0.34
   2   4  13    7.48    0.41
   2   4  13    6.86    0.38
  -3  -4 -13    0.91    0.17
  -3  -4 -13    0.88    0.18
  -3  -4 -13    1.08    0.20
   3   4  13    0.81    0.16
   3   4  13    1.45    0.23
   3   4  13    0.94    0.18
  -4  -4 -13    0.63    0.16
  -4  -4 -13    0.87    0.20
  -4  -4 -13    0.30    0.16
  -4  -4 -13    0.65    0.17
   4   4  13    0.65    0.19
   4   4  13    0.48    0.18
   4   4  13    0.46    0.15
  -5  -4 -13    0.01    0.16
  -5  -4 -13   -0.07    0.14
  -5  -4 -13    0.03    0.13
  -5  -4 -13    0.03    0.12
   5   4  13   -0.16    0.12
   5   4  13    0.15    0.16
  -6  -4 -13    2.92    0.38
  -6  -4 -13    3.53    0.28
  -6  -4 -13    3.74    0.32
   6   4  13    4.20    0.34
   6   4  13    3.54    0.34
  -4   5  13    0.27    0.22
  -4   5  13   -0.02    0.16
   3  -5 -13    0.27    0.18
  -3   5  13    0.15    0.20
  -3   5  13    0.20    0.16
   2  -5 -13    1.99    0.27
   2  -5 -13    1.50    0.20
  -2   5  13    1.87    0.24
  -2   5  13    2.19    0.30
   1  -5 -13   14.63    0.59
   1  -5 -13   14.16    0.53
  -1   5  13   14.83    0.57
  -1   5  13   14.25    0.62
   0  -5 -13    6.67    0.37
   0  -5 -13    5.71    0.34
   0  -5 -13    6.49    0.38
   0   5  13    7.45    0.43
   0   5  13    6.81    0.38
  -1  -5 -13    5.98    0.34
  -1  -5 -13    6.15    0.36
   1   5  13    5.40    0.34
   1   5  13    6.18    0.39
  -2  -5 -13   15.29    0.57
  -2  -5 -13   16.04    0.59
  -2  -5 -13   15.44    0.53
   2   5  13   14.64    0.56
   2   5  13   16.07    0.58
   2   5  13   15.18    0.63
  -3  -5 -13    0.16    0.13
  -3  -5 -13   -0.13    0.13
  -3  -5 -13    0.07    0.15
   3   5  13    0.17    0.13
   3   5  13   -0.03    0.15
   3   5  13   -0.07    0.13
  -4  -5 -13    4.16    0.31
  -4  -5 -13    3.59    0.31
  -4  -5 -13    4.02    0.31
   4   5  13    4.33    0.33
   4   5  13    3.46    0.33
  -5  -5 -13    0.15    0.17
  -5  -5 -13    0.05    0.16
  -5  -5 -13    0.14    0.14
  -5  -5 -13   -0.10    0.13
   5   5  13    0.13    0.17
  -6  -5 -13    0.35    0.19
  -6  -5 -13    0.21    0.15
  -6  -5 -13    0.31    0.17
   6   5  13    0.17    0.18
  -3   6  13    0.24    0.17
  -3   6  13    0.06    0.19
   2  -6 -13    0.27    0.18
  -2   6  13    0.30    0.17
  -2   6  13    0.35    0.20
   1  -6 -13    2.33    0.24
   1  -6 -13    1.97    0.26
  -1   6  13    2.78    0.28
  -1   6  13    2.45    0.31
   0  -6 -13    3.69    0.30
   0  -6 -13    4.16    0.34
   0  -6 -13    4.82    0.33
   0   6  13    4.39    0.34
   0   6  13    4.32    0.38
  -1  -6 -13   15.55    0.57
  -1  -6 -13   15.05    0.57
   1   6  13   15.00    0.63
   1   6  13   14.69    0.57
  -2  -6 -13    0.21    0.15
  -2  -6 -13    0.18    0.15
  -2  -6 -13    0.39    0.15
   2   6  13    0.43    0.19
   2   6  13    0.35    0.15
  -3  -6 -13    5.82    0.38
  -3  -6 -13    5.98    0.38
  -3  -6 -13    5.58    0.35
   3   6  13    5.64    0.41
   3   6  13    5.57    0.34
  -4  -6 -13   13.83    0.56
  -4  -6 -13   13.57    0.56
  -4  -6 -13   12.53    0.52
   4   6  13   12.65    0.59
  -5  -6 -13    0.73    0.19
  -5  -6 -13    0.47    0.25
  -5  -6 -13    0.56    0.19
   5   6  13    0.71    0.22
  -6  -6 -13    0.07    0.17
  -6  -6 -13    0.20    0.16
   6   6  13   -0.09    0.18
   2  -7 -13    0.46    0.24
  -2   7  13    0.64    0.22
  -2   7  13    0.60    0.19
   1  -7 -13   -0.05    0.15
   1  -7 -13   -0.06    0.13
  -1   7  13    0.03    0.15
  -1   7  13   -0.05    0.17
   0  -7 -13    1.49    0.22
   0  -7 -13    1.48    0.21
   0   7  13    1.25    0.25
   0   7  13    1.76    0.24
  -1  -7 -13    0.95    0.20
  -1  -7 -13    0.75    0.18
   1   7  13    1.22    0.24
   1   7  13    0.92    0.19
  -2  -7 -13    3.96    0.33
  -2  -7 -13    3.77    0.30
  -2  -7 -13    3.22    0.30
   2   7  13    3.75    0.36
   2   7  13    3.88    0.32
  -3  -7 -13   14.51    0.58
  -3  -7 -13   14.31    0.59
  -3  -7 -13   14.00    0.55
   3   7  13   14.85    0.66
   3   7  13   13.86    0.55
  -4  -7 -13    0.40    0.18
  -4  -7 -13    0.59    0.19
  -4  -7 -13    0.42    0.24
   4   7  13    0.50    0.21
  -5  -7 -13    1.34    0.24
  -5  -7 -13    1.13    0.22
   5   7  13    0.99    0.24
   1  -8 -13    1.19    0.26
  -1   8  13    1.34    0.23
  -1   8  13    1.08    0.26
   0  -8 -13    4.40    0.34
   0  -8 -13    4.59    0.33
   0   8  13    4.72    0.40
   0   8  13    4.97    0.38
  -1  -8 -13    2.74    0.27
  -1  -8 -13    3.87    0.32
   1   8  13    3.95    0.34
   1   8  13    3.27    0.35
  -2  -8 -13   12.61    0.55
  -2  -8 -13   12.53    0.51
  -2  -8 -13   12.42    0.58
   2   8  13   12.04    0.53
   2   8  13   11.67    0.61
  -3  -8 -13    3.42    0.32
  -3  -8 -13    3.00    0.29
   3   8  13    3.60    0.37
   3   8  13    3.09    0.30
  -4  -8 -13    1.09    0.23
  -4  -8 -13    1.14    0.23
   4   8  13    0.77    0.24
   0   6 -14    0.11    0.17
   0  -6  14    0.01    0.18
   0  -6  14    0.15    0.16
   0  -6  14    0.08    0.16
  -1   6 -14    0.18    0.17
   1  -6  14    0.12    0.17
   1  -6  14    0.00    0.19
   1  -6  14    0.03    0.17
   2   5 -14    3.35    0.33
  -2  -5  14    3.21    0.30
  -2  -5  14    3.05    0.32
   1   5 -14    0.19    0.18
  -1  -5  14    0.08    0.17
  -1  -5  14    0.03    0.17
  -1  -5  14   -0.01    0.17
   0   5 -14    7.04    0.43
   0  -5  14    6.99    0.45
   0  -5  14    7.42    0.43
   0  -5  14    7.37    0.45
  -1   5 -14    1.67    0.25
   1  -5  14    1.60    0.26
   1  -5  14    1.71    0.27
   1  -5  14    1.81    0.24
  -2   5 -14    0.07    0.15
  -2   5 -14    0.06    0.14
  -2   5 -14    0.19    0.17
   2  -5  14   -0.03    0.16
   2  -5  14    0.14    0.19
   2  -5  14    0.14    0.17
  -3   5 -14    0.04    0.13
   3  -5  14   -0.25    0.14
   3  -5  14    0.37    0.20
   3  -5  14    0.10    0.17
   3   4 -14    5.31    0.41
   3   4 -14    5.69    0.39
  -3  -4  14    6.06    0.44
  -3  -4  14    5.85    0.40
   2   4 -14    5.59    0.39
  -2  -4  14    5.59    0.42
  -2  -4  14    4.99    0.36
   1   4 -14    8.81    0.45
  -1  -4  14    7.68    0.40
  -1  -4  14    8.09    0.47
  -1  -4  14    8.17    0.45
   0   4 -14   13.11    0.55
   0  -4  14   12.56    0.58
   0  -4  14   12.57    0.57
   0  -4  14   12.16    0.55
  -1   4 -14    0.68    0.19
   1  -4  14    0.73    0.19
   1  -4  14    0.59    0.19
   1  -4  14    0.72    0.20
  -2   4 -14    1.04    0.20
  -2   4 -14    0.68    0.18
  -2   4 -14    0.86    0.19
  -2   4 -14    0.75    0.17
   2  -4  14    0.93    0.21
   2  -4  14    0.59    0.20
   2  -4  14    0.52    0.19
  -3   4 -14    0.88    0.20
  -3   4 -14    0.74    0.19
  -3   4 -14    0.71    0.16
   3  -4  14    0.44    0.20
   3  -4  14    0.88    0.21
   3  -4  14    0.52    0.20
  -4   4 -14    1.03    0.18
  -4   4 -14    0.94    0.21
   4  -4  14    1.07    0.23
   4  -4  14    1.20    0.26
   4  -4  14    1.07    0.22
   4   3 -14   -0.18    0.16
  -4  -3  14   -0.08    0.18
   3   3 -14    1.17    0.22
   3   3 -14    0.78    0.19
  -3  -3  14    0.72    0.19
  -3  -3  14    1.00    0.23
   2   3 -14    6.35    0.39
  -2  -3  14    6.67    0.44
  -2  -3  14    6.59    0.39
   1   3 -14   10.20    0.47
  -1  -3  14    8.63    0.48
  -1  -3  14    8.86    0.42
  -1  -3  14    9.71    0.47
   0   3 -14    1.78    0.24
   0  -3  14    2.24    0.27
   0  -3  14    1.93    0.26
  -1   3 -14    4.09    0.33
   1  -3  14    3.78    0.33
   1  -3  14    3.80    0.31
   1  -3  14    3.71    0.33
  -2   3 -14    6.06    0.37
  -2   3 -14    6.19    0.35
  -2   3 -14    4.84    0.34
  -2   3 -14    6.19    0.37
   2  -3  14    6.63    0.41
   2  -3  14    6.35    0.41
   2  -3  14    5.80    0.40
  -3   3 -14    0.16    0.13
  -3   3 -14   -0.10    0.14
  -3   3 -14    0.15    0.14
   3  -3  14    0.10    0.16
   3  -3  14   -0.08    0.15
   3  -3  14    0.23    0.17
  -4   3 -14    1.68    0.31
  -4   3 -14    1.56    0.20
  -4   3 -14    1.21    0.21
   4  -3  14    1.45    0.24
   4  -3  14    1.17    0.24
   4  -3  14    1.48    0.27
  -5   3 -14    0.29    0.14
  -5   3 -14    0.35    0.18
   5  -3  14    0.06    0.18
   5  -3  14    0.42    0.21
   5  -3  14    0.49    0.22
   4   2 -14    0.40    0.20
   4   2 -14    0.34    0.17
  -4  -2  14    0.21    0.20
  -4  -2  14    0.58    0.20
   3   2 -14    0.22    0.16
   3   2 -14    0.04    0.15
  -3  -2  14    0.08    0.17
  -3  -2  14    0.01    0.15
   2   2 -14    5.14    0.34
   2   2 -14    4.83    0.36
  -2  -2  14    4.50    0.33
  -2  -2  14    5.02    0.38
   1   2 -14    1.38    0.21
  -1  -2  14    0.77    0.19
  -1  -2  14    1.20    0.22
  -1  -2  14    1.25    0.19
   0   2 -14    3.90    0.32
   0  -2  14    4.41    0.36
   0  -2  14    4.07    0.33
   0  -2  14    3.79    0.28
  -1   2 -14   17.75    0.62
   1  -2  14   15.93    0.65
   1  -2  14   17.07    0.63
  -2   2 -14    0.91    0.18
  -2   2 -14    1.34    0.19
  -2   2 -14    1.07    0.18
  -2   2 -14    1.32    0.20
   2  -2  14    0.97    0.20
   2  -2  14    1.59    0.23
   2  -2  14    1.53    0.25
  -3   2 -14    1.83    0.21
  -3   2 -14    1.76    0.22
  -3   2 -14    1.14    0.21
  -3   2 -14    1.40    0.21
   3  -2  14    1.89    0.26
   3  -2  14    2.06    0.26
   3  -2  14    1.77    0.26
  -4   2 -14    2.90    0.25
  -4   2 -14    2.82    0.30
  -4   2 -14    2.79    0.28
   4  -2  14    3.35    0.34
   4  -2  14    2.74    0.31
   4  -2  14    2.62    0.29
  -5   2 -14    0.31    0.14
  -5   2 -14    0.20    0.17
   5  -2  14    0.30    0.20
   5  -2  14    0.33    0.18
   5  -2  14    0.04    0.17
   4   1 -14    3.81    0.32
   4   1 -14    4.20    0.33
  -4  -1  14    4.31    0.37
  -4  -1  14    4.32    0.39
   3   1 -14    1.09    0.21
   3   1 -14    0.91    0.19
  -3  -1  14    0.53    0.20
  -3  -1  14    0.83    0.19
   2   1 -14    2.36    0.25
  -2  -1  14    2.07    0.27
  -2  -1  14    2.43    0.26
   1   1 -14   -0.03    0.13
  -1  -1  14   -0.11    0.14
  -1  -1  14    0.04    0.13
  -1  -1  14    0.25    0.16
   0   1 -14   12.47    0.52
   0  -1  14   12.34    0.52
   0  -1  14   13.15    0.50
   0  -1  14   13.38    0.56
  -1   1 -14    4.96    0.34
  -1   1 -14    4.23    0.30
   1  -1  14    5.35    0.36
   1  -1  14    4.76    0.35
  -2   1 -14    1.68    0.21
  -2   1 -14    1.67    0.23
  -2   1 -14    1.99    0.23
  -2   1 -14    1.72    0.20
   2  -1  14    1.84    0.26
   2  -1  14    2.02    0.25
  -3   1 -14    8.60    0.42
  -3   1 -14    8.76    0.44
  -3   1 -14    8.51    0.40
  -3   1 -14    8.87    0.41
   3  -1  14    8.91    0.45
   3  -1  14    8.90    0.48
   3  -1  14    8.50    0.45
  -4   1 -14    1.62    0.24
  -4   1 -14    1.47    0.20
  -4   1 -14    1.83    0.23
   4  -1  14    1.96    0.26
   4  -1  14    1.37    0.24
   4  -1  14    1.22    0.23
  -5   1 -14    0.74    0.20
  -5   1 -14    0.67    0.16
   5  -1  14    0.53    0.21
   5  -1  14    0.46    0.19
   5  -1  14    0.29    0.19
   4   0 -14    7.84    0.45
   4   0 -14    8.14    0.42
  -4   0  14    8.26    0.46
  -4   0  14    7.70    0.48
  -4   0  14    8.04    0.49
   3   0 -14    0.13    0.14
  -3   0  14    0.75    0.20
  -3   0  14    0.46    0.17
   2   0 -14    0.17    0.14
  -2   0  14    0.06    0.15
  -2   0  14    0.27    0.15
   1   0 -14    0.91    0.19
  -1   0  14    0.43    0.17
  -1   0  14    0.91    0.19
   0   0 -14    0.56    0.16
   0   0  14    0.57    0.18
   0   0  14    0.51    0.14
   0   0  14    0.65    0.17
  -1   0 -14    1.04    0.19
  -1   0 -14    1.05    0.18
   1   0  14    0.60    0.17
   1   0  14    1.00    0.20
   1   0  14    1.11    0.17
  -2   0 -14   16.10    0.58
  -2   0 -14   15.92    0.54
  -2   0 -14   14.76    0.56
   2   0  14   14.65    0.58
   2   0  14   15.80    0.63
  -3   0 -14    7.51    0.41
  -3   0 -14    8.33    0.39
  -3   0 -14    7.63    0.40
  -3   0 -14    7.66    0.38
   3   0  14    7.33    0.41
   3   0  14    7.31    0.43
  -4   0 -14    1.54    0.24
  -4   0 -14    1.11    0.20
  -4   0 -14    1.29    0.18
   4   0  14    1.23    0.22
   4   0  14    1.15    0.23
   4   0  14    1.32    0.23
  -5   0 -14   13.64    0.57
  -5   0 -14   12.68    0.49
  -5   0 -14   12.23    0.53
   5   0  14   12.93    0.56
   5   0  14   11.84    0.58
   5   0  14   13.09    0.59
  -6   0 -14    0.45    0.15
  -6   0 -14    0.31    0.18
   6   0  14    0.26    0.19
   6   0  14    0.25    0.18
   6   0  14    0.48    0.20
  -4   1  14    0.21    0.21
  -4   1  14    0.20    0.17
  -4   1  14    0.19    0.17
   3  -1 -14   12.07    0.51
  -3   1  14   12.17    0.54
  -3   1  14   12.85    0.56
  -3   1  14   11.72    0.56
   2  -1 -14    7.17    0.39
  -2   1  14    6.67    0.41
  -2   1  14    7.52    0.42
   1  -1 -14    0.06    0.13
  -1   1  14    0.24    0.15
  -1   1  14    0.30    0.16
  -1   1  14    0.28    0.16
  -1   1  14   -0.01    0.12
   0  -1 -14    0.22    0.14
   0   1  14    0.36    0.16
   0   1  14    0.15    0.12
   0   1  14    0.21    0.14
   0   1  14    0.12    0.18
  -1  -1 -14   15.83    0.57
  -1  -1 -14   13.59    0.53
   1   1  14   14.81    0.53
   1   1  14   14.74    0.56
   1   1  14   15.53    0.61
  -2  -1 -14    5.57    0.35
  -2  -1 -14    6.81    0.37
  -2  -1 -14    5.29    0.32
   2   1  14    6.23    0.39
   2   1  14    5.81    0.35
  -3  -1 -14   -0.06    0.13
  -3  -1 -14    0.10    0.13
  -3  -1 -14    0.18    0.15
  -3  -1 -14    0.22    0.13
   3   1  14    0.18    0.16
   3   1  14    0.37    0.16
  -4  -1 -14   14.65    0.54
  -4  -1 -14   15.38    0.57
  -4  -1 -14   15.39    0.60
  -4  -1 -14   15.05    0.57
   4   1  14   14.32    0.63
   4   1  14   15.19    0.61
  -5  -1 -14    3.12    0.31
  -5  -1 -14    3.84    0.30
  -5  -1 -14    2.79    0.29
   5   1  14    3.20    0.33
   5   1  14    3.18    0.33
   5   1  14    3.55    0.32
  -6  -1 -14    0.52    0.19
  -6  -1 -14    0.20    0.13
   6   1  14    0.38    0.19
   6   1  14    0.09    0.18
  -4   2  14    3.60    0.33
  -4   2  14    2.76    0.35
  -4   2  14    2.83    0.30
   3  -2 -14    9.85    0.44
   3  -2 -14    9.61    0.53
  -3   2  14    9.34    0.48
  -3   2  14    9.38    0.52
   2  -2 -14    0.28    0.15
  -2   2  14    0.09    0.17
  -2   2  14    0.24    0.15
  -2   2  14    0.32    0.16
   1  -2 -14    4.67    0.32
  -1   2  14    4.63    0.35
  -1   2  14    4.56    0.32
  -1   2  14    4.39    0.34
  -1   2  14    4.60    0.33
   0  -2 -14    2.84    0.27
   0   2  14    3.62    0.30
   0   2  14    2.98    0.26
   0   2  14    2.68    0.25
   0   2  14    3.03    0.29
  -1  -2 -14    3.64    0.29
  -1  -2 -14    4.17    0.31
   1   2  14    4.41    0.31
   1   2  14    4.42    0.33
   1   2  14    3.44    0.28
   1   2  14    4.13    0.31
  -2  -2 -14    1.19    0.20
  -2  -2 -14    1.15    0.18
  -2  -2 -14    1.63    0.21
   2   2  14    1.31    0.22
   2   2  14    1.65    0.23
   2   2  14    1.15    0.19
  -3  -2 -14   12.60    0.53
  -3  -2 -14   14.03    0.54
  -3  -2 -14   12.33    0.49
   3   2  14   12.31    0.55
   3   2  14   12.93    0.53
   3   2  14   12.30    0.52
  -4  -2 -14    9.29    0.46
  -4  -2 -14    9.83    0.45
  -4  -2 -14   10.20    0.45
  -4  -2 -14    9.57    0.43
   4   2  14    9.52    0.46
   4   2  14    9.07    0.49
  -5  -2 -14    0.38    0.19
  -5  -2 -14    0.44    0.15
  -5  -2 -14    0.50    0.17
   5   2  14    0.44    0.19
   5   2  14    0.29    0.18
  -6  -2 -14    6.49    0.41
  -6  -2 -14    6.28    0.36
   6   2  14    6.85    0.43
   6   2  14    6.34    0.43
  -4   3  14    5.46    0.46
  -4   3  14    5.94    0.42
   3  -3 -14    0.20    0.30
   3  -3 -14    0.15    0.14
  -3   3  14    0.14    0.19
  -3   3  14    0.16    0.16
   2  -3 -14    8.74    0.42
   2  -3 -14    8.44    0.49
  -2   3  14    8.29    0.44
  -2   3  14    9.30    0.46
  -2   3  14    8.67    0.48
   1  -3 -14    6.95    0.38
  -1   3  14    6.69    0.42
  -1   3  14    7.37    0.40
  -1   3  14    6.88    0.40
   0  -3 -14    0.16    0.14
   0   3  14    0.22    0.16
   0   3  14    0.16    0.14
   0   3  14    0.15    0.15
   0   3  14    0.21    0.13
  -1  -3 -14   12.49    0.52
  -1  -3 -14   12.16    0.49
   1   3  14   12.95    0.54
   1   3  14   12.19    0.49
   1   3  14   13.00    0.54
   1   3  14   11.68    0.49
  -2  -3 -14    0.61    0.17
  -2  -3 -14    0.22    0.14
  -2  -3 -14    0.36    0.16
   2   3  14    0.33    0.13
   2   3  14    0.49    0.18
   2   3  14    0.59    0.18
   2   3  14    0.47    0.16
  -3  -3 -14    6.88    0.40
  -3  -3 -14    6.76    0.39
  -3  -3 -14    6.19    0.36
   3   3  14    7.09    0.38
   3   3  14    6.40    0.41
   3   3  14    6.53    0.41
  -4  -3 -14    0.11    0.13
  -4  -3 -14    0.09    0.15
  -4  -3 -14   -0.01    0.16
  -4  -3 -14   -0.08    0.13
   4   3  14   -0.13    0.15
   4   3  14   -0.21    0.14
   4   3  14    0.03    0.14
  -5  -3 -14   10.15    0.46
  -5  -3 -14   10.36    0.52
  -5  -3 -14   11.31    0.49
  -5  -3 -14   11.49    0.51
   5   3  14   10.66    0.50
   5   3  14   10.36    0.53
   5   3  14    9.95    0.51
  -6  -3 -14    4.35    0.35
  -6  -3 -14    4.26    0.32
   6   3  14    4.13    0.35
   6   3  14    4.77    0.38
  -3   4  14    8.49    0.47
  -3   4  14    7.41    0.50
   2  -4 -14    7.80    0.46
   2  -4 -14    7.24    0.40
  -2   4  14    7.77    0.47
  -2   4  14    7.69    0.44
   1  -4 -14    0.66    0.20
   1  -4 -14    0.73    0.18
  -1   4  14    1.07    0.23
  -1   4  14    1.01    0.20
   0  -4 -14    0.68    0.18
   0   4  14    1.22    0.20
   0   4  14    0.86    0.19
   0   4  14    1.65    0.25
  -1  -4 -14    4.00    0.32
  -1  -4 -14    3.10    0.27
   1   4  14    3.87    0.34
   1   4  14    4.03    0.32
   1   4  14    3.27    0.28
  -2  -4 -14    0.41    0.17
  -2  -4 -14    0.38    0.16
  -2  -4 -14    0.57    0.16
   2   4  14    0.70    0.15
   2   4  14    0.66    0.20
   2   4  14    0.54    0.17
  -3  -4 -14    0.17    0.16
  -3  -4 -14    0.10    0.15
  -3  -4 -14   -0.01    0.14
   3   4  14    0.05    0.15
   3   4  14    0.11    0.16
  -4  -4 -14    0.55    0.19
  -4  -4 -14    0.81    0.19
  -4  -4 -14    0.64    0.19
   4   4  14    1.05    0.22
   4   4  14    0.67    0.20
   4   4  14    0.42    0.16
  -5  -4 -14    5.71    0.40
  -5  -4 -14    6.13    0.39
  -5  -4 -14    6.23    0.37
   5   4  14    6.36    0.43
   5   4  14    6.43    0.39
   5   4  14    6.11    0.43
  -6  -4 -14    0.13    0.14
  -6  -4 -14    0.13    0.18
   6   4  14    0.26    0.20
   6   4  14    0.18    0.17
  -3   5  14    5.33    0.41
  -3   5  14    4.94    0.44
   2  -5 -14    3.65    0.30
   2  -5 -14    3.07    0.36
  -2   5  14    3.62    0.32
  -2   5  14    3.56    0.37
   1  -5 -14    2.84    0.30
   1  -5 -14    2.11    0.24
  -1   5  14    2.95    0.32
  -1   5  14    2.88    0.29
   0  -5 -14   13.03    0.54
   0  -5 -14   13.05    0.57
   0   5  14   12.86    0.60
   0   5  14   13.37    0.55
  -1  -5 -14    0.52    0.17
  -1  -5 -14    0.22    0.16
   1   5  14    0.32    0.16
   1   5  14    0.29    0.18
  -2  -5 -14    5.50    0.36
  -2  -5 -14    5.26    0.37
  -2  -5 -14    5.35    0.33
   2   5  14    5.41    0.39
   2   5  14    5.42    0.34
   2   5  14    5.56    0.37
  -3  -5 -14    0.65    0.18
  -3  -5 -14    0.78    0.19
  -3  -5 -14    0.65    0.18
   3   5  14    0.84    0.22
   3   5  14    0.49    0.18
  -4  -5 -14    3.14    0.29
  -4  -5 -14    2.78    0.28
  -4  -5 -14    2.29    0.27
   4   5  14    2.75    0.29
   4   5  14    2.58    0.31
  -5  -5 -14    0.03    0.17
  -5  -5 -14    0.07    0.16
   5   5  14    0.01    0.17
  -2   6  14    4.96    0.39
  -2   6  14    3.17    0.36
   1  -6 -14    7.64    0.46
   1  -6 -14    8.09    0.41
  -1   6  14    7.96    0.45
  -1   6  14    7.16    0.47
   0  -6 -14    6.08    0.40
   0  -6 -14    5.02    0.35
   0   6  14    4.98    0.37
   0   6  14    4.35    0.39
  -1  -6 -14    7.21    0.42
  -1  -6 -14    7.57    0.41
   1   6  14    6.71    0.45
   1   6  14    8.12    0.42
  -2  -6 -14   10.77    0.49
  -2  -6 -14   10.54    0.53
  -2  -6 -14   10.61    0.50
   2   6  14   10.07    0.47
   2   6  14   11.01    0.55
  -3  -6 -14    3.75    0.31
  -3  -6 -14    3.49    0.31
  -3  -6 -14    3.66    0.33
   3   6  14    3.51    0.36
  -4  -6 -14    0.15    0.16
  -4  -6 -14    0.28    0.18
   4   6  14    0.04    0.18
  -5  -6 -14    0.25    0.17
  -5  -6 -14    0.55    0.19
   5   6  14    0.26    0.20
   1  -7 -14    0.91    0.19
  -1   7  14    0.92    0.25
  -1   7  14    0.58    0.20
   0  -7 -14    0.31    0.16
   0   7  14    0.71    0.23
   0   7  14    0.26    0.17
  -1  -7 -14    7.06    0.42
  -1  -7 -14    6.46    0.41
   1   7  14    7.08    0.42
   1   7  14    6.95    0.46
  -2  -7 -14    2.71    0.29
  -2  -7 -14    2.45    0.35
   2   7  14    2.67    0.28
   2   7  14    2.57    0.33
  -3  -7 -14    5.22    0.38
  -3  -7 -14    4.83    0.35
   3   7  14    4.26    0.37
   3   7  14    4.78    0.42
  -4  -7 -14    2.90    0.30
  -4  -7 -14    3.14    0.32
   4   7  14    3.20    0.36
   1   4 -15    2.70    0.30
  -1  -4  15    3.11    0.33
  -1  -4  15    2.85    0.31
   0   4 -15    3.27    0.32
   0  -4  15    3.55    0.35
   0  -4  15    3.80    0.34
  -1   4 -15    1.44    0.23
   1  -4  15    1.56    0.24
   1  -4  15    1.55    0.26
   1  -4  15    1.41    0.25
  -2   4 -15    2.35    0.27
  -2   4 -15    1.77    0.32
  -2   4 -15    1.89    0.25
   2  -4  15    2.21    0.29
   2  -4  15    2.11    0.29
   2  -4  15    2.12    0.29
   2   3 -15    0.85    0.22
  -2  -3  15    1.04    0.23
  -2  -3  15    0.70    0.20
   1   3 -15    3.32    0.32
  -1  -3  15    2.86    0.31
  -1  -3  15    3.68    0.33
  -1  -3  15    2.68    0.27
   0   3 -15   11.47    0.53
   0  -3  15   12.57    0.55
   0  -3  15   10.69    0.55
  -1   3 -15    0.89    0.20
   1  -3  15    0.68    0.19
   1  -3  15    0.57    0.20
  -2   3 -15    0.35    0.21
  -2   3 -15    0.18    0.15
  -2   3 -15    0.08    0.16
   2  -3  15   -0.02    0.16
   2  -3  15   -0.02    0.16
   2  -3  15    0.09    0.18
  -3   3 -15    0.14    0.14
  -3   3 -15    0.37    0.17
   3  -3  15    0.53    0.21
   3  -3  15    0.33    0.20
   3  -3  15    0.37    0.19
   2   2 -15    2.58    0.29
  -2  -2  15    3.06    0.33
  -2  -2  15    2.54    0.27
   1   2 -15   11.07    0.52
  -1  -2  15   11.34    0.52
  -1  -2  15   10.89    0.54
  -1  -2  15   10.71    0.48
   0   2 -15    3.07    0.30
   0  -2  15    2.42    0.28
   0  -2  15    2.75    0.30
  -1   2 -15    2.42    0.27
   1  -2  15    2.93    0.32
   1  -2  15    2.79    0.29
  -2   2 -15    7.88    0.43
  -2   2 -15    7.07    0.41
   2  -2  15    6.82    0.45
   2  -2  15    8.16    0.46
  -3   2 -15    0.29    0.16
  -3   2 -15    0.00    0.15
  -3   2 -15    0.06    0.13
  -3   2 -15    0.08    0.15
   3  -2  15    0.19    0.18
   3  -2  15    0.25    0.18
   3  -2  15    0.18    0.17
  -4   2 -15    0.38    0.16
  -4   2 -15    0.16    0.16
   4  -2  15    0.45    0.20
   4  -2  15    0.50    0.20
   4  -2  15    0.43    0.20
   3   1 -15    0.12    0.15
  -3  -1  15    0.47    0.20
  -3  -1  15    0.33    0.17
   2   1 -15    7.67    0.42
  -2  -1  15    7.14    0.45
  -2  -1  15    6.67    0.41
   1   1 -15   11.74    0.53
  -1  -1  15   12.23    0.56
  -1  -1  15   11.71    0.53
   0   1 -15    3.10    0.30
   0  -1  15    3.10    0.31
   0  -1  15    3.37    0.28
   0  -1  15    3.72    0.34
  -1   1 -15    8.28    0.44
   1  -1  15    8.80    0.45
   1  -1  15    8.29    0.48
  -2   1 -15    1.11    0.20
  -2   1 -15    1.33    0.22
   2  -1  15    1.60    0.24
   2  -1  15    1.17    0.23
  -3   1 -15    0.11    0.14
  -3   1 -15    0.18    0.15
  -3   1 -15   -0.05    0.14
  -3   1 -15    0.24    0.17
   3  -1  15    0.08    0.17
   3  -1  15    0.03    0.16
  -4   1 -15    0.61    0.16
  -4   1 -15    0.51    0.17
   4  -1  15    0.12    0.19
   4  -1  15    0.32    0.19
   4  -1  15    0.46    0.20
   3   0 -15    0.12    0.15
  -3   0  15    0.06    0.18
  -3   0  15    0.30    0.17
   2   0 -15    1.14    0.21
  -2   0  15    1.15    0.23
   1   0 -15    0.97    0.19
  -1   0  15    1.00    0.21
  -1   0  15    0.80    0.18
  -1   0  15    1.09    0.22
   0   0 -15    7.92    0.44
   0   0  15    7.56    0.39
   0   0  15    7.91    0.45
   0   0  15    7.65    0.43
  -1   0 -15    9.54    0.47
   1   0  15    9.90    0.51
   1   0  15    9.51    0.47
  -2   0 -15    1.79    0.23
  -2   0 -15    1.32    0.21
   2   0  15    1.34    0.22
   2   0  15    1.24    0.24
  -3   0 -15    8.13    0.43
  -3   0 -15    7.37    0.39
  -3   0 -15    7.29    0.40
  -3   0 -15    7.10    0.42
   3   0  15    7.28    0.44
   3   0  15    7.09    0.46
  -4   0 -15    2.01    0.33
  -4   0 -15    1.58    0.23
  -4   0 -15    2.22    0.23
   4   0  15    2.20    0.29
   4   0  15    1.83    0.27
  -5   0 -15    0.04    0.16
  -5   0 -15    0.17    0.14
   5   0  15    0.03    0.17
   5   0  15    0.15    0.18
   5   0  15   -0.17    0.16
   3  -1 -15    0.17    0.16
  -3   1  15    0.03    0.17
  -3   1  15    0.19    0.19
   2  -1 -15    0.94    0.20
  -2   1  15    0.79    0.19
  -2   1  15    1.25    0.29
  -2   1  15    1.02    0.21
  -2   1  15    0.97    0.21
   1  -1 -15    4.95    0.36
  -1   1  15    4.75    0.38
  -1   1  15    5.26    0.36
  -1   1  15    4.88    0.35
   0  -1 -15    3.02    0.29
   0   1  15    3.50    0.29
   0   1  15    3.54    0.30
   0   1  15    2.93    0.30
  -1  -1 -15    1.03    0.20
   1   1  15    1.09    0.18
   1   1  15    1.02    0.22
   1   1  15    1.07    0.21
  -2  -1 -15   19.28    0.68
  -2  -1 -15   19.45    0.69
   2   1  15   20.29    0.70
   2   1  15   20.19    0.74
  -3  -1 -15    5.89    0.39
  -3  -1 -15    6.54    0.37
  -3  -1 -15    6.54    0.39
   3   1  15    6.99    0.44
   3   1  15    6.54    0.41
  -4  -1 -15    0.98    0.23
  -4  -1 -15    0.90    0.18
  -4  -1 -15    0.89    0.20
  -4  -1 -15    1.49    0.22
   4   1  15    0.96    0.23
   4   1  15    1.45    0.25
  -5  -1 -15    4.14    0.32
  -5  -1 -15    3.81    0.33
   5   1  15    4.47    0.39
   5   1  15    3.69    0.35
   3  -2 -15    6.67    0.39
  -3   2  15    7.71    0.45
  -3   2  15    7.76    0.45
  -3   2  15    7.39    0.48
   2  -2 -15    1.27    0.21
  -2   2  15    1.45    0.23
  -2   2  15    1.67    0.23
  -2   2  15    1.60    0.26
  -2   2  15    1.40    0.23
   1  -2 -15    0.13    0.15
  -1   2  15    0.04    0.16
  -1   2  15    0.05    0.16
  -1   2  15    0.14    0.15
  -1   2  15    0.18    0.16
   0  -2 -15   -0.09    0.13
   0   2  15    0.12    0.14
   0   2  15    0.09    0.16
   0   2  15    0.20    0.15
   0   2  15   -0.01    0.15
  -1  -2 -15    3.55    0.31
   1   2  15    4.13    0.32
   1   2  15    3.87    0.34
   1   2  15    3.57    0.29
   1   2  15    3.33    0.31
  -2  -2 -15    1.62    0.24
  -2  -2 -15    1.73    0.24
   2   2  15    1.92    0.23
   2   2  15    2.12    0.27
  -3  -2 -15    0.06    0.15
  -3  -2 -15   -0.03    0.14
  -3  -2 -15    0.10    0.16
   3   2  15    0.13    0.17
   3   2  15    0.12    0.16
  -4  -2 -15    5.36    0.37
  -4  -2 -15    4.73    0.41
  -4  -2 -15    4.38    0.35
  -4  -2 -15    4.88    0.34
   4   2  15    5.11    0.39
   4   2  15    4.66    0.40
  -5  -2 -15    7.11    0.42
  -5  -2 -15    6.28    0.37
   5   2  15    6.67    0.42
   5   2  15    5.34    0.44
   2  -3 -15    1.08    0.20
  -2   3  15    1.59    0.24
  -2   3  15    0.97    0.21
  -2   3  15    1.10    0.25
   1  -3 -15    1.67    0.23
  -1   3  15    1.05    0.20
  -1   3  15    1.12    0.23
  -1   3  15    0.94    0.21
   0  -3 -15    0.18    0.15
   0   3  15    0.00    0.15
   0   3  15    0.04    0.16
   0   3  15    0.17    0.15
  -1  -3 -15    6.50    0.39
   1   3  15    7.12    0.42
   1   3  15    7.04    0.39
   1   3  15    6.33    0.37
   1   3  15    7.07    0.42
  -2  -3 -15   -0.13    0.14
  -2  -3 -15   -0.07    0.14
   2   3  15    0.14    0.17
   2   3  15    0.05    0.15
   2   3  15    0.00    0.14
  -3  -3 -15   11.00    0.50
  -3  -3 -15   11.21    0.51
  -3  -3 -15   11.22    0.48
   3   3  15    9.69    0.53
   3   3  15   10.71    0.52
   3   3  15   10.87    0.50
  -4  -3 -15    7.29    0.42
  -4  -3 -15    6.63    0.41
   4   3  15    6.71    0.45
   4   3  15    6.91    0.44
   4   3  15    6.90    0.41
  -5  -3 -15    0.10    0.14
  -5  -3 -15    0.06    0.15
  -5  -3 -15    0.06    0.17
   5   3  15    0.01    0.16
   5   3  15   -0.07    0.20
   5   3  15   -0.13    0.17
   2  -4 -15    8.12    0.43
  -2   4  15    8.72    0.52
  -2   4  15    8.77    0.47
   1  -4 -15    6.21    0.47
   1  -4 -15    5.43    0.38
  -1   4  15    6.41    0.44
  -1   4  15    6.83    0.41
   0  -4 -15    0.56    0.18
   0   4  15    0.56    0.21
   0   4  15    0.54    0.18
   0   4  15    0.28    0.16
  -1  -4 -15    0.70    0.18
  -1  -4 -15    0.58    0.20
   1   4  15    0.41    0.16
   1   4  15    0.77    0.22
   1   4  15    0.79    0.19
  -2  -4 -15    1.15    0.22
  -2  -4 -15    1.14    0.22
   2   4  15    1.24    0.23
   2   4  15    1.04    0.21
   2   4  15    0.75    0.19
  -3  -4 -15    6.76    0.39
  -3  -4 -15    7.66    0.43
  -3  -4 -15    7.06    0.42
   3   4  15    7.33    0.45
   3   4  15    7.42    0.46
  -4  -4 -15    1.87    0.25
  -4  -4 -15    1.29    0.23
   4   4  15    1.51    0.25
   4   4  15    1.33    0.26
   1  -5 -15    1.08    0.20
  -1   5  15    0.76    0.23
  -1   5  15    1.19    0.23
   0  -5 -15    0.67    0.19
   0  -5 -15    0.49    0.20
   0   5  15    0.57    0.18
   0   5  15    0.54    0.21
  -1  -5 -15    1.31    0.22
  -1  -5 -15    1.07    0.21
   1   5  15    0.96    0.20
   1   5  15    1.51    0.27
  -2  -5 -15    0.06    0.16
  -2  -5 -15    0.24    0.17
   2   5  15    0.03    0.14
   2   5  15    0.18    0.16
   2   5  15    0.06    0.18
  -3  -5 -15    0.15    0.17
  -3  -5 -15   -0.06    0.15
   3   5  15   -0.07    0.14
   3   5  15    0.09    0.18
  -4  -5 -15    6.12    0.40
  -4  -5 -15    5.97    0.40
   4   5  15    5.19    0.41
   4   5  15    6.12    0.42
   0  -6 -15    7.65    0.69
   0  -6 -15    7.37    0.43
   0   6  15    7.91    0.49
   0   6  15    7.34    0.45
  -1  -6 -15    1.67    0.24
  -1  -6 -15    1.56    0.24
   1   6  15    1.81    0.24
   1   6  15    2.03    0.30
  -2  -6 -15    0.97    0.21
   2   6  15    1.05    0.25
   2   6  15    1.09    0.20
  -3  -6 -15    0.09    0.17
  -3  -6 -15    0.17    0.17
   3   6  15    0.17    0.20
   0   2 -16    5.20    0.40
   0  -2  16    4.14    0.35
   0  -2  16    4.18    0.38
  -1   2 -16    0.51    0.20
   1  -2  16    0.37    0.18
   1  -2  16    0.57    0.21
  -2   2 -16    3.31    0.32
   2  -2  16    3.13    0.33
   1   1 -16    5.82    0.41
  -1  -1  16    5.45    0.38
  -1  -1  16    6.83    0.46
  -1  -1  16    6.12    0.43
   0   1 -16    1.75    0.25
   0  -1  16    2.10    0.29
   0  -1  16    2.05    0.26
  -1   1 -16    0.37    0.18
   1  -1  16    0.70    0.20
   1  -1  16    0.65    0.21
  -2   1 -16    0.55    0.19
   2  -1  16    0.14    0.18
   2  -1  16    0.56    0.21
   1   0 -16    7.09    0.45
  -1   0  16    8.52    0.44
  -1   0  16    8.59    0.46
  -1   0  16    8.19    0.49
   0   0 -16    0.49    0.19
   0   0  16    0.38    0.19
   0   0  16    0.61    0.17
   0   0  16    0.51    0.19
  -1   0 -16   13.31    0.56
   1   0  16   11.06    0.54
   1   0  16   11.70    0.58
  -2   0 -16    1.59    0.24
  -2   0 -16    1.11    0.22
   2   0  16    1.39    0.23
   2   0  16    1.47    0.26
  -3   0 -16    0.44    0.18
  -3   0 -16    0.05    0.16
   3   0  16    0.32    0.18
   3   0  16    0.54    0.21
   1  -1 -16    0.08    0.16
  -1   1  16   -0.04    0.16
  -1   1  16    0.13    0.14
  -1   1  16   -0.22    0.15
   0  -1 -16    8.83    0.48
   0   1  16    9.71    0.46
   0   1  16    9.68    0.48
   0   1  16    9.99    0.51
  -1  -1 -16    9.44    0.48
   1   1  16    8.93    0.47
   1   1  16    8.95    0.51
  -2  -1 -16   -0.11    0.15
  -2  -1 -16    0.15    0.16
   2   1  16   -0.07    0.17
   2   1  16   -0.09    0.15
  -3  -1 -16    4.04    0.34
  -3  -1 -16    4.03    0.32
   3   1  16    4.00    0.35
   3   1  16    4.48    0.39
   1  -2 -16    2.77    0.29
  -1   2  16    3.01    0.31
  -1   2  16    3.05    0.30
  -1   2  16    2.52    0.28
  -1   2  16    2.67    0.31
   0  -2 -16    8.12    0.47
   0   2  16    9.44    0.46
   0   2  16    9.04    0.50
   0   2  16    8.79    0.45
  -1  -2 -16    2.40    0.28
   1   2  16    2.33    0.27
   1   2  16    2.43    0.30
  -2  -2 -16    9.92    0.50
  -2  -2 -16    9.35    0.48
   2   2  16   10.54    0.55
   2   2  16   10.99    0.51
  -3  -2 -16    7.32    0.41
  -3  -2 -16    8.41    0.46
   3   2  16    8.04    0.45
   3   2  16    7.71    0.49
   0  -3 -16    0.22    0.17
   0   3  16    0.01    0.16
   0   3  16    0.16    0.16
   0   3  16    0.15    0.18
  -1  -3 -16    2.53    0.28
   1   3  16    2.69    0.31
   1   3  16    3.37    0.33
   1   3  16    2.79    0.28
  -2  -3 -16   10.93    0.55
  -2  -3 -16   12.31    0.54
   2   3  16   12.49    0.58
   2   3  16   11.79    0.56
   2   3  16   11.67    0.54
  -3  -3 -16   -0.16    0.15
  -3  -3 -16    0.04    0.16
   3   3  16    0.11    0.21
   3   3  16    0.15    0.19
   3   3  16   -0.06    0.16
  -1  -4 -16    7.53    0.45
   1   4  16    7.25    0.45
   1   4  16    7.84    0.46
   1   4  16    7.95    0.43
  -2  -4 -16    0.22    0.17
   2   4  16    0.22    0.18
   2   4  16    0.30    0.19
   0   0   0    0.00    0.00
;
_shelx_hkl_checksum              46969
loop_
_space_group_symop_operation_xyz
'x, y, z'
'-x, -y, -z'
loop_
_atom_site_label
_atom_site_type_symbol
_atom_site_fract_x
_atom_site_fract_y
_atom_site_fract_z
_atom_site_U_iso_or_equiv
_atom_site_adp_type
_atom_site_occupancy
_atom_site_site_symmetry_order
_atom_site_calc_flag
_atom_site_refinement_flags_posn
_atom_site_refinement_flags_adp
Br1 Br 0.28841(2) 0.39117(2) 0.10611(2) 0.01978(5) Uani 1 1 d . .
C1 C 0.8091(2) 0.30283(17) 0.14999(14) 0.0238(3) Uani 1 1 d . .
H1A H 0.8820 0.3271 0.2125 0.029 Uiso 1 1 calc R U
H1B H 0.7639 0.3943 0.1054 0.029 Uiso 1 1 calc R U
C2 C 0.9284(2) 0.19317(17) 0.06988(14) 0.0229(3) Uani 1 1 d . .
H2A H 0.9490 0.2378 -0.0102 0.027 Uiso 1 1 calc R U
H2B H 1.0525 0.1601 0.0995 0.027 Uiso 1 1 calc R U
C3 C 0.6667(2) 0.10289(16) 0.14882(12) 0.0180(3) Uani 1 1 d . .
C4 C 0.5207(2) 0.00544(15) 0.17290(12) 0.0170(3) Uani 1 1 d . .
C5 C 0.5420(2) -0.13187(16) 0.12530(13) 0.0200(3) Uani 1 1 d . .
H5 H 0.6523 -0.1639 0.0767 0.024 Uiso 1 1 calc R U
C6 C 0.4007(2) -0.21838(16) 0.15050(13) 0.0209(3) Uani 1 1 d . .
H6 H 0.4106 -0.3118 0.1194 0.025 Uiso 1 1 calc R U
C7 C 0.2401(2) -0.16693(15) 0.22328(12) 0.0176(3) Uani 1 1 d . .
C8 C 0.0888(2) -0.25252(16) 0.25222(13) 0.0223(3) Uani 1 1 d . .
H8 H 0.0969 -0.3469 0.2231 0.027 Uiso 1 1 calc R U
C9 C -0.0679(2) -0.20089(17) 0.32125(14) 0.0240(3) Uani 1 1 d . .
H9 H -0.1686 -0.2586 0.3394 0.029 Uiso 1 1 calc R U
C10 C -0.0791(2) -0.06164(17) 0.36535(13) 0.0235(3) Uani 1 1 d . .
H10 H -0.1885 -0.0260 0.4133 0.028 Uiso 1 1 calc R U
C11 C 0.0648(2) 0.02369(16) 0.34040(13) 0.0210(3) Uani 1 1 d . .
H11 H 0.0544 0.1169 0.3719 0.025 Uiso 1 1 calc R U
C12 C 0.22809(19) -0.02581(15) 0.26841(12) 0.0162(3) Uani 1 1 d . .
C13 C 0.4811(2) 0.19977(16) 0.43349(13) 0.0211(3) Uani 1 1 d . .
C14 C 0.1741(2) 0.34379(16) 0.36393(13) 0.0221(3) Uani 1 1 d . .
C15 C 0.4824(2) 0.44707(17) 0.32986(13) 0.0233(3) Uani 1 1 d . .
Mn1 Mn 0.40569(3) 0.27791(2) 0.29589(2) 0.01643(6) Uani 1 1 d . .
N1 N 0.65041(17) 0.22323(13) 0.19823(11) 0.0184(2) Uani 1 1 d . .
N2 N 0.37162(17) 0.06110(13) 0.24193(10) 0.0159(2) Uani 1 1 d . .
O1 O 0.81590(15) 0.06989(12) 0.07224(9) 0.0229(2) Uani 1 1 d . .
O2 O 0.52508(18) 0.15689(13) 0.52262(10) 0.0298(3) Uani 1 1 d . .
O3 O 0.03056(17) 0.39507(13) 0.40537(11) 0.0322(3) Uani 1 1 d . .
O4 O 0.5364(2) 0.55084(13) 0.35443(12) 0.0373(3) Uani 1 1 d . .
loop_
_atom_site_aniso_label
_atom_site_aniso_U_11
_atom_site_aniso_U_22
_atom_site_aniso_U_33
_atom_site_aniso_U_23
_atom_site_aniso_U_13
_atom_site_aniso_U_12
Br1 0.02296(8) 0.01718(8) 0.01954(8) -0.00157(5) -0.00173(5) -0.00380(5)
C1 0.0212(7) 0.0234(7) 0.0282(8) -0.0018(6) 0.0008(6) -0.0101(6)
C2 0.0199(7) 0.0263(8) 0.0236(7) -0.0010(6) 0.0000(6) -0.0095(6)
C3 0.0162(6) 0.0196(7) 0.0180(6) -0.0009(5) -0.0008(5) -0.0025(5)
C4 0.0179(6) 0.0169(6) 0.0163(6) -0.0012(5) -0.0015(5) -0.0024(5)
C5 0.0199(7) 0.0181(7) 0.0217(7) -0.0055(5) 0.0014(5) -0.0013(5)
C6 0.0250(7) 0.0155(6) 0.0225(7) -0.0049(5) -0.0010(6) -0.0028(5)
C7 0.0201(7) 0.0155(6) 0.0172(6) -0.0001(5) -0.0018(5) -0.0033(5)
C8 0.0253(7) 0.0183(7) 0.0243(7) -0.0016(6) -0.0018(6) -0.0068(6)
C9 0.0238(7) 0.0242(7) 0.0249(7) 0.0018(6) -0.0005(6) -0.0097(6)
C10 0.0201(7) 0.0256(8) 0.0233(7) -0.0010(6) 0.0038(6) -0.0028(6)
C11 0.0228(7) 0.0182(7) 0.0213(7) -0.0026(5) 0.0018(6) -0.0021(5)
C12 0.0183(6) 0.0151(6) 0.0152(6) 0.0008(5) -0.0023(5) -0.0023(5)
C13 0.0235(7) 0.0154(6) 0.0245(7) -0.0057(5) 0.0004(6) -0.0027(5)
C14 0.0295(8) 0.0170(7) 0.0203(7) -0.0031(5) -0.0023(6) -0.0039(6)
C15 0.0292(8) 0.0197(7) 0.0213(7) -0.0017(6) -0.0035(6) -0.0022(6)
Mn1 0.01941(11) 0.01374(10) 0.01646(11) -0.00312(8) -0.00076(8) -0.00276(8)
N1 0.0176(6) 0.0172(6) 0.0210(6) -0.0008(5) -0.0016(4) -0.0050(4)
N2 0.0179(5) 0.0140(5) 0.0158(5) -0.0010(4) -0.0011(4) -0.0020(4)
O1 0.0188(5) 0.0255(5) 0.0251(5) -0.0065(4) 0.0049(4) -0.0078(4)
O2 0.0392(7) 0.0247(6) 0.0255(6) -0.0017(5) -0.0078(5) 0.0002(5)
O3 0.0304(6) 0.0296(6) 0.0346(7) -0.0108(5) 0.0061(5) 0.0021(5)
O4 0.0521(8) 0.0218(6) 0.0420(7) -0.0067(5) -0.0099(6) -0.0126(6)
loop_
_atom_type_symbol
_atom_type_description
_atom_type_scat_dispersion_real
_atom_type_scat_dispersion_imag
_atom_type_scat_source
C C 0.0033 0.0016 'International Tables Vol C Tables 4.2.6.8 and 6.1.1.4'
H H 0.0000 0.0000 'International Tables Vol C Tables 4.2.6.8 and 6.1.1.4'
N N 0.0061 0.0033 'International Tables Vol C Tables 4.2.6.8 and 6.1.1.4'
O O 0.0106 0.0060 'International Tables Vol C Tables 4.2.6.8 and 6.1.1.4'
Mn Mn 0.3368 0.7283 'International Tables Vol C Tables 4.2.6.8 and 6.1.1.4'
Br Br -0.2901 2.4595 'International Tables Vol C Tables 4.2.6.8 and 6.1.1.4'
loop_
_geom_angle_atom_site_label_1
_geom_angle_atom_site_label_2
_geom_angle_atom_site_label_3
_geom_angle
N1 C1 C2 103.13(12)
N1 C1 H1A 111.1
C2 C1 H1A 111.1
N1 C1 H1B 111.1
C2 C1 H1B 111.1
H1A C1 H1B 109.1
O1 C2 C1 104.55(11)
O1 C2 H2A 110.8
C1 C2 H2A 110.8
O1 C2 H2B 110.8
C1 C2 H2B 110.8
H2A C2 H2B 108.9
N1 C3 O1 119.00(13)
N1 C3 C4 120.15(13)
O1 C3 C4 120.81(12)
N2 C4 C5 125.59(13)
N2 C4 C3 113.45(12)
C5 C4 C3 120.95(13)
C6 C5 C4 118.46(13)
C6 C5 H5 120.8
C4 C5 H5 120.8
C5 C6 C7 118.95(13)
C5 C6 H6 120.5
C7 C6 H6 120.5
C6 C7 C8 121.25(13)
C6 C7 C12 119.44(13)
C8 C7 C12 119.31(13)
C9 C8 C7 120.90(14)
C9 C8 H8 119.6
C7 C8 H8 119.6
C8 C9 C10 119.58(14)
C8 C9 H9 120.2
C10 C9 H9 120.2
C11 C10 C9 121.28(14)
C11 C10 H10 119.4
C9 C10 H10 119.4
C10 C11 C12 120.62(13)
C10 C11 H11 119.7
C12 C11 H11 119.7
N2 C12 C11 120.57(12)
N2 C12 C7 121.12(12)
C11 C12 C7 118.31(13)
O2 C13 Mn1 176.59(13)
O3 C14 Mn1 175.31(14)
O4 C15 Mn1 177.02(15)
C13 Mn1 C15 87.57(7)
C13 Mn1 C14 91.46(7)
C15 Mn1 C14 87.61(7)
C13 Mn1 N1 97.28(6)
C15 Mn1 N1 91.34(6)
C14 Mn1 N1 171.15(6)
C13 Mn1 N2 91.27(5)
C15 Mn1 N2 168.57(6)
C14 Mn1 N2 103.79(6)
N1 Mn1 N2 77.52(5)
C13 Mn1 Br1 177.95(5)
C15 Mn1 Br1 92.28(5)
C14 Mn1 Br1 86.50(5)
N1 Mn1 Br1 84.77(4)
N2 Mn1 Br1 89.29(3)
C3 N1 C1 107.82(12)
C3 N1 Mn1 116.62(10)
C1 N1 Mn1 134.41(10)
C4 N2 C12 116.43(12)
C4 N2 Mn1 112.02(9)
C12 N2 Mn1 131.54(9)
C3 O1 C2 105.19(11)
loop_
_geom_bond_atom_site_label_1
_geom_bond_atom_site_label_2
_geom_bond_distance
Br1 Mn1 2.5347(3)
C1 N1 1.4735(18)
C1 C2 1.539(2)
C1 H1A 0.9900
C1 H1B 0.9900
C2 O1 1.4747(18)
C2 H2A 0.9900
C2 H2B 0.9900
C3 N1 1.2732(19)
C3 O1 1.3357(17)
C3 C4 1.4600(19)
C4 N2 1.3374(18)
C4 C5 1.4030(19)
C5 C6 1.366(2)
C5 H5 0.9500
C6 C7 1.408(2)
C6 H6 0.9500
C7 C8 1.422(2)
C7 C12 1.4278(19)
C8 C9 1.364(2)
C8 H8 0.9500
C9 C10 1.407(2)
C9 H9 0.9500
C10 C11 1.373(2)
C10 H10 0.9500
C11 C12 1.412(2)
C11 H11 0.9500
C12 N2 1.3820(18)
C13 O2 1.1369(19)
C13 Mn1 1.8024(16)
C14 O3 1.149(2)
C14 Mn1 1.8143(16)
C15 O4 1.1433(19)
C15 Mn1 1.8036(15)
Mn1 N1 2.0155(12)
Mn1 N2 2.1898(12)
loop_
_geom_torsion_atom_site_label_1
_geom_torsion_atom_site_label_2
_geom_torsion_atom_site_label_3
_geom_torsion_atom_site_label_4
_geom_torsion
N1 C1 C2 O1 5.38(15)
N1 C3 C4 N2 4.51(19)
O1 C3 C4 N2 -173.32(12)
N1 C3 C4 C5 -175.77(13)
O1 C3 C4 C5 6.4(2)
N2 C4 C5 C6 -0.2(2)
C3 C4 C5 C6 -179.84(13)
C4 C5 C6 C7 -0.2(2)
C5 C6 C7 C8 179.95(14)
C5 C6 C7 C12 0.3(2)
C6 C7 C8 C9 -178.90(15)
C12 C7 C8 C9 0.7(2)
C7 C8 C9 C10 -0.6(2)
C8 C9 C10 C11 -0.1(2)
C9 C10 C11 C12 0.6(2)
C10 C11 C12 N2 179.02(14)
C10 C11 C12 C7 -0.5(2)
C6 C7 C12 N2 -0.1(2)
C8 C7 C12 N2 -179.69(13)
C6 C7 C12 C11 179.48(13)
C8 C7 C12 C11 -0.1(2)
O1 C3 N1 C1 2.55(18)
C4 C3 N1 C1 -175.31(13)
O1 C3 N1 Mn1 172.07(10)
C4 C3 N1 Mn1 -5.79(18)
C2 C1 N1 C3 -4.87(16)
C2 C1 N1 Mn1 -171.71(11)
C5 C4 N2 C12 0.4(2)
C3 C4 N2 C12 -179.88(12)
C5 C4 N2 Mn1 179.24(12)
C3 C4 N2 Mn1 -1.06(14)
C11 C12 N2 C4 -179.83(13)
C7 C12 N2 C4 -0.30(19)
C11 C12 N2 Mn1 1.6(2)
C7 C12 N2 Mn1 -178.84(10)
N1 C3 O1 C2 1.19(17)
C4 C3 O1 C2 179.04(13)
C1 C2 O1 C3 -4.15(15)
