#------------------------------------------------------------------------------
#$Date: 2019-10-28 09:25:04 +0200 (Mon, 28 Oct 2019) $
#$Revision: 219806 $
#$URL: file:///home/coder/svn-repositories/cod/cif/4/51/46/4514621.cif $
#------------------------------------------------------------------------------
#
# This file is available in the Crystallography Open Database (COD),
# http://www.crystallography.net/
#
# All data on this site have been placed in the public domain by the
# contributors.
#
data_4514621
loop_
_publ_author_name
'Yang, Hui'
'Wei, Guo'
'Jiang, Zhiyong'
_publ_section_title
;
 Access to Isoxazolidines through Visible-Light-Induced
 Difunctionalization of Alkenes
;
_journal_issue                   10
_journal_name_full               'ACS Catalysis'
_journal_page_first              9599
_journal_paper_doi               10.1021/acscatal.9b03567
_journal_volume                  9
_journal_year                    2019
_chemical_absolute_configuration ad
_chemical_formula_moiety         'C18 H16 N2 O3'
_chemical_formula_sum            'C18 H16 N2 O3'
_chemical_formula_weight         308.33
_space_group_crystal_system      monoclinic
_space_group_IT_number           7
_space_group_name_Hall           'P -2yc'
_space_group_name_H-M_alt        'P 1 c 1'
_symmetry_space_group_name_Hall  'P -2yc'
_symmetry_space_group_name_H-M   'P 1 c 1'
_atom_sites_solution_hydrogens   geom
_atom_sites_solution_primary     dual
_audit_creation_date             2017-12-12
_audit_creation_method
;
Olex2 1.2
(compiled 2017.08.10 svn.r3458 for OlexSys, GUI svn.r5381)
;
_cell_angle_alpha                90
_cell_angle_beta                 105.131(12)
_cell_angle_gamma                90
_cell_formula_units_Z            2
_cell_length_a                   11.4615(14)
_cell_length_b                   5.5002(6)
_cell_length_c                   12.6887(13)
_cell_measurement_reflns_used    1237
_cell_measurement_temperature    293(2)
_cell_measurement_theta_max      60.9860
_cell_measurement_theta_min      3.9930
_cell_volume                     772.17(16)
_computing_cell_refinement
;
CrysAlisPro, Agilent Technologies,
Version 1.171.37.35 (release 13-08-2014 CrysAlis171 .NET)
(compiled Aug 13 2014,18:06:01)
;
_computing_data_collection
;
CrysAlisPro, Agilent Technologies,
Version 1.171.37.35 (release 13-08-2014 CrysAlis171 .NET)
(compiled Aug 13 2014,18:06:01)
;
_computing_data_reduction
;
CrysAlisPro, Agilent Technologies,
Version 1.171.37.35 (release 13-08-2014 CrysAlis171 .NET)
(compiled Aug 13 2014,18:06:01)
;
_computing_molecular_graphics    'Olex2 (Dolomanov et al., 2009)'
_computing_publication_material  'Olex2 (Dolomanov et al., 2009)'
_computing_structure_refinement  'ShelXL (Sheldrick, 2015)'
_computing_structure_solution    'ShelXT (Sheldrick, 2015)'
_diffrn_ambient_temperature      293(2)
_diffrn_detector                 'CCD plate'
_diffrn_detector_area_resol_mean 16.2312
_diffrn_detector_type            Eos
_diffrn_measured_fraction_theta_full 1.000
_diffrn_measured_fraction_theta_max 1.000
_diffrn_measurement_details
;
#__ type_ start__ end____ width___ exp.time_
  1 omega  -49.00   37.00   1.0000    1.0000
omega____ theta____ kappa____ phi______ frames
    -      -33.5000   37.0000  -30.0000 86

#__ type_ start__ end____ width___ exp.time_
  2 omega -108.00  -32.00   1.0000    1.0000
omega____ theta____ kappa____ phi______ frames
    -      -33.5000  178.0000   60.0000 76

#__ type_ start__ end____ width___ exp.time_
  3 omega  -52.00   35.00   1.0000    1.0000
omega____ theta____ kappa____ phi______ frames
    -      -33.5000   57.0000   30.0000 87

#__ type_ start__ end____ width___ exp.time_
  4 omega   43.00  107.00   1.0000    1.0000
omega____ theta____ kappa____ phi______ frames
    -       36.4734   37.0000 -150.0000 64

#__ type_ start__ end____ width___ exp.time_
  5 omega    3.00   30.00   1.0000    1.0000
omega____ theta____ kappa____ phi______ frames
    -       36.4734  -57.0000  -90.0000 27

#__ type_ start__ end____ width___ exp.time_
  6 omega   -1.00   50.00   1.0000    1.0000
omega____ theta____ kappa____ phi______ frames
    -       36.4734  -99.0000  120.0000 51

#__ type_ start__ end____ width___ exp.time_
  7 omega   -4.00   75.00   1.0000    1.0000
omega____ theta____ kappa____ phi______ frames
    -       36.4734  -99.0000   60.0000 79

#__ type_ start__ end____ width___ exp.time_
  8 omega   34.00   62.00   1.0000    1.0000
omega____ theta____ kappa____ phi______ frames
    -       36.4734  -99.0000    0.0000 28

#__ type_ start__ end____ width___ exp.time_
  9 omega   51.00   99.00   1.0000    5.0000
omega____ theta____ kappa____ phi______ frames
    -      108.0000  -45.0000   30.0000 48

#__ type_ start__ end____ width___ exp.time_
 10 omega   62.00  136.00   1.0000    5.0000
omega____ theta____ kappa____ phi______ frames
    -      108.0000  178.0000  -30.0000 74

#__ type_ start__ end____ width___ exp.time_
 11 omega   46.00  106.00   1.0000    5.0000
omega____ theta____ kappa____ phi______ frames
    -      108.0000  -94.0000   60.0000 60

#__ type_ start__ end____ width___ exp.time_
 12 omega   93.00  156.00   1.0000    5.0000
omega____ theta____ kappa____ phi______ frames
    -      108.0000   45.0000  150.0000 63

#__ type_ start__ end____ width___ exp.time_
 13 omega   38.00   86.00   1.0000    5.0000
omega____ theta____ kappa____ phi______ frames
    -      108.0000  -45.0000 -150.0000 48

#__ type_ start__ end____ width___ exp.time_
 14 omega   44.00  115.00   1.0000    5.0000
omega____ theta____ kappa____ phi______ frames
    -      108.0000 -111.0000    0.0000 71

#__ type_ start__ end____ width___ exp.time_
 15 omega   40.00   91.00   1.0000    5.0000
omega____ theta____ kappa____ phi______ frames
    -      108.0000  -30.0000  120.0000 51

#__ type_ start__ end____ width___ exp.time_
 16 omega  142.00  174.00   1.0000    5.0000
omega____ theta____ kappa____ phi______ frames
    -      108.0000   61.0000  -60.0000 32

#__ type_ start__ end____ width___ exp.time_
 17 omega   91.00  127.00   1.0000    5.0000
omega____ theta____ kappa____ phi______ frames
    -      108.0000   61.0000  -60.0000 36

#__ type_ start__ end____ width___ exp.time_
 18 omega  -85.00  -59.00   1.0000    1.5000
omega____ theta____ kappa____ phi______ frames
    -      -33.5000  178.0000  120.0000 26

#__ type_ start__ end____ width___ exp.time_
 19 omega  -70.00  -44.00   1.0000    1.5000
omega____ theta____ kappa____ phi______ frames
    -      -33.5000  -57.0000  -90.0000 26

#__ type_ start__ end____ width___ exp.time_
 20 omega    5.00   31.00   1.0000    1.5000
omega____ theta____ kappa____ phi______ frames
    -      -33.5000   77.0000   90.0000 26

#__ type_ start__ end____ width___ exp.time_
 21 omega  -52.00  -25.00   1.0000    1.5000
omega____ theta____ kappa____ phi______ frames
    -      -33.5000   77.0000   90.0000 27

#__ type_ start__ end____ width___ exp.time_
 22 omega    9.00   71.00   1.0000    1.5000
omega____ theta____ kappa____ phi______ frames
    -       36.4734  -99.0000 -150.0000 62

#__ type_ start__ end____ width___ exp.time_
 23 omega   27.00   98.00   1.0000    1.5000
omega____ theta____ kappa____ phi______ frames
    -       36.4734   57.0000   30.0000 71

#__ type_ start__ end____ width___ exp.time_
 24 omega   36.00   62.00   1.0000    1.5000
omega____ theta____ kappa____ phi______ frames
    -       36.4734   57.0000   60.0000 26

#__ type_ start__ end____ width___ exp.time_
 25 omega  140.00  174.00   1.0000    4.5000
omega____ theta____ kappa____ phi______ frames
    -      108.0000  111.0000  150.0000 34

#__ type_ start__ end____ width___ exp.time_
 26 omega   83.00  109.00   1.0000    4.5000
omega____ theta____ kappa____ phi______ frames
    -      108.0000  -94.0000 -150.0000 26

#__ type_ start__ end____ width___ exp.time_
 27 omega  119.00  170.00   1.0000    4.5000
omega____ theta____ kappa____ phi______ frames
    -      108.0000  111.0000  -90.0000 51

#__ type_ start__ end____ width___ exp.time_
 28 omega   39.00   79.00   1.0000    4.5000
omega____ theta____ kappa____ phi______ frames
    -      108.0000 -111.0000  -30.0000 40

#__ type_ start__ end____ width___ exp.time_
 29 omega  121.00  174.00   1.0000    4.5000
omega____ theta____ kappa____ phi______ frames
    -      108.0000   61.0000 -180.0000 53

#__ type_ start__ end____ width___ exp.time_
 30 omega   82.00  107.00   1.0000    4.5000
omega____ theta____ kappa____ phi______ frames
    -      108.0000  -94.0000  120.0000 25

#__ type_ start__ end____ width___ exp.time_
 31 omega   76.00  102.00   1.0000    4.5000
omega____ theta____ kappa____ phi______ frames
    -      108.0000   15.0000  -30.0000 26

#__ type_ start__ end____ width___ exp.time_
 32 omega   49.00   76.00   1.0000    4.5000
omega____ theta____ kappa____ phi______ frames
    -      108.0000  -94.0000 -150.0000 27

#__ type_ start__ end____ width___ exp.time_
 33 omega  124.00  175.00   1.0000    4.5000
omega____ theta____ kappa____ phi______ frames
    -      108.0000   15.0000  -30.0000 51

#__ type_ start__ end____ width___ exp.time_
 34 omega   40.00   63.00   1.0000    4.5000
omega____ theta____ kappa____ phi______ frames
    -      108.0000  -30.0000    0.0000 23
;
_diffrn_measurement_device       'four-circle diffractometer'
_diffrn_measurement_device_type  'Xcalibur, Eos, Gemini'
_diffrn_measurement_method       '\w scans'
_diffrn_orient_matrix_UB_11      -0.0794927000
_diffrn_orient_matrix_UB_12      -0.2300327000
_diffrn_orient_matrix_UB_13      -0.0202959000
_diffrn_orient_matrix_UB_21      0.1134489000
_diffrn_orient_matrix_UB_22      -0.1595314000
_diffrn_orient_matrix_UB_23      0.0394549000
_diffrn_orient_matrix_UB_31      -0.0129184000
_diffrn_orient_matrix_UB_32      0.0137897000
_diffrn_orient_matrix_UB_33      0.1176153000
_diffrn_radiation_monochromator  graphite
_diffrn_radiation_probe          x-ray
_diffrn_radiation_type           CuK\a
_diffrn_radiation_wavelength     1.54184
_diffrn_reflns_av_R_equivalents  0.0308
_diffrn_reflns_av_unetI/netI     0.0366
_diffrn_reflns_Laue_measured_fraction_full 1.000
_diffrn_reflns_Laue_measured_fraction_max 1.000
_diffrn_reflns_limit_h_max       13
_diffrn_reflns_limit_h_min       -13
_diffrn_reflns_limit_k_max       6
_diffrn_reflns_limit_k_min       -6
_diffrn_reflns_limit_l_max       15
_diffrn_reflns_limit_l_min       -10
_diffrn_reflns_number            4791
_diffrn_reflns_point_group_measured_fraction_full 0.702
_diffrn_reflns_point_group_measured_fraction_max 0.702
_diffrn_reflns_theta_full        67.057
_diffrn_reflns_theta_max         67.057
_diffrn_reflns_theta_min         3.995
_diffrn_source                   'Enhance (Cu) X-ray Source'
_exptl_absorpt_coefficient_mu    0.748
_exptl_absorpt_correction_T_max  1.00000
_exptl_absorpt_correction_T_min  0.98023
_exptl_absorpt_correction_type   multi-scan
_exptl_absorpt_process_details
;
CrysAlisPro, Agilent Technologies,
Version 1.171.37.35 (release 13-08-2014 CrysAlis171 .NET)
(compiled Aug 13 2014,18:06:01)
Empirical absorption correction using spherical harmonics,
 implemented in SCALE3 ABSPACK scaling algorithm.
;
_exptl_crystal_colour            brown
_exptl_crystal_colour_primary    brown
_exptl_crystal_density_diffrn    1.326
_exptl_crystal_description       prism
_exptl_crystal_F_000             324
_exptl_crystal_size_max          0.18
_exptl_crystal_size_mid          0.12
_exptl_crystal_size_min          0.09
_refine_diff_density_max         0.105
_refine_diff_density_min         -0.143
_refine_diff_density_rms         0.029
_refine_ls_abs_structure_details
;
 Flack x determined using 388 quotients [(I+)-(I-)]/[(I+)+(I-)]
 (Parsons, Flack and Wagner, Acta Cryst. B69 (2013) 249-259).
;
_refine_ls_abs_structure_Flack   0.1(4)
_refine_ls_extinction_method     none
_refine_ls_goodness_of_fit_ref   1.081
_refine_ls_hydrogen_treatment    constr
_refine_ls_matrix_type           full
_refine_ls_number_parameters     215
_refine_ls_number_reflns         1934
_refine_ls_number_restraints     4
_refine_ls_restrained_S_all      1.084
_refine_ls_R_factor_all          0.0510
_refine_ls_R_factor_gt           0.0400
_refine_ls_shift/su_max          0.002
_refine_ls_shift/su_mean         0.000
_refine_ls_structure_factor_coef Fsqd
_refine_ls_weighting_details
'w=1/[\s^2^(Fo^2^)+(0.0392P)^2^+0.0472P] where P=(Fo^2^+2Fc^2^)/3'
_refine_ls_weighting_scheme      calc
_refine_ls_wR_factor_gt          0.0923
_refine_ls_wR_factor_ref         0.1018
_reflns_Friedel_coverage         0.400
_reflns_Friedel_fraction_full    0.402
_reflns_Friedel_fraction_max     0.402
_reflns_number_gt                1623
_reflns_number_total             1934
_reflns_threshold_expression     'I > 2\s(I)'
_iucr_refine_instructions_details
;

    wg888.res created by SHELXL-2014/7

TITL wg888_a.res in Pc
REM Old TITL wg888 in Pc #7
REM SHELXT solution in Pc
REM R1 0.136, Rweak 0.451, Alpha 0.002, Orientation as input
REM Flack x = 0.138 ( 0.308 ) from Parsons' quotients
REM Formula found by SHELXT: C19 N O3
CELL 1.54184 11.4615 5.5002 12.6887 90 105.131 90
ZERR 2 0.0014 0.0006 0.0013 0 0.012 0
LATT -1
SYMM +X,-Y,0.5+Z
SFAC C H N O
UNIT 36 32 4 6
DFIX 1.4 N2A O3A
DFIX 1.45 C13 N2A
EADP N2 N2A
EADP O3 O3A
 
L.S. 85 0 0
PLAN  20
MPLA C1 C2 C4 N1
MPLA C7 C8 C9 C10 C11 C12
MPLA C13 C14 C15 C16 C17 C18
BOND $H
list 4
conf
fmap 2
acta
REM <olex2.extras>
REM <HklSrc "%.\\wg888.hkl">
REM </olex2.extras>
 
WGHT    0.039200    0.047200
FVAR       1.00524   0.82641
C1    1    0.312925    0.260188    0.476468    11.00000    0.06043    0.05791 =
         0.05833   -0.00724    0.01704   -0.00423
C2    1    0.415143    0.291910    0.576604    11.00000    0.06739    0.06964 =
         0.05813    0.00048    0.00571   -0.00417
AFIX  23
H2A   2    0.454299    0.137637    0.600198    11.00000   -1.20000
H2B   2    0.386779    0.360804    0.635799    11.00000   -1.20000
AFIX   0
C3    1    0.501433    0.466021    0.541224    11.00000    0.05737    0.06369 =
         0.06143   -0.01145    0.00531   -0.00604
C4    1    0.423767    0.587153    0.438757    11.00000    0.05698    0.05873 =
         0.06422   -0.00623    0.00990   -0.00942
C5    1    0.612277    0.344204    0.515339    11.00000    0.07375    0.06463 =
         0.07500   -0.01182    0.02043    0.00478
AFIX  23
H5A   2    0.608242    0.168645    0.520741    11.00000   -1.20000
H5B   2    0.618027    0.387221    0.442728    11.00000   -1.20000
AFIX   0
C6    1    0.717732    0.445406    0.601719    11.00000    0.06397    0.05906 =
         0.07337    0.00039    0.02180    0.00772
PART 1
AFIX  23
H6AA  2    0.736015    0.345373    0.666937    21.00000   -1.20000
H6AB  2    0.789331    0.459029    0.574881    21.00000   -1.20000
AFIX  23
PART 0
PART 2
H6BC  2    0.771461    0.315963    0.636765   -21.00000   -1.20000
H6BD  2    0.763167    0.560318    0.570085   -21.00000   -1.20000
AFIX   0
PART 0
C7    1    0.238190    0.464640    0.296608    11.00000    0.05503    0.05412 =
         0.05098   -0.00337    0.00698   -0.01109
C8    1    0.235682    0.291804    0.217751    11.00000    0.07603    0.06282 =
         0.06293   -0.01360    0.01494   -0.00438
AFIX  43
H8    2    0.287615    0.159001    0.232733    11.00000   -1.20000
AFIX   0
C9    1    0.155490    0.316830    0.116138    11.00000    0.09019    0.07784 =
         0.05925   -0.01991    0.01633   -0.01663
AFIX  43
H9    2    0.152406    0.198876    0.062966    11.00000   -1.20000
AFIX   0
C10   1    0.080540    0.514429    0.093338    11.00000    0.08510    0.08100 =
         0.06123    0.00142    0.00299   -0.02697
AFIX  43
H10   2    0.028356    0.533200    0.024155    11.00000   -1.20000
AFIX   0
C11   1    0.082587    0.685358    0.173076    11.00000    0.08064    0.06594 =
         0.07453    0.00504   -0.00302   -0.00197
AFIX  43
H11   2    0.030370    0.817724    0.158168    11.00000   -1.20000
AFIX   0
C12   1    0.161932    0.660857    0.275116    11.00000    0.07757    0.05866 =
         0.06265   -0.01108    0.00590   -0.00376
AFIX  43
H12   2    0.163615    0.776696    0.328883    11.00000   -1.20000
AFIX   0
C13   1    0.733527    0.795991    0.725041    11.00000    0.05336    0.06193 =
         0.06286   -0.00294    0.00081   -0.00088
C14   1    0.672999    0.936597    0.783214    11.00000    0.05852    0.06715 =
         0.05478   -0.00010    0.00687   -0.00499
AFIX  43
H14   2    0.589027    0.943733    0.762355    11.00000   -1.20000
AFIX   0
C15   1    0.736923    1.066926    0.872462    11.00000    0.08415    0.08054 =
         0.06594   -0.01411    0.01498   -0.01724
AFIX  43
H15   2    0.695650    1.161306    0.911751    11.00000   -1.20000
AFIX   0
C16   1    0.860180    1.058845    0.903745    11.00000    0.08532    0.09836 =
         0.07478   -0.01018   -0.00291   -0.03527
AFIX  43
H16   2    0.902603    1.150065    0.963145    11.00000   -1.20000
AFIX   0
C17   1    0.920741    0.917544    0.848067    11.00000    0.05501    0.11046 =
         0.09418    0.01065   -0.01263   -0.01481
AFIX  43
H17   2    1.004585    0.908310    0.871160    11.00000   -1.20000
AFIX   0
C18   1    0.859150    0.786917    0.757251    11.00000    0.05263    0.08758 =
         0.09732   -0.01044    0.00623   -0.00346
AFIX  43
H18   2    0.901326    0.694094    0.718201    11.00000   -1.20000
AFIX   0
N1    3    0.322284    0.439951    0.401152    11.00000    0.05842    0.05525 =
         0.05429   -0.00513    0.00861   -0.00957
PART 1
N2    3    0.672680    0.685682    0.622685    21.00000    0.04956    0.05514 =
         0.05678    0.00123    0.00584    0.00201
PART 0
PART 2
N2A   3    0.663275    0.566693    0.680223   -21.00000    0.04956    0.05514 =
         0.05678    0.00123    0.00584    0.00201
PART 0
O1    4    0.233650    0.110490    0.460582    11.00000    0.07334    0.07059 =
         0.06966   -0.00311    0.01515   -0.02039
O2    4    0.444817    0.767507    0.393887    11.00000    0.07299    0.06957 =
         0.09635    0.01251    0.00054   -0.01875
PART 1
O3    4    0.550962    0.644816    0.626062    21.00000    0.04573    0.08029 =
         0.08258   -0.03625    0.00352   -0.00412
PART 0
PART 2
O3A   4    0.544138    0.610088    0.619772   -21.00000    0.04573    0.08029 =
         0.08258   -0.03625    0.00352   -0.00412
HKLF 4
 
REM  wg888_a.res in Pc
REM R1 =  0.0400 for    1623 Fo > 4sig(Fo)  and  0.0510 for all    1934 data
REM    215 parameters refined using      4 restraints
 
END  
     
WGHT      0.0392      0.0472 

REM Highest difference peak  0.105,  deepest hole -0.143,  1-sigma level  0.029
Q1    1   1.0576  0.8690  0.8093  11.00000  0.05    0.11
Q2    1   0.4599  0.3841  0.3220  11.00000  0.05    0.10
Q3    1   0.2136  0.4985  0.4628  11.00000  0.05    0.10
Q4    1   0.5546  0.4947  0.3486  11.00000  0.05    0.09
Q5    1   0.9722  1.2773  0.9181  11.00000  0.05    0.09
Q6    1   0.5135  0.3989  0.7442  11.00000  0.05    0.08
Q7    1   0.7131  0.0607  0.5740  11.00000  0.05    0.08
Q8    1   0.7328  0.7853  0.5788  11.00000  0.05    0.08
Q9    1   0.4814  1.1307  0.7366  11.00000  0.05    0.08
Q10   1   0.5142  0.7428  0.7668  11.00000  0.05    0.08
Q11   1   0.8330  0.6641  0.8048  11.00000  0.05    0.08
Q12   1   0.6357  0.4890  0.4305  11.00000  0.05    0.08
Q13   1   1.0697  1.1285  0.9397  11.00000  0.05    0.08
Q14   1   0.9626  0.5565  0.7745  11.00000  0.05    0.08
Q15   1   0.3772  0.4912  0.6432  11.00000  0.05    0.08
Q16   1  -0.0257  0.6245 -0.0374  11.00000  0.05    0.08
Q17   1   0.4911  0.1997  0.3808  11.00000  0.05    0.08
Q18   1   0.4241  0.1954  0.6215  11.00000  0.05    0.07
Q19   1   0.7096  0.7531  0.7761  11.00000  0.05    0.07
Q20   1   0.5830  0.7024  0.5863  11.00000  0.05    0.07

  REM The information below was added by Olex2.
  REM
  REM R1 = 0.0400 for 1623 Fo > 4sig(Fo) and 0.0510 for all 5147 data
  REM n/a parameters refined using n/a restraints
  REM Highest difference peak 0.11, deepest hole -0.14
  REM Mean Shift 0, Max Shift 0.002.

  REM +++ Tabular Listing of Refinement Information +++
  REM R1_all = 0.0510
  REM R1_gt = 0.0400
  REM wR_ref = 0.1018
  REM GOOF = 1.081
  REM Shift_max = 0.002
  REM Shift_mean = 0
  REM Reflections_all = 5147
  REM Reflections_gt = 1623
  REM Parameters = n/a
  REM Hole = -0.14
  REM Peak = 0.11
  REM Flack = 0.1(4)

  
;
_cod_data_source_file            cs9b03567_si_002.cif
_cod_data_source_block           wg888
_cod_database_code               4514621
_shelx_shelxl_version_number     2014/7
_chemical_oxdiff_formula         C20H56N2O2
_shelx_space_group_comment
;
The symmetry employed for this shelxl refinement is uniquely defined
by the following loop, which should always be used as a source of
symmetry information in preference to the above space-group names.
They are only intended as comments.
;
_reflns_odcompleteness_completeness 100.00
_reflns_odcompleteness_iscentric 1
_reflns_odcompleteness_theta     66.97
_olex2_refinement_description
;
1. Fixed Uiso
 At 1.2 times of:
  All C(H) groups, All C(H,H) groups, All C(H,H,H,H) groups
2. Restrained distances
 N2A-O3A
 1.4 with sigma of 0.02
 C13-N2A
 1.45 with sigma of 0.02
3. Uiso/Uaniso restraints and constraints
Uanis(N2) = Uanis(N2A)
Uanis(O3) = Uanis(O3A)
4. Others
 Sof(H6BC)=Sof(H6BD)=Sof(N2A)=Sof(O3A)=1-FVAR(1)
 Sof(H6AA)=Sof(H6AB)=Sof(N2)=Sof(O3)=FVAR(1)
5.a Secondary CH2 refined with riding coordinates:
 C2(H2A,H2B), C5(H5A,H5B), C6(H6AA,H6AB), C6(H6BC,H6BD)
5.b Aromatic/amide H refined with riding coordinates:
 C8(H8), C9(H9), C10(H10), C11(H11), C12(H12), C14(H14), C15(H15), C16(H16),
 C17(H17), C18(H18)
;
_olex2_submission_special_instructions 'No special instructions were received'
loop_
_space_group_symop_operation_xyz
'x, y, z'
'x, -y, z+1/2'
loop_
_atom_site_label
_atom_site_type_symbol
_atom_site_fract_x
_atom_site_fract_y
_atom_site_fract_z
_atom_site_U_iso_or_equiv
_atom_site_adp_type
_atom_site_occupancy
_atom_site_site_symmetry_order
_atom_site_calc_flag
_atom_site_refinement_flags_posn
_atom_site_refinement_flags_occupancy
_atom_site_disorder_assembly
_atom_site_disorder_group
C1 C 0.3129(4) 0.2602(8) 0.4765(3) 0.0586(9) Uani 1 1 d . . . .
C2 C 0.4151(4) 0.2919(8) 0.5766(4) 0.0670(11) Uani 1 1 d . . . .
H2A H 0.4543 0.1376 0.6002 0.080 Uiso 1 1 calc R . . .
H2B H 0.3868 0.3608 0.6358 0.080 Uiso 1 1 calc R . . .
C3 C 0.5014(4) 0.4660(8) 0.5412(4) 0.0627(10) Uani 1 1 d . . . .
C4 C 0.4238(4) 0.5872(8) 0.4388(3) 0.0611(10) Uani 1 1 d . . . .
C5 C 0.6123(4) 0.3442(8) 0.5153(4) 0.0709(11) Uani 1 1 d . . . .
H5A H 0.6082 0.1686 0.5207 0.085 Uiso 1 1 calc R . . .
H5B H 0.6180 0.3872 0.4427 0.085 Uiso 1 1 calc R . . .
C6 C 0.7177(4) 0.4454(7) 0.6017(4) 0.0647(10) Uani 1 1 d . . . .
H6AA H 0.7360 0.3454 0.6669 0.078 Uiso 0.826(6) 1 calc R P A 1
H6AB H 0.7893 0.4590 0.5749 0.078 Uiso 0.826(6) 1 calc R P A 1
H6BC H 0.7715 0.3160 0.6368 0.078 Uiso 0.174(6) 1 calc R P A 2
H6BD H 0.7632 0.5603 0.5701 0.078 Uiso 0.174(6) 1 calc R P A 2
C7 C 0.2382(3) 0.4646(7) 0.2966(3) 0.0547(9) Uani 1 1 d . . . .
C8 C 0.2357(4) 0.2918(8) 0.2178(4) 0.0679(11) Uani 1 1 d . . . .
H8 H 0.2876 0.1590 0.2327 0.081 Uiso 1 1 calc R . . .
C9 C 0.1555(5) 0.3168(9) 0.1161(4) 0.0764(13) Uani 1 1 d . . . .
H9 H 0.1524 0.1989 0.0630 0.092 Uiso 1 1 calc R . . .
C10 C 0.0805(5) 0.5144(10) 0.0933(4) 0.0788(14) Uani 1 1 d . . . .
H10 H 0.0284 0.5332 0.0242 0.095 Uiso 1 1 calc R . . .
C11 C 0.0826(5) 0.6854(9) 0.1731(4) 0.0780(14) Uani 1 1 d . . . .
H11 H 0.0304 0.8177 0.1582 0.094 Uiso 1 1 calc R . . .
C12 C 0.1619(4) 0.6609(8) 0.2751(4) 0.0686(11) Uani 1 1 d . . . .
H12 H 0.1636 0.7767 0.3289 0.082 Uiso 1 1 calc R . . .
C13 C 0.7335(4) 0.7960(7) 0.7250(4) 0.0621(10) Uani 1 1 d D . . .
C14 C 0.6730(4) 0.9366(8) 0.7832(3) 0.0616(10) Uani 1 1 d . . . .
H14 H 0.5890 0.9437 0.7624 0.074 Uiso 1 1 calc R . . .
C15 C 0.7369(5) 1.0669(9) 0.8725(4) 0.0777(13) Uani 1 1 d . . . .
H15 H 0.6957 1.1613 0.9118 0.093 Uiso 1 1 calc R . . .
C16 C 0.8602(5) 1.0588(11) 0.9037(4) 0.0906(16) Uani 1 1 d . . . .
H16 H 0.9026 1.1501 0.9631 0.109 Uiso 1 1 calc R . . .
C17 C 0.9207(5) 0.9175(11) 0.8481(5) 0.0925(16) Uani 1 1 d . . . .
H17 H 1.0046 0.9083 0.8712 0.111 Uiso 1 1 calc R . . .
C18 C 0.8592(4) 0.7869(10) 0.7573(5) 0.0817(14) Uani 1 1 d . . . .
H18 H 0.9013 0.6941 0.7182 0.098 Uiso 1 1 calc R . . .
N1 N 0.3223(3) 0.4400(6) 0.4012(3) 0.0571(8) Uani 1 1 d . . . .
N2 N 0.6727(3) 0.6857(7) 0.6227(3) 0.0553(11) Uani 0.826(6) 1 d . P A 1
N2A N 0.6633(16) 0.567(3) 0.6802(16) 0.0553(11) Uani 0.174(6) 1 d D P A 2
O1 O 0.2336(3) 0.1105(5) 0.4606(3) 0.0718(8) Uani 1 1 d . . . .
O2 O 0.4448(3) 0.7675(6) 0.3939(3) 0.0837(10) Uani 1 1 d . . . .
O3 O 0.5510(11) 0.645(3) 0.626(2) 0.072(2) Uani 0.826(6) 1 d . P A 1
O3A O 0.544(6) 0.610(19) 0.620(12) 0.072(2) Uani 0.174(6) 1 d D P A 2
loop_
_atom_site_aniso_label
_atom_site_aniso_U_11
_atom_site_aniso_U_22
_atom_site_aniso_U_33
_atom_site_aniso_U_23
_atom_site_aniso_U_13
_atom_site_aniso_U_12
C1 0.060(2) 0.058(2) 0.058(2) -0.0072(18) 0.0170(18) -0.0042(19)
C2 0.067(3) 0.070(3) 0.058(2) 0.000(2) 0.006(2) -0.004(2)
C3 0.057(2) 0.064(2) 0.061(2) -0.011(2) 0.0053(18) -0.0060(19)
C4 0.057(2) 0.059(2) 0.064(2) -0.006(2) 0.0099(19) -0.009(2)
C5 0.074(3) 0.065(3) 0.075(3) -0.012(2) 0.020(2) 0.005(2)
C6 0.064(2) 0.059(2) 0.073(3) 0.000(2) 0.022(2) 0.008(2)
C7 0.055(2) 0.054(2) 0.051(2) -0.0034(17) 0.0070(17) -0.0111(18)
C8 0.076(3) 0.063(2) 0.063(3) -0.014(2) 0.015(2) -0.004(2)
C9 0.090(3) 0.078(3) 0.059(2) -0.020(2) 0.016(2) -0.017(3)
C10 0.085(3) 0.081(3) 0.061(3) 0.001(2) 0.003(2) -0.027(3)
C11 0.081(3) 0.066(3) 0.075(3) 0.005(2) -0.003(2) -0.002(2)
C12 0.078(3) 0.059(2) 0.063(2) -0.011(2) 0.006(2) -0.004(2)
C13 0.053(2) 0.062(2) 0.063(2) -0.0029(19) 0.0008(18) -0.0009(19)
C14 0.059(2) 0.067(2) 0.055(2) -0.0001(19) 0.0069(18) -0.0050(19)
C15 0.084(3) 0.081(3) 0.066(3) -0.014(2) 0.015(2) -0.017(3)
C16 0.085(4) 0.098(4) 0.075(3) -0.010(3) -0.003(3) -0.035(3)
C17 0.055(3) 0.110(4) 0.094(4) 0.011(3) -0.013(2) -0.015(3)
C18 0.053(2) 0.088(4) 0.097(4) -0.010(3) 0.006(2) -0.003(2)
N1 0.0584(17) 0.0552(17) 0.0543(17) -0.0051(15) 0.0086(14) -0.0096(15)
N2 0.050(2) 0.055(2) 0.057(2) 0.0012(17) 0.0058(17) 0.0020(17)
N2A 0.050(2) 0.055(2) 0.057(2) 0.0012(17) 0.0058(17) 0.0020(17)
O1 0.0733(19) 0.0706(18) 0.0697(18) -0.0031(15) 0.0152(15) -0.0204(16)
O2 0.073(2) 0.070(2) 0.096(2) 0.0125(17) 0.0005(17) -0.0187(17)
O3 0.046(2) 0.080(7) 0.083(4) -0.036(5) 0.0035(18) -0.004(3)
O3A 0.046(2) 0.080(7) 0.083(4) -0.036(5) 0.0035(18) -0.004(3)
loop_
_atom_type_symbol
_atom_type_description
_atom_type_scat_dispersion_real
_atom_type_scat_dispersion_imag
_atom_type_scat_source
C C 0.0181 0.0091 'International Tables Vol C Tables 4.2.6.8 and 6.1.1.4'
H H 0.0000 0.0000 'International Tables Vol C Tables 4.2.6.8 and 6.1.1.4'
N N 0.0311 0.0180 'International Tables Vol C Tables 4.2.6.8 and 6.1.1.4'
O O 0.0492 0.0322 'International Tables Vol C Tables 4.2.6.8 and 6.1.1.4'
loop_
_geom_angle_atom_site_label_1
_geom_angle_atom_site_label_2
_geom_angle_atom_site_label_3
_geom_angle
N1 C1 C2 108.4(3)
O1 C1 C2 127.7(4)
O1 C1 N1 123.9(4)
C1 C2 H2A 110.9
C1 C2 H2B 110.9
C1 C2 C3 104.3(3)
H2A C2 H2B 108.9
C3 C2 H2A 110.9
C3 C2 H2B 110.9
C2 C3 C5 115.0(4)
C4 C3 C2 104.3(3)
C4 C3 C5 109.7(4)
O3 C3 C2 111.3(13)
O3 C3 C4 111.3(9)
O3 C3 C5 105.4(8)
O3A C3 C2 108(8)
O3A C3 C4 115(5)
O3A C3 C5 106(4)
N1 C4 C3 106.7(3)
O2 C4 C3 128.4(4)
O2 C4 N1 124.8(4)
C3 C5 H5A 111.1
C3 C5 H5B 111.1
H5A C5 H5B 109.0
C6 C5 C3 103.4(3)
C6 C5 H5A 111.1
C6 C5 H5B 111.1
C5 C6 H6AA 111.3
C5 C6 H6AB 111.3
C5 C6 H6BC 110.7
C5 C6 H6BD 110.7
H6AA C6 H6AB 109.2
H6BC C6 H6BD 108.8
N2 C6 C5 102.2(3)
N2 C6 H6AA 111.3
N2 C6 H6AB 111.3
N2A C6 C5 105.0(7)
N2A C6 H6BC 110.7
N2A C6 H6BD 110.7
C8 C7 N1 119.4(4)
C12 C7 C8 120.6(4)
C12 C7 N1 120.0(3)
C7 C8 H8 120.2
C7 C8 C9 119.5(4)
C9 C8 H8 120.2
C8 C9 H9 119.9
C10 C9 C8 120.3(4)
C10 C9 H9 119.9
C9 C10 H10 120.1
C9 C10 C11 119.8(4)
C11 C10 H10 120.1
C10 C11 H11 119.9
C10 C11 C12 120.2(5)
C12 C11 H11 119.9
C7 C12 C11 119.5(4)
C7 C12 H12 120.2
C11 C12 H12 120.2
C14 C13 C18 119.4(4)
C14 C13 N2 121.9(4)
C14 C13 N2A 112.0(8)
C18 C13 N2 118.1(4)
C18 C13 N2A 119.0(8)
C13 C14 H14 120.0
C13 C14 C15 119.9(4)
C15 C14 H14 120.0
C14 C15 H15 119.7
C16 C15 C14 120.7(5)
C16 C15 H15 119.7
C15 C16 H16 120.0
C17 C16 C15 119.9(5)
C17 C16 H16 120.0
C16 C17 H17 119.6
C16 C17 C18 120.8(5)
C18 C17 H17 119.6
C13 C18 H18 120.3
C17 C18 C13 119.3(5)
C17 C18 H18 120.3
C1 N1 C7 123.3(3)
C4 N1 C1 112.5(3)
C4 N1 C7 124.2(3)
C13 N2 C6 115.6(3)
O3 N2 C6 104.9(7)
O3 N2 C13 106.7(10)
C6 N2A C13 110.7(12)
O3A N2A C6 103(6)
O3A N2A C13 114(4)
N2 O3 C3 106.2(17)
C3 O3A N2A 116(7)
loop_
_geom_bond_atom_site_label_1
_geom_bond_atom_site_label_2
_geom_bond_distance
C1 C2 1.497(6)
C1 N1 1.399(5)
C1 O1 1.204(5)
C2 H2A 0.9700
C2 H2B 0.9700
C2 C3 1.526(6)
C3 C4 1.524(6)
C3 C5 1.546(6)
C3 O3 1.459(18)
C3 O3A 1.27(10)
C4 N1 1.395(5)
C4 O2 1.199(5)
C5 H5A 0.9700
C5 H5B 0.9700
C5 C6 1.510(6)
C6 H6AA 0.9700
C6 H6AB 0.9700
C6 H6BC 0.9700
C6 H6BD 0.9700
C6 N2 1.468(5)
C6 N2A 1.47(2)
C7 C8 1.375(5)
C7 C12 1.371(6)
C7 N1 1.428(4)
C8 H8 0.9300
C8 C9 1.381(6)
C9 H9 0.9300
C9 C10 1.369(7)
C10 H10 0.9300
C10 C11 1.377(7)
C11 H11 0.9300
C11 C12 1.381(6)
C12 H12 0.9300
C13 C14 1.375(6)
C13 C18 1.391(6)
C13 N2 1.438(5)
C13 N2A 1.524(15)
C14 H14 0.9300
C14 C15 1.378(6)
C15 H15 0.9300
C15 C16 1.365(7)
C16 H16 0.9300
C16 C17 1.357(8)
C17 H17 0.9300
C17 C18 1.385(7)
C18 H18 0.9300
N2 O3 1.42(2)
N2A O3A 1.40(3)
loop_
_geom_torsion_atom_site_label_1
_geom_torsion_atom_site_label_2
_geom_torsion_atom_site_label_3
_geom_torsion_atom_site_label_4
_geom_torsion
C1 C2 C3 C4 19.1(5)
C1 C2 C3 C5 -101.1(4)
C1 C2 C3 O3 139.1(6)
C1 C2 C3 O3A 141(3)
C2 C1 N1 C4 2.0(5)
C2 C1 N1 C7 -179.3(4)
C2 C3 C4 N1 -18.4(4)
C2 C3 C4 O2 164.6(5)
C2 C3 C5 C6 -115.3(4)
C2 C3 O3 N2 143.7(12)
C2 C3 O3A N2A 104(11)
C3 C4 N1 C1 10.6(5)
C3 C4 N1 C7 -168.1(4)
C3 C5 C6 N2 -29.8(4)
C3 C5 C6 N2A 11.5(9)
C4 C3 C5 C6 127.6(4)
C4 C3 O3 N2 -100.5(10)
C4 C3 O3A N2A -140(9)
C5 C3 C4 N1 105.2(4)
C5 C3 C4 O2 -71.8(6)
C5 C3 O3 N2 18.4(16)
C5 C3 O3A N2A -19(13)
C5 C6 N2 C13 159.9(4)
C5 C6 N2 O3 42.6(12)
C5 C6 N2A C13 -143.8(9)
C5 C6 N2A O3A -21(6)
C6 N2 O3 C3 -38.7(16)
C6 N2A O3A C3 27(13)
C7 C8 C9 C10 1.2(7)
C8 C7 C12 C11 -0.4(7)
C8 C7 N1 C1 -69.8(5)
C8 C7 N1 C4 108.7(5)
C8 C9 C10 C11 -1.9(8)
C9 C10 C11 C12 1.5(7)
C10 C11 C12 C7 -0.3(7)
C12 C7 C8 C9 0.0(7)
C12 C7 N1 C1 111.0(5)
C12 C7 N1 C4 -70.5(5)
C13 C14 C15 C16 0.2(8)
C13 N2 O3 C3 -161.8(11)
C13 N2A O3A C3 147(9)
C14 C13 C18 C17 0.7(8)
C14 C13 N2 C6 -144.8(4)
C14 C13 N2 O3 -28.6(10)
C14 C13 N2A C6 169.0(9)
C14 C13 N2A O3A 53(8)
C14 C15 C16 C17 -1.3(9)
C15 C16 C17 C18 2.2(9)
C16 C17 C18 C13 -1.9(9)
C18 C13 C14 C15 0.1(7)
C18 C13 N2 C6 44.3(6)
C18 C13 N2 O3 160.5(10)
C18 C13 N2A C6 -44.9(15)
C18 C13 N2A O3A -161(8)
N1 C1 C2 C3 -13.6(5)
N1 C7 C8 C9 -179.2(4)
N1 C7 C12 C11 178.8(4)
N2 C13 C14 C15 -170.7(4)
N2 C13 C18 C17 171.9(5)
N2A C13 C14 C15 145.9(9)
N2A C13 C18 C17 -142.8(10)
O1 C1 C2 C3 167.2(4)
O1 C1 N1 C4 -178.8(4)
O1 C1 N1 C7 -0.1(6)
O2 C4 N1 C1 -172.3(4)
O2 C4 N1 C7 9.1(7)
O3 C3 C4 N1 -138.5(12)
O3 C3 C4 O2 44.5(13)
O3 C3 C5 C6 7.6(13)
O3A C3 C4 N1 -136(7)
O3A C3 C4 O2 47(7)
O3A C3 C5 C6 4(7)
loop_
_refln_index_h
_refln_index_k
_refln_index_l
_refln_F_squared_meas
_refln_F_squared_sigma
-13 0 4 1.11 0.93
-13 0 5 -0.84 0.89
-13 0 6 2.13 1.14
-13 0 6 1.86 0.95
-13 0 7 -1.03 0.68
-13 0 7 -0.48 0.86
-13 0 8 1.99 0.78
-13 0 8 0.13 0.82
-13 1 5 1.87 1
-13 -1 6 1.38 0.81
-13 1 6 0.01 0.85
-13 -1 7 0.66 0.71
-13 1 7 0.83 0.85
-13 2 4 2.6 1.04
-12 0 -3 1.02 0.79
-12 0 5 -0.21 0.98
-12 0 6 -1.65 1.19
-12 0 7 -0.24 0.89
-12 0 7 -0.51 1.08
-12 0 8 1.29 1.17
-12 0 8 0.92 0.85
-12 0 9 0.44 0.75
-12 0 9 0.07 0.91
-12 0 10 1.15 0.95
-12 0 10 1.2 0.77
-12 -1 -3 8.6 1.45
-12 -1 -2 4.51 1.24
-12 -1 -1 2.29 1.11
-12 1 3 3.16 1.32
-12 1 4 4.66 1.63
-12 1 5 0.93 1.11
-12 -1 6 0.84 0.97
-12 1 6 -0.26 0.95
-12 1 6 -0.26 0.91
-12 1 7 3.75 1.34
-12 1 7 2.43 1.2
-12 -1 7 4.27 1.29
-12 -1 7 3.25 1.24
-12 1 8 12.89 2.06
-12 -1 8 10.24 1.8
-12 -1 8 12.07 1.97
-12 1 8 8.58 1.76
-12 -1 9 0.48 0.85
-12 1 9 1.94 1.11
-12 -1 9 3.62 1.13
-12 -1 10 5.25 1.27
-12 1 10 4.52 1.17
-12 -1 10 4.71 1.16
-12 -2 -1 4.26 1.14
-12 -2 0 5.73 1.23
-12 -2 1 0.74 0.95
-12 2 3 2.02 1.03
-12 2 4 2.97 1.19
-12 2 5 1.47 1.09
-12 2 6 0.91 1.04
-12 2 6 -1.12 0.97
-12 2 7 -0.56 0.9
-12 2 7 -0.49 0.97
-12 -2 7 0.24 0.74
-12 -2 8 10.9 1.71
-12 2 8 13.71 1.92
-12 -3 2 6.22 1.29
-12 3 3 1.41 0.8
-12 3 4 -0.2 0.77
-12 3 4 0.43 0.83
-12 3 5 2.97 1.06
-12 -3 5 1.41 0.74
-11 0 -5 0.33 0.79
-11 0 -4 16.98 2.23
-11 0 -3 -1 1.04
-11 0 -2 5.77 1.69
-11 0 3 -0.31 1.12
-11 0 4 40.95 3.93
-11 0 5 -0.9 1.19
-11 0 6 6.97 2.02
-11 0 6 6.02 1.76
-11 0 7 0.5 0.91
-11 0 7 -0.43 1.05
-11 0 8 15.66 2.4
-11 0 8 13.07 2.41
-11 0 9 -0.77 0.83
-11 0 9 0.06 1.05
-11 0 10 7.6 1.7
-11 0 10 5.01 1.44
-11 0 11 0.34 0.84
-11 0 11 -0.64 0.69
-11 1 -5 -0.29 0.8
-11 -1 -5 -0.25 0.82
-11 -1 -4 1.93 1.13
-11 -1 -3 2.8 1.34
-11 -1 -2 14.68 2.27
-11 -1 -1 2.14 1.36
-11 -1 0 16.85 2.5
-11 1 2 4.15 1.58
-11 1 3 3.97 1.62
-11 1 4 5.28 1.75
-11 1 5 1.29 1.07
-11 -1 5 0.65 0.94
-11 1 6 24.66 3.04
-11 -1 6 32.71 3.57
-11 -1 7 0.3 0.94
-11 1 7 -0.22 1.15
-11 1 7 2.29 1.35
-11 1 8 2.93 1.35
-11 -1 8 4.22 1.6
-11 1 8 1.37 1.2
-11 -1 8 3.05 1.26
-11 1 9 7.53 1.75
-11 -1 9 7.43 1.7
-11 1 9 5.31 1.58
-11 -1 9 6.08 1.63
-11 -1 10 0.62 0.96
-11 1 10 2.08 1.05
-11 -1 10 -0.94 0.91
-11 1 10 0.57 0.96
-11 1 11 8.02 1.57
-11 -1 11 8.36 1.53
-11 -2 -4 -0.92 0.97
-11 -2 -3 2.42 1.19
-11 -2 -2 1.14 1.03
-11 -2 -1 -0.32 1.11
-11 -2 0 1.35 1.13
-11 -2 1 3.08 1.27
-11 -2 2 18.51 2.41
-11 2 2 12.07 2.1
-11 2 3 9.01 1.97
-11 2 4 -0.02 1.03
-11 2 5 2.29 1.34
-11 2 6 7.47 1.93
-11 2 6 8.09 1.81
-11 2 7 2.75 1.25
-11 2 7 0.24 1.05
-11 -2 7 0.81 0.82
-11 -2 8 25.75 2.85
-11 2 8 23.61 2.83
-11 2 8 32.56 3.13
-11 -2 9 0.61 0.84
-11 2 9 0.5 0.76
-11 2 9 1.59 0.95
-11 -2 10 1.16 0.89
-11 2 10 -0.42 0.71
-11 2 10 -0.05 0.68
-11 -3 -2 0.94 0.87
-11 -3 -1 4.5 1.38
-11 -3 0 0.56 0.83
-11 -3 1 1.69 0.88
-11 -3 2 1.86 1.02
-11 -3 3 1.48 1.02
-11 3 3 -0.59 0.99
-11 3 4 5.91 1.54
-11 3 5 -0.48 0.79
-11 3 5 1.02 1.11
-11 -3 6 -1.09 0.78
-11 3 6 0.04 0.63
-11 -3 7 -1.7 0.89
-11 3 7 -1.5 1.06
-11 3 8 2.99 1.09
-11 -3 8 4.43 1.09
-10 0 -7 -0.41 0.9
-10 0 1 -1.02 1.16
-10 0 2 15.06 2.67
-10 0 3 -0.21 1.13
-10 0 4 1.66 1.31
-10 0 5 1.27 1.5
-10 0 6 52.86 4.49
-10 0 7 1.06 1.12
-10 0 7 2.56 1.61
-10 0 8 48.82 4.25
-10 0 8 43.24 4.23
-10 0 8 51.18 4.39
-10 0 9 0.85 1.22
-10 0 9 0.46 1
-10 0 9 0.59 0.97
-10 0 10 2.62 1.3
-10 0 10 2.05 1.33
-10 0 11 0.69 0.96
-10 0 11 1.05 0.82
-10 0 12 -1.09 0.84
-10 -1 -6 -0.31 0.95
-10 -1 -5 3.59 1.43
-10 -1 -4 4.22 1.64
-10 -1 -3 18.43 2.75
-10 -1 -2 28.44 3.39
-10 -1 -1 91.77 5.63
-10 -1 0 10.24 2.13
-10 1 1 26.61 3.11
-10 1 2 5.59 1.78
-10 1 3 8.82 2.02
-10 1 4 7.83 2.06
-10 1 5 15.63 2.66
-10 -1 5 14.07 2.48
-10 -1 6 53.18 4.61
-10 1 6 46.71 4.21
-10 1 7 15.7 2.74
-10 1 7 12.48 2.4
-10 -1 7 14.04 2.5
-10 -1 8 7.99 1.94
-10 1 8 9.5 2.15
-10 1 8 8.49 2.49
-10 -1 8 9.95 2.13
-10 1 8 9.84 2.05
-10 1 9 5.46 2.09
-10 -1 9 6.67 1.74
-10 -1 9 7.18 1.9
-10 1 9 6.73 1.88
-10 1 9 10.57 2.05
-10 -1 10 5.86 1.73
-10 -1 10 11.73 2.06
-10 1 10 5.93 1.64
-10 1 10 8.92 1.78
-10 1 10 7.82 2.17
-10 -1 11 0.97 0.99
-10 1 11 2.54 1.21
-10 -1 11 1.01 1.08
-10 1 11 3.46 1.76
-10 1 12 0.03 0.86
-10 -1 12 -0.81 0.87
-10 -2 -6 5.23 1.24
-10 -2 -5 4.47 1.42
-10 -2 -4 3.5 1.33
-10 -2 -3 11.62 2.21
-10 -2 -2 0.6 1.07
-10 -2 -1 22.54 3
-10 -2 0 6.39 1.8
-10 -2 1 12.02 2.26
-10 -2 2 9.95 2.17
-10 2 2 9.62 2.11
-10 2 3 49.96 4.31
-10 2 4 18.27 2.77
-10 2 5 3.25 1.39
-10 2 6 35.52 3.68
-10 2 7 12.41 2.31
-10 2 7 8.83 2.07
-10 2 8 6.89 1.87
-10 -2 8 11.53 2.12
-10 2 8 12 2.23
-10 2 9 23.16 2.87
-10 -2 9 20.77 2.64
-10 2 9 28.08 2.99
-10 2 9 29.61 3.43
-10 2 10 8.13 1.96
-10 -2 10 3.46 1.34
-10 2 10 4.11 1.29
-10 2 10 3.93 1.36
-10 -2 11 1.73 1.02
-10 2 11 2.05 0.98
-10 2 11 4.09 1.47
-10 -3 -4 1.22 1.02
-10 -3 -3 0.74 0.99
-10 -3 -2 3.08 1.33
-10 -3 -1 1.29 1.05
-10 -3 0 13.39 2.28
-10 -3 1 -0.43 1.01
-10 -3 2 10.71 2.08
-10 3 2 10.75 2.03
-10 -3 3 22.44 2.73
-10 3 3 15.86 2.43
-10 -3 4 16.41 2.36
-10 3 4 16.96 2.61
-10 3 5 0.37 1.06
-10 3 6 8.43 1.9
-10 -3 6 8.94 1.75
-10 3 7 10.37 2.06
-10 -3 7 8.26 1.66
-10 3 8 5.53 1.54
-10 -3 8 4.5 1.19
-10 3 9 0.59 0.87
-10 -3 9 0.83 0.75
-10 3 10 -2.26 0.86
-10 -3 10 -1.03 0.79
-10 -4 -1 -0.06 0.9
-10 -4 0 -0.19 0.89
-10 -4 1 7.03 1.5
-10 -4 2 14.07 1.97
-10 -4 3 1.26 0.89
-10 4 3 1.32 0.9
-10 4 4 0.51 0.78
-10 -4 4 -0.3 0.95
-10 4 5 -0.66 0.98
-10 4 6 0.79 0.87
-10 4 7 1.14 0.88
-9 0 1 2.38 1.4
-9 0 2 -0.6 1.02
-9 0 3 -0.83 1.16
-9 0 4 67.69 4.88
-9 0 5 0.15 1.32
-9 0 6 138.65 7.04
-9 0 7 -0.18 1.17
-9 0 7 -3.81 1.55
-9 0 8 0.61 1.67
-9 0 8 2.11 1.38
-9 0 8 2.93 1.36
-9 0 8 0.17 1.1
-9 0 9 -0.7 1.05
-9 0 9 1.42 1.98
-9 0 9 -2.64 1.3
-9 0 9 -0.27 0.91
-9 0 10 10.53 2.51
-9 0 10 8.21 2.04
-9 0 10 6.7 1.66
-9 0 11 -1.96 1.2
-9 0 11 0.39 0.77
-9 0 11 1.64 1.95
-9 0 12 2.12 1.16
-9 0 12 0.2 0.94
-9 0 13 0.79 0.82
-9 -1 -8 1.98 1.02
-9 -1 -7 2.06 1.11
-9 -1 -1 29.42 3.43
-9 -1 0 13.47 2.51
-9 -1 1 26.06 3.11
-9 1 1 27.45 3.14
-9 1 2 11.59 2.25
-9 1 3 10.26 2.12
-9 -1 4 27.75 3.38
-9 1 4 33.41 3.51
-9 1 5 30.95 3.45
-9 -1 5 30.47 3.42
-9 -1 6 4.75 1.58
-9 1 6 5.78 1.83
-9 -1 7 15.3 2.57
-9 1 7 17.29 2.9
-9 1 7 15.49 2.63
-9 1 7 13.13 2.44
-9 1 8 4.36 2.1
-9 -1 8 7.38 1.95
-9 1 8 7.52 1.8
-9 -1 8 8.85 2.02
-9 1 8 4.3 1.59
-9 1 9 6.29 1.84
-9 1 9 2.86 1.17
-9 1 9 5.94 2.17
-9 -1 9 4.24 1.68
-9 -1 9 2.38 1.3
-9 1 10 0.99 1.52
-9 1 10 0.19 0.98
-9 -1 10 0.38 1.1
-9 -1 10 -0.37 1.04
-9 -1 11 3.76 1.64
-9 1 11 1.23 1.41
-9 1 11 2.66 1.26
-9 -1 11 2.08 1.17
-9 1 12 0.44 0.93
-9 -1 12 1.43 1.03
-9 -1 13 1.08 0.92
-9 1 13 3.47 1.51
-9 -2 -7 1 0.95
-9 -2 -6 1.26 1.09
-9 -2 -5 5.06 1.6
-9 -2 -4 12.55 2.31
-9 -2 -3 1.37 1.39
-9 -2 -2 40.28 3.97
-9 -2 -1 100.86 6
-9 -2 0 8.03 1.93
-9 2 1 50.27 4.15
-9 -2 1 56.14 4.44
-9 -2 2 13.7 2.42
-9 2 2 15.52 2.49
-9 -2 3 22.45 2.9
-9 2 3 20.64 2.89
-9 2 4 50.73 4.39
-9 2 5 6.29 1.77
-9 2 6 15.59 2.59
-9 2 7 13.54 2.4
-9 2 7 14.16 2.48
-9 2 8 20.52 3
-9 2 8 20.62 2.98
-9 2 8 22.4 2.95
-9 -2 8 19.03 2.79
-9 2 9 2 1.28
-9 2 9 0.49 1.51
-9 -2 9 1.93 1.2
-9 2 9 0.82 1
-9 2 10 4.96 1.41
-9 -2 10 3.05 1.3
-9 2 10 3.78 1.95
-9 2 10 3.12 1.36
-9 2 11 11.25 2.32
-9 2 11 13.22 2.1
-9 -2 11 12.23 1.97
-9 2 12 2.1 1.46
-9 -2 12 0 0.72
-9 -3 -6 0.91 0.84
-9 -3 -5 0.24 0.94
-9 -3 -4 2.86 1.27
-9 -3 -3 15.04 2.33
-9 -3 -2 8.9 2.09
-9 -3 -1 7.04 1.85
-9 -3 0 2.9 1.47
-9 3 1 116.68 6.15
-9 -3 1 110.68 6.23
-9 -3 2 37.58 3.7
-9 3 2 31.69 3.47
-9 3 3 5.62 1.79
-9 -3 3 5.63 1.71
-9 3 4 4.58 1.66
-9 -3 4 5.34 1.64
-9 -3 5 6.43 1.65
-9 3 5 8.33 1.98
-9 3 6 3.65 1.51
-9 -3 6 8.05 1.88
-9 3 7 22.09 2.9
-9 -3 7 19.04 2.58
-9 3 8 12 2.13
-9 -3 8 9.07 1.84
-9 -3 9 -0.43 0.73
-9 3 9 2.42 1.2
-9 -3 10 2.59 1.07
-9 3 10 3.12 1
-9 3 10 2.53 1.46
-9 3 11 5.15 1.49
-9 -3 11 0.74 0.62
-9 -4 -3 3.76 1.25
-9 -4 -2 9.32 1.75
-9 -4 -1 15.02 2.24
-9 -4 0 4.96 1.55
-9 -4 1 7.47 1.82
-9 4 2 2.91 1.23
-9 -4 2 6.53 1.67
-9 4 3 1.21 1.01
-9 -4 3 1.52 1.31
-9 4 4 -1.4 1.09
-9 -4 4 0.7 1.11
-9 4 5 -0.15 1.04
-9 -4 5 -0.02 0.87
-9 4 6 -0.43 1.13
-9 4 7 2.96 1.21
-9 4 8 4.07 1.17
-9 4 9 1.38 0.78
-8 0 -1 -2.21 2.11
-8 0 0 61.27 10.05
-8 0 1 0.49 1.51
-8 0 1 -6.01 3.75
-8 0 2 4.96 3.57
-8 0 2 10.13 3.95
-8 0 3 0.24 1.77
-8 0 3 -7.94 4.19
-8 0 4 481.19 27.67
-8 0 4 514.48 28.06
-8 0 5 2.29 3.08
-8 0 5 -3.06 3.79
-8 0 6 53.51 4.19
-8 0 6 45.11 8.69
-8 0 7 0.42 0.94
-8 0 7 -2.07 1.31
-8 0 7 2.29 1.88
-8 0 8 1.64 1.13
-8 0 8 0.46 1.13
-8 0 8 0.05 1.7
-8 0 8 -0.65 1.26
-8 0 9 0.42 1.02
-8 0 9 0.3 1.06
-8 0 9 -0.19 1.56
-8 0 10 19.25 2.78
-8 0 10 25.07 3.31
-8 0 10 26.17 3.68
-8 0 11 -1.12 1.12
-8 0 11 -0.13 1.02
-8 0 11 1.44 1.73
-8 0 12 1.12 0.95
-8 0 12 0.85 1.48
-8 0 13 0.81 0.88
-8 0 14 2.86 1
-8 -1 -9 3.82 1.16
-8 -1 -8 4.53 1.41
-8 1 0 12.89 4.79
-8 -1 0 14.33 5.33
-8 -1 1 11.93 4.88
-8 1 1 11.79 4.61
-8 1 2 22.21 6.23
-8 -1 2 14.47 5.17
-8 1 2 6 3.28
-8 -1 3 62.46 10.15
-8 1 3 81.62 11.47
-8 1 3 61.97 9.92
-8 -1 4 73.4 11
-8 1 4 80.22 11.87
-8 1 4 56.57 10.29
-8 1 5 63.44 10.63
-8 1 5 57.67 4.37
-8 -1 5 78.22 11.2
-8 1 5 51.5 9.6
-8 -1 6 18.18 2.68
-8 1 6 17.08 2.59
-8 -1 6 15.1 2.51
-8 1 6 16.52 2.79
-8 1 7 41.39 3.99
-8 1 7 45.35 4.02
-8 -1 7 41.05 4.1
-8 -1 7 50.17 4.21
-8 1 7 43.55 4.38
-8 1 8 12.66 2.33
-8 -1 8 10.92 2.21
-8 1 8 9.53 2.43
-8 -1 8 9.41 2.12
-8 1 8 8.53 2.11
-8 -1 9 23.09 3.26
-8 -1 9 18.98 2.82
-8 1 9 16.74 2.67
-8 1 9 17.61 3.16
-8 1 10 15.43 3.03
-8 -1 10 17.5 2.71
-8 -1 10 12.99 2.45
-8 1 10 15.85 2.76
-8 1 11 14.38 2.83
-8 -1 11 12.17 2.34
-8 -1 11 11.3 2.23
-8 1 11 11.76 2.37
-8 -1 12 4.91 1.52
-8 1 12 4.85 2.02
-8 1 12 3.46 1.45
-8 -1 13 6.15 1.48
-8 1 13 6.04 1.76
-8 -2 -8 1.8 0.95
-8 -2 -7 2.95 1.32
-8 -2 -6 6.49 1.82
-8 -2 -5 4.63 1.66
-8 -2 -4 33.48 3.59
-8 -2 -3 95.47 5.9
-8 -2 -2 101.32 6.02
-8 -2 -1 44.39 4.01
-8 -2 0 16.45 2.53
-8 2 1 42.52 3.78
-8 -2 1 45.24 3.95
-8 2 2 10.17 2.05
-8 -2 2 9.96 2.01
-8 2 3 37.06 3.65
-8 -2 3 38.29 3.54
-8 2 4 84.51 5.42
-8 2 5 17.71 2.64
-8 2 6 73.23 5.2
-8 2 7 2.06 1.75
-8 2 7 3.35 1.39
-8 2 7 0.51 1.2
-8 2 8 3.96 1.55
-8 2 8 4.48 1.61
-8 -2 8 5.73 1.67
-8 2 8 1.87 1.72
-8 2 9 72.84 5.26
-8 -2 9 57.16 4.6
-8 2 9 57.27 4.42
-8 2 9 60.13 5.18
-8 -2 9 61.03 4.76
-8 2 10 -0.43 1.5
-8 2 10 1.8 1.2
-8 -2 10 -2.77 1.26
-8 -2 11 10.46 1.99
-8 2 11 15.19 2.39
-8 2 11 10.58 2.42
-8 -2 12 4.98 1.39
-8 2 12 4.02 1.8
-8 -2 13 2.12 0.97
-8 2 13 2.49 1.34
-8 -3 -7 6.77 1.31
-8 -3 -6 13.05 1.98
-8 -3 -5 16.16 2.39
-8 -3 -4 30.72 3.32
-8 -3 -3 5.22 1.8
-8 -3 -2 24.15 3.13
-8 -3 -1 21.38 2.96
-8 -3 0 70.33 5.1
-8 3 1 62.75 4.62
-8 -3 1 69.24 4.97
-8 -3 2 35.21 3.64
-8 3 2 33.92 3.53
-8 3 3 38.98 3.84
-8 -3 3 40.11 3.83
-8 3 4 0.91 1.16
-8 -3 4 2.84 1.5
-8 -3 5 66.31 4.7
-8 3 5 60.18 4.79
-8 3 6 117.57 6.55
-8 3 7 49.94 4.28
-8 -3 7 53.51 4.38
-8 3 8 3.22 1.27
-8 -3 8 4.8 1.6
-8 -3 8 5.59 1.79
-8 3 8 3.39 1.53
-8 -3 9 2.29 1.37
-8 3 9 3.32 1.63
-8 3 9 6.2 1.62
-8 -3 9 4.23 1.31
-8 3 9 6.76 1.68
-8 -3 10 0.56 0.85
-8 3 10 2.17 1.34
-8 3 10 3.38 1.27
-8 -3 10 2.96 1.26
-8 -3 11 3.42 1.23
-8 3 11 1.9 1.4
-8 3 11 4.23 1.21
-8 -3 11 1.82 1
-8 -3 12 4.78 1.06
-8 3 12 7.09 1.61
-8 3 12 4.52 1
-8 -3 12 3.63 1.09
-8 -4 -5 3.58 1.14
-8 -4 -4 0.9 0.97
-8 -4 -3 4.79 1.44
-8 -4 -2 10.49 2.02
-8 -4 -1 26 3.03
-8 -4 0 5.7 1.78
-8 -4 1 14.54 2.46
-8 4 1 19.39 2.67
-8 4 1 18.65 2.63
-8 -4 2 18.26 2.6
-8 4 2 20.44 2.71
-8 4 2 16.96 2.53
-8 -4 3 0.18 1
-8 4 3 1.79 1.16
-8 4 3 1.19 1.15
-8 -4 4 0.36 1
-8 4 4 1.1 1.02
-8 -4 5 3.05 1.26
-8 4 5 3.6 1.47
-8 4 5 3.28 1.32
-8 4 6 3.55 1.22
-8 4 6 2.02 1.32
-8 4 7 4.55 1.37
-8 4 7 2.8 1.17
-8 4 8 6.45 1.57
-8 -4 8 5.83 1.62
-8 4 8 3.57 1.25
-8 4 9 0.02 0.72
-8 -4 9 0.73 0.88
-8 4 9 1.28 0.91
-8 4 10 8.33 1.4
-8 -4 10 9.37 1.63
-8 5 -1 0.98 0.72
-8 -5 -1 2.55 1.06
-8 5 0 -0.79 0.74
-8 -5 0 -0.66 0.91
-8 -5 1 7.43 1.61
-8 5 1 11.8 1.74
-8 5 2 8.72 1.5
-8 -5 2 8.34 1.73
-8 5 2 9.03 1.49
-8 5 3 -0.15 0.78
-8 5 3 -0.37 0.79
-8 5 4 3.96 1.21
-8 5 4 3.74 1.21
-8 5 5 -1.28 0.92
-8 5 5 -0.27 0.81
-8 5 6 0.85 0.73
-8 5 6 0.85 0.86
-7 0 -2 165.59 15.39
-7 0 -1 -1.81 2.49
-7 0 0 114.56 11.76
-7 0 0 109.43 12.28
-7 0 1 1.02 1.75
-7 0 1 -3.83 2.7
-7 0 2 364.71 21.3
-7 0 2 391.33 22.41
-7 0 3 -0.53 1.42
-7 0 3 1.19 2.24
-7 0 4 148.29 14.33
-7 0 4 165.08 14.73
-7 0 5 -1.81 2.26
-7 0 5 -3.76 3.19
-7 0 6 13.38 4.69
-7 0 7 2.49 2.12
-7 0 8 109.6 6.43
-7 0 8 116.22 6.27
-7 0 8 99.37 6.32
-7 0 9 -0.68 1.95
-7 0 9 -1.37 1.27
-7 0 9 -1.66 1.21
-7 0 10 2.53 1.58
-7 0 10 1.12 1.67
-7 0 10 2.72 1.33
-7 0 11 0.94 1.16
-7 0 11 -0.7 1.15
-7 0 11 1.79 1.48
-7 0 12 6.94 1.84
-7 0 12 8.7 2.41
-7 0 13 0.71 0.8
-7 0 13 -0.29 1.46
-7 0 14 -0.23 0.85
-7 -1 -10 0.34 0.7
-7 -1 -3 93.42 12.63
-7 -1 -2 63.88 10.3
-7 1 -1 209.68 17.02
-7 -1 -1 209.53 17.72
-7 -1 0 5.46 3.26
-7 1 0 13.52 3.77
-7 -1 1 32.92 7.22
-7 1 1 17.44 5.14
-7 -1 2 41.03 7.83
-7 -1 2 62.02 8.83
-7 1 2 52.55 8.62
-7 1 3 72.35 10.13
-7 -1 3 61.21 9.13
-7 -1 3 66.05 9.73
-7 1 4 105.96 12.55
-7 -1 4 133.36 13.56
-7 1 4 103.05 12.03
-7 -1 4 116.54 13.08
-7 -1 5 -2.76 2.84
-7 1 5 4.85 3.1
-7 -1 5 3.48 2.76
-7 1 5 3.24 2.81
-7 -1 6 46.09 8.9
-7 1 6 35.05 7.73
-7 1 6 52.77 9.38
-7 -1 7 51.81 4.72
-7 1 7 33.07 8.45
-7 -1 8 23.16 3.06
-7 1 8 28.81 3.42
-7 1 8 25.71 3.02
-7 -1 8 21.86 2.98
-7 -1 8 30.64 3.91
-7 1 9 25.75 3.28
-7 -1 9 23.49 3.13
-7 -1 9 31.46 4.01
-7 1 9 16.02 2.79
-7 -1 9 20.66 3.06
-7 1 10 6.02 2.17
-7 -1 10 6.91 2.03
-7 1 10 7.7 2.08
-7 -1 10 9.19 2.53
-7 -1 10 8.78 2.02
-7 1 11 18.44 3.08
-7 -1 11 10.13 2.17
-7 -1 11 16.42 2.81
-7 1 11 16.96 2.74
-7 1 12 0.1 1.4
-7 -1 12 -0.53 1.16
-7 -1 13 -1.24 1.06
-7 1 13 0.66 1.36
-7 1 14 2.99 1.47
-7 -1 14 1.98 0.99
-7 -2 -8 0.41 1.02
-7 -2 -7 3.28 1.47
-7 -2 -6 2.01 1.33
-7 -2 -5 12.62 2.39
-7 -2 -4 147.97 7.23
-7 -2 -3 37.67 3.7
-7 -2 -2 2.04 1.36
-7 -2 -1 61.63 9.88
-7 2 0 85.72 11.36
-7 -2 0 98.99 12.8
-7 -2 1 128.22 14.91
-7 2 1 125.1 14.16
-7 -2 2 8.58 4.27
-7 -2 2 19.72 5.36
-7 2 2 19.68 5.84
-7 -2 3 51.85 9.09
-7 -2 3 61.84 9.86
-7 2 3 57.98 10.07
-7 -2 4 26.16 6.53
-7 -2 4 30.69 7.2
-7 2 4 16.45 5.36
-7 2 5 55.25 10.2
-7 2 5 58.15 9.74
-7 2 6 66.81 4.78
-7 2 7 19.33 2.85
-7 2 7 15.32 2.57
-7 2 8 2.78 1.24
-7 2 8 1.92 1.23
-7 -2 8 4.36 1.36
-7 -2 9 36.22 3.77
-7 2 9 35.77 3.7
-7 -2 9 33.69 4.16
-7 2 9 38.88 3.96
-7 -2 9 29.02 3.54
-7 2 10 7.33 1.93
-7 -2 10 7.56 1.9
-7 -2 10 7.14 1.93
-7 2 10 8.01 1.97
-7 -2 11 1.83 1.23
-7 2 11 3.12 1.34
-7 -2 11 2.9 1.35
-7 2 12 -1.91 1.1
-7 2 12 -0.35 1.66
-7 -2 12 0.59 0.88
-7 -2 12 1.96 1.25
-7 2 13 1.5 1.36
-7 -2 13 0.21 0.79
-7 -3 -7 2.16 1.02
-7 -3 -6 3.82 1.34
-7 -3 -5 19.17 2.68
-7 -3 -4 54.99 4.42
-7 -3 -3 4.52 1.46
-7 -3 -2 80.32 5.36
-7 -3 -1 83.49 5.45
-7 -3 0 14.3 2.6
-7 -3 1 23.74 2.99
-7 -3 2 1.98 1.32
-7 -3 3 19.38 2.74
-7 3 4 1.36 1
-7 -3 4 5.26 1.73
-7 3 5 71.48 5.01
-7 -3 5 60.93 4.57
-7 3 6 33.67 3.57
-7 -3 6 35.89 3.52
-7 3 7 26.58 3.18
-7 -3 7 23.58 2.98
-7 3 8 -0.07 1.06
-7 -3 8 0.35 0.93
-7 3 8 0.55 0.95
-7 -3 9 13.78 2.3
-7 3 9 10.47 2.1
-7 3 9 14.41 2.31
-7 -3 9 14.97 2.58
-7 -3 10 7.79 2.02
-7 3 10 7.75 1.86
-7 -3 10 6.13 1.55
-7 -3 11 13.57 2.44
-7 3 11 12.5 1.99
-7 -3 11 14.09 2.04
-7 -3 12 0.88 0.82
-7 -3 12 0.33 0.59
-7 3 12 0.51 0.87
-7 3 12 -0.98 1.39
-7 -4 -5 11.61 1.91
-7 -4 -4 20.59 2.54
-7 -4 -3 5.87 1.68
-7 -4 -2 1.12 1.01
-7 -4 -1 8.55 2
-7 -4 0 10.98 2.26
-7 -4 1 25.43 3.2
-7 -4 2 17.61 2.73
-7 4 2 20.25 2.82
-7 -4 3 23.5 3.08
-7 4 3 25.13 3.12
-7 -4 4 8.72 2.08
-7 4 4 9.28 1.97
-7 -4 5 6.79 1.79
-7 4 5 7.03 1.86
-7 4 6 1.34 1.12
-7 4 7 21.95 2.81
-7 4 8 5.48 1.56
-7 4 8 6.08 1.72
-7 -4 9 -0.06 0.99
-7 4 9 -0.9 0.93
-7 4 9 -0.02 0.79
-7 -4 10 0.88 0.84
-7 4 10 -0.28 1.02
-7 4 10 0.7 1.1
-7 -5 -3 5.04 1.12
-7 -5 -2 1.79 1.03
-7 5 -1 -0.14 0.82
-7 -5 -1 1.27 1.12
-7 5 0 28.67 2.88
-7 -5 0 20.88 2.5
-7 5 1 5.03 1.41
-7 5 1 7.25 1.53
-7 -5 1 2.72 1.25
-7 5 2 0.24 0.91
-7 -5 2 -1.26 1.06
-7 -5 2 0.97 1.18
-7 5 3 2.5 1.19
-7 5 4 5.29 1.53
-7 5 5 0.21 0.83
-7 5 6 -0.42 0.93
-7 5 6 0.77 0.87
-7 5 7 2.32 0.95
-7 5 7 1.04 0.93
-6 0 -3 0.65 1.65
-6 0 -2 229.31 16.37
-6 0 -1 -4.57 2.8
-6 0 -1 -6.58 2.7
-6 0 0 346.64 19.36
-6 0 0 360.55 18.66
-6 0 1 1.46 2.67
-6 0 1 2.85 2.74
-6 0 2 309.73 17.93
-6 0 2 294.89 17.37
-6 0 3 -2.72 2.44
-6 0 3 -5.58 2.97
-6 0 4 131.8 12.34
-6 0 4 121.26 11.57
-6 0 5 2.36 2.5
-6 0 5 2.16 2.35
-6 0 6 96.59 10.38
-6 0 7 -5.58 3.09
-6 0 8 163.8 15.83
-6 0 9 -0.46 1
-6 0 9 -0.25 0.96
-6 0 9 0 2
-6 0 10 11.34 2.2
-6 0 10 7.98 2.16
-6 0 10 10.4 2.28
-6 0 11 0.22 0.99
-6 0 11 -1.14 1.18
-6 0 11 -1.97 1.64
-6 0 12 10.28 2.29
-6 0 12 5.21 1.63
-6 0 13 0.87 1.35
-6 0 13 2.09 1.24
-6 0 14 44.73 3.41
-6 0 14 51.87 3.87
-6 -1 -3 164.91 15.18
-6 1 -2 155.17 13.36
-6 -1 -2 154.67 14.3
-6 1 -1 70.04 9.05
-6 -1 -1 78.48 10.2
-6 -1 0 5.15 3.25
-6 -1 0 13.82 3.77
-6 1 0 8.37 3.4
-6 1 1 281.26 17.61
-6 -1 1 287.79 18.27
-6 -1 1 282.89 16.86
-6 -1 2 452.74 22.61
-6 1 2 405.97 21.27
-6 -1 2 429.09 21.41
-6 -1 3 279.77 17.89
-6 1 3 286.58 18.18
-6 -1 3 294.94 18.38
-6 1 4 16.3 4.9
-6 1 4 18.48 4.96
-6 -1 4 13.95 4.78
-6 -1 4 20.54 5.17
-6 1 5 69.51 9.13
-6 1 5 82.3 10.14
-6 -1 5 71.17 9.88
-6 -1 5 74.25 9.04
-6 1 6 65.78 9.22
-6 1 6 69.04 9.64
-6 -1 6 54.69 9.38
-6 1 7 30.23 6.76
-6 -1 7 50.28 8.94
-6 -1 7 51.65 9.36
-6 -1 8 4.3 3.34
-6 -1 8 9.01 4.66
-6 -1 9 7.25 2.43
-6 -1 9 4.38 1.54
-6 1 9 6.13 1.74
-6 -1 9 3.73 1.48
-6 1 9 2.91 1.38
-6 -1 9 2.13 1.25
-6 -1 10 2.92 1.99
-6 -1 10 3.03 1.52
-6 1 10 4.85 1.49
-6 -1 10 5.83 1.75
-6 1 10 6.18 2.03
-6 -1 10 2.56 1.43
-6 -1 11 7.09 2.21
-6 1 11 5.9 1.7
-6 -1 11 7.44 2.34
-6 1 11 7.69 2.19
-6 -1 11 8.93 2.13
-6 1 11 7.13 1.91
-6 1 11 5.16 1.83
-6 1 12 3.86 1.45
-6 -1 12 3.16 1.42
-6 1 12 2.97 1.33
-6 1 12 -0.12 1.81
-6 1 13 4.2 1.79
-6 -1 13 6.6 1.67
-6 1 13 1.46 0.94
-6 -1 14 10.97 1.79
-6 1 14 10.03 1.94
-6 -2 -8 28.91 3.05
-6 -2 -7 6.28 1.81
-6 -2 -3 232.61 19.8
-6 -2 -2 59.58 9.82
-6 -2 -1 56.51 9.21
-6 2 -1 46.1 7.83
-6 -2 0 23.49 5.96
-6 2 0 22.4 6.03
-6 -2 1 7.44 3.23
-6 2 1 3.89 2.81
-6 -2 2 60.84 9.03
-6 2 2 69.76 9.73
-6 2 3 194.34 16.45
-6 -2 3 210 16.71
-6 -2 3 225.22 17.57
-6 2 4 27.86 6.71
-6 -2 4 38.12 7.4
-6 -2 4 32.43 6.85
-6 2 5 1.26 2.44
-6 -2 5 17.65 5.39
-6 -2 6 170.74 17.21
-6 2 6 183.43 16.85
-6 2 6 155.92 15.45
-6 2 7 -0.14 0.9
-6 -2 7 1.04 1.03
-6 2 8 15.47 2.41
-6 2 8 20.92 3.06
-6 -2 8 18.91 2.76
-6 -2 8 17.68 2.65
-6 -2 9 54.03 4.92
-6 2 9 48.76 4.27
-6 -2 9 50.54 4.39
-6 2 9 49.58 4.66
-6 -2 10 3.66 1.54
-6 -2 10 2.51 1.38
-6 2 10 2.45 1.49
-6 2 10 3.99 1.48
-6 -2 11 1.78 1.5
-6 2 11 -1.12 1.23
-6 -2 11 2.72 1.45
-6 2 12 3.35 1.37
-6 -2 12 1.1 0.87
-6 -2 12 2.93 1.33
-6 -2 13 7.49 1.6
-6 2 13 3.63 1.62
-6 2 13 3.79 1.39
-6 2 14 2.78 1.4
-6 -2 14 1.28 0.85
-6 -3 -6 91.28 5.3
-6 -3 -5 23.39 2.91
-6 -3 -4 7.95 1.94
-6 -3 -3 48.33 4.17
-6 -3 -2 10.19 2.04
-6 -3 -1 18.79 2.67
-6 -3 0 6.06 3.29
-6 -3 0 8.15 1.74
-6 -3 1 35.6 3.46
-6 -3 2 10.06 4.06
-6 -3 2 4.84 1.59
-6 -3 3 3.32 1.38
-6 3 4 95.84 5.65
-6 -3 4 91.79 5.37
-6 3 5 58.03 4.48
-6 -3 5 54.36 4.18
-6 3 6 54.63 4.46
-6 -3 6 68.51 4.82
-6 3 7 97.11 6.01
-6 3 7 93.74 6.08
-6 3 8 12.9 2.41
-6 3 8 13.26 2.37
-6 3 9 20.97 2.87
-6 3 9 17.28 2.87
-6 -3 9 21.51 3.24
-6 -3 9 21.68 2.87
-6 -3 10 9.57 2.01
-6 -3 10 7.65 2.01
-6 3 10 5.72 1.78
-6 3 10 6.01 1.69
-6 -3 11 1 0.86
-6 3 11 -0.23 0.99
-6 -3 11 1.4 1.18
-6 -3 12 8.89 1.6
-6 3 12 6.74 1.62
-6 -3 12 7.62 1.86
-6 -3 13 4.53 1.23
-6 3 13 2.36 1.02
-6 3 13 1.83 1.09
-6 -4 -5 14.6 2.14
-6 -4 -4 -0.38 1.01
-6 -4 -3 2.34 1.38
-6 -4 -2 23.32 3.06
-6 -4 -1 64.69 4.81
-6 -4 0 4.54 1.6
-6 -4 1 48.73 4.27
-6 -4 2 30.36 3.36
-6 -4 3 5.29 1.64
-6 4 3 8.54 2.06
-6 -4 4 55.61 4.56
-6 4 4 52.88 4.5
-6 -4 5 22.02 2.95
-6 4 5 17.81 2.72
-6 4 6 20.4 2.84
-6 4 7 4.11 1.61
-6 4 8 -0.33 1.09
-6 4 9 0.94 0.82
-6 4 9 1.26 1.14
-6 -4 9 2.04 1.54
-6 4 9 1.5 1.21
-6 -4 10 1.84 1.25
-6 4 10 2.37 1.11
-6 4 11 0 0.79
-6 -4 11 2.49 1.12
-6 -5 -3 8.18 1.52
-6 -5 -2 2.66 1.26
-6 -5 -1 3.16 1.33
-6 -5 0 -0.04 1.07
-6 -5 1 21.36 2.72
-6 5 1 20.97 2.74
-6 -5 2 4.61 1.51
-6 5 2 2.8 1.28
-6 -5 2 2.1 1.32
-6 -5 3 13.83 2.33
-6 5 3 13.43 2.31
-6 5 4 0.04 0.88
-6 -5 4 1.81 1.23
-6 5 5 -0.23 0.95
-6 5 6 1.27 1.08
-6 5 7 3.55 1.23
-6 -5 8 8.93 1.87
-6 5 8 6.28 1.26
-6 5 8 6.32 1.48
-5 0 -3 -3.39 2.21
-5 0 -2 252.88 15.38
-5 0 -1 1.43 2.05
-5 0 0 654.55 23.66
-5 0 1 -1.15 2.32
-5 0 2 84.97 8.66
-5 0 2 79.82 8.29
-5 0 3 -1.09 2.84
-5 0 3 -0.61 1.59
-5 0 3 0.28 1.73
-5 0 4 227.28 14.73
-5 0 4 253.9 14.62
-5 0 4 255.38 15.73
-5 0 5 1.39 1.88
-5 0 5 0.11 2.41
-5 0 5 -0.81 1.67
-5 0 6 -0.54 1.89
-5 0 7 2.01 2.11
-5 0 8 110.18 12.62
-5 0 9 1.41 1.11
-5 0 9 -10.94 4.62
-5 0 10 24.99 3.14
-5 0 10 24.64 3.13
-5 0 10 29.02 3.47
-5 0 10 23.89 3.27
-5 0 10 26.61 3.34
-5 0 11 -0.86 1.63
-5 0 11 -0.32 1.09
-5 0 12 1.05 1.75
-5 0 12 0.55 1.05
-5 0 13 1.06 1.36
-5 0 13 0.71 1.01
-5 0 14 23.78 2.59
-5 0 15 0.35 0.75
-5 -1 -4 16.45 4.69
-5 1 -2 301.82 16.66
-5 1 -1 99 9.52
-5 -1 0 43.86 5.88
-5 1 0 47.84 6.78
-5 1 1 32.55 5.75
-5 -1 1 37.71 5.79
-5 -1 2 196.56 13.33
-5 -1 2 214.67 14.02
-5 -1 2 206.45 11.12
-5 1 2 196.52 13.45
-5 -1 3 837.02 28.48
-5 -1 3 836.56 27.19
-5 1 3 845.07 27.95
-5 1 4 178.33 13.3
-5 -1 4 167.31 12.16
-5 -1 4 176.22 13.7
-5 -1 5 95.74 9.08
-5 1 5 108.16 9.44
-5 -1 5 102.26 9.55
-5 1 5 102.97 10.38
-5 -1 5 102.84 11.1
-5 1 5 101.62 10.49
-5 -1 6 245.44 15.7
-5 1 6 230.33 16.08
-5 -1 6 232.94 17.43
-5 1 6 263.84 16.79
-5 1 7 6.11 3.02
-5 -1 7 15.75 4.94
-5 -1 7 14.23 5.15
-5 -1 8 53.45 9.08
-5 -1 8 38.67 7.87
-5 -1 9 2.85 1.73
-5 -1 9 4.64 1.53
-5 -1 9 3.03 1.57
-5 -1 9 4.99 1.61
-5 1 9 7.12 2.1
-5 1 9 4.7 1.63
-5 1 9 6.21 1.95
-5 1 9 5.53 1.67
-5 1 10 1.12 1.14
-5 -1 10 3.84 2.13
-5 1 10 3.72 1.51
-5 -1 10 3.29 1.5
-5 1 10 0.81 1.22
-5 -1 10 -0.79 1.23
-5 1 10 -1.34 1.18
-5 -1 10 2.4 1.31
-5 1 10 0.68 1.73
-5 -1 11 11.16 2.35
-5 -1 11 18.37 3.07
-5 -1 11 10.34 2.49
-5 1 11 15.3 2.46
-5 1 11 11.94 2.33
-5 1 11 14.37 2.57
-5 1 12 1.92 1.42
-5 -1 12 -0.82 1.08
-5 -1 12 1.88 1.27
-5 1 12 -0.15 1.37
-5 1 12 0.17 0.94
-5 1 13 2.9 1.22
-5 1 13 5.23 1.82
-5 -1 13 5.05 1.47
-5 1 13 6.57 1.76
-5 1 14 39.7 3.48
-5 1 14 38.15 2.93
-5 -1 14 38.12 3.24
-5 -2 -4 7.82 4.19
-5 -2 -3 107.44 12.71
-5 -2 -2 62.12 9.17
-5 2 -1 43.08 6.94
-5 -2 -1 60.52 8.94
-5 -2 0 96.45 10.42
-5 -2 0 100.97 10
-5 2 0 86.09 9.78
-5 -2 1 15.89 4.57
-5 2 1 19.85 5.13
-5 -2 1 16.53 4.5
-5 -2 2 12.24 4.13
-5 2 2 11.32 3.92
-5 -2 2 19.87 4.36
-5 2 3 360.44 15.17
-5 -2 3 330.44 19.8
-5 2 3 374.59 21.09
-5 2 4 507.97 25.02
-5 -2 4 497.89 25.25
-5 2 4 535.04 19.4
-5 -2 4 577.27 24.65
-5 -2 4 479.19 22.71
-5 -2 5 68.48 10.06
-5 2 5 72.4 7.84
-5 -2 5 79.33 9.74
-5 2 5 82.53 10.56
-5 2 6 99.09 11.23
-5 -2 6 111.1 12.16
-5 -2 6 104.16 12.78
-5 2 6 89.41 9.3
-5 2 6 110.77 12.44
-5 -2 7 28.7 6.59
-5 -2 7 34.26 7.9
-5 -2 7 34.5 7.3
-5 2 7 28.65 5.95
-5 2 8 3.99 1.41
-5 -2 8 1.94 1.22
-5 2 8 2.82 1.32
-5 2 8 3.97 1.94
-5 -2 8 4.17 1.38
-5 -2 9 26.36 3.19
-5 2 9 24.57 3.29
-5 2 9 21.09 3.63
-5 -2 9 25.48 3.44
-5 2 9 25.11 3.11
-5 2 10 5.85 1.86
-5 -2 10 7.25 2
-5 2 10 6.96 2.26
-5 -2 10 4.91 1.84
-5 2 10 6.08 1.88
-5 -2 11 2.99 1.45
-5 -2 11 7.7 2.14
-5 2 11 4.17 1.49
-5 2 11 5.1 1.99
-5 2 11 2.18 1.47
-5 -2 12 -0.17 0.93
-5 2 12 -0.72 0.98
-5 2 12 1.04 1.4
-5 -2 12 -0.25 1.15
-5 2 13 0.64 0.93
-5 -2 13 -0.35 0.91
-5 -2 14 1.43 0.95
-5 2 14 1.21 1.18
-5 -3 -5 27.77 3.16
-5 -3 -4 59.75 4.44
-5 -3 -3 14.99 2.41
-5 -3 -2 8.69 4.2
-5 -3 -1 -2.39 2.76
-5 3 0 50.25 8.53
-5 -3 0 41.48 8.19
-5 -3 1 38.81 7.31
-5 3 1 36.8 7.4
-5 -3 1 37.66 7.4
-5 -3 2 27.66 6.47
-5 3 2 29.25 6.9
-5 3 3 28.65 7.1
-5 -3 3 18.18 5.46
-5 -3 3 16.97 5.17
-5 -3 4 11.01 4.2
-5 3 4 14.83 4.01
-5 -3 4 15.7 5.12
-5 -3 5 74.9 10.87
-5 3 5 68.96 8.47
-5 3 6 14.99 2.59
-5 3 6 17.95 2.62
-5 3 6 16.66 2.63
-5 -3 6 12.17 2.08
-5 3 7 8.61 1.91
-5 3 7 6.42 1.82
-5 3 8 2.39 1.22
-5 3 8 1.29 1.04
-5 3 9 19.98 3.03
-5 3 9 19.09 2.82
-5 -3 9 23.86 3.45
-5 3 10 11.06 2.33
-5 -3 10 9.33 2.34
-5 -3 10 9.43 1.89
-5 -3 10 9.4 2.16
-5 3 10 7.41 1.86
-5 -3 11 10.64 2.3
-5 3 11 7.66 1.84
-5 -3 11 9.95 1.87
-5 -3 11 10.94 2.1
-5 3 11 9.24 2.08
-5 3 12 -0.23 0.94
-5 -3 12 -0.53 0.83
-5 -3 12 0.15 0.99
-5 3 13 0.88 0.94
-5 -3 13 1.28 1.09
-5 -4 -4 30.46 3.3
-5 -4 -3 7.71 2.03
-5 -4 -2 37.19 3.67
-5 -4 -1 72.78 5.07
-5 -4 0 43.8 4.05
-5 -4 1 30.24 3.34
-5 -4 2 44.9 4.12
-5 4 3 9.48 2.17
-5 4 3 7.73 1.88
-5 -4 3 9.58 1.98
-5 -4 4 32.56 3.55
-5 -4 4 30.79 3.46
-5 4 4 29.92 3.59
-5 4 4 28.89 3.37
-5 -4 5 112.47 6.46
-5 4 5 117.78 6.69
-5 -4 5 118.03 6.48
-5 4 5 108.09 6.35
-5 4 6 10.97 2.19
-5 4 6 10.99 2.22
-5 4 7 3.11 1.59
-5 4 7 2.28 1.32
-5 4 7 2.17 1.23
-5 4 8 3.91 1.62
-5 4 8 3.18 1.5
-5 4 9 0.79 1.13
-5 -4 9 -1.54 1.25
-5 4 9 -0.65 1.08
-5 -4 10 -0.14 1.07
-5 4 10 0.81 1.06
-5 -4 10 -2.01 1
-5 4 10 0.94 0.89
-5 -4 11 -1.84 0.86
-5 -4 11 -0.05 0.99
-5 4 11 -0.31 0.89
-5 -5 -2 6.5 1.6
-5 -5 -1 22.24 2.74
-5 -5 0 8.32 1.95
-5 -5 1 42.32 3.81
-5 5 2 2.5 1.31
-5 -5 2 3.44 1.63
-5 -5 2 2.06 1.29
-5 5 3 -0.57 1.02
-5 -5 3 -0.85 1
-5 5 4 0.19 0.96
-5 -5 4 -0.74 1.19
-5 5 5 5.49 1.56
-5 -5 5 1.49 1.32
-5 5 6 1.41 1.05
-5 -5 6 1.14 1.03
-5 5 7 1.46 1.03
-5 5 8 2.23 1.21
-5 -5 8 2.43 1.29
-5 -5 9 1.76 0.98
-5 5 9 2.81 1.05
-5 -5 9 3.21 0.86
-5 6 -1 1.99 0.93
-5 -6 -1 1.01 0.78
-5 6 0 1.67 0.88
-5 -6 0 2.69 1.12
-5 6 1 7.17 1.46
-5 -6 1 8.4 1.56
-5 6 2 2.45 1.03
-5 -6 2 5.78 1.4
-5 -6 3 0.17 0.79
-5 6 3 0.23 0.75
-5 -6 4 2.95 1.02
-5 6 4 5.34 1.27
-4 0 -3 0.05 1.45
-4 0 -2 267.77 13.84
-4 0 -1 -1.19 1.71
-4 0 0 687.93 21.21
-4 0 1 -0.48 1.88
-4 0 1 -1.21 2.56
-4 0 2 310.77 14.55
-4 0 2 341.24 14.86
-4 0 2 335.6 14.72
-4 0 3 1.31 0.9
-4 0 3 -0.02 1.86
-4 0 3 2.2 1.95
-4 0 3 1.75 2.07
-4 0 4 122.18 8.94
-4 0 4 117.89 9.72
-4 0 4 125.23 9.9
-4 0 5 -0.61 2.28
-4 0 5 0.64 1.75
-4 0 5 1.68 1.99
-4 0 5 -2.44 1.84
-4 0 6 105.99 9.6
-4 0 6 89 9.48
-4 0 6 85.63 9.49
-4 0 7 -1.22 1.68
-4 0 7 4.72 2.79
-4 0 8 181.86 15.42
-4 0 8 148.9 14.18
-4 0 9 -17.48 5.18
-4 0 10 2.73 1.4
-4 0 10 4.96 1.68
-4 0 10 3.18 1.32
-4 0 10 2.85 1.56
-4 0 11 -1.88 1.99
-4 0 11 -1.17 1.18
-4 0 12 186.57 8.31
-4 0 12 187.35 8.16
-4 0 12 193.87 8.28
-4 0 13 0.15 1.12
-4 0 13 0.08 0.81
-4 0 14 24.98 2.73
-4 0 14 17.09 2.23
-4 0 15 0.76 0.91
-4 1 -3 299.28 14.63
-4 1 -2 7.41 2.71
-4 1 -1 92.52 8.21
-4 -1 -1 90.18 7.03
-4 1 0 228.28 12.73
-4 -1 0 248.68 12.23
-4 1 0 262.79 6.69
-4 1 1 586.86 20.45
-4 1 1 657.56 12.98
-4 -1 1 611.75 20.15
-4 1 2 244.52 13.4
-4 -1 2 245.17 13.42
-4 -1 3 213.13 8.57
-4 1 3 202.71 12.54
-4 1 3 194.42 9.45
-4 -1 3 202.29 12.74
-4 -1 3 203.47 11.93
-4 -1 3 216.24 10.96
-4 -1 4 587.54 22.87
-4 1 4 529.98 17.12
-4 -1 4 528.61 18.78
-4 1 4 574.92 21.42
-4 -1 4 560.36 19.49
-4 1 5 426.49 19.19
-4 -1 5 441.37 16.78
-4 1 5 438.84 16.83
-4 -1 5 477.61 19.76
-4 1 5 491.52 20.37
-4 -1 5 463.72 21.42
-4 1 5 452.91 17.73
-4 -1 6 4.4 2.71
-4 1 6 3.37 2.36
-4 -1 6 5.42 3.1
-4 1 6 4.9 2.45
-4 1 6 7.54 2.61
-4 1 6 9.44 2.97
-4 -1 6 5.34 3.13
-4 1 7 139.94 11.22
-4 -1 7 134.2 13.2
-4 -1 7 132.55 12.82
-4 -1 7 150.15 13.48
-4 1 8 16.96 4.45
-4 -1 8 13.64 4.6
-4 -1 8 7.9 4.07
-4 -1 9 18.68 6.13
-4 1 9 33.32 6.74
-4 -1 9 25.06 6.62
-4 -1 10 1.07 1.2
-4 1 10 5.28 1.67
-4 1 10 0.92 1.21
-4 1 10 1 1.24
-4 1 10 -0.85 1.86
-4 1 10 1.44 0.99
-4 -1 10 2.39 1.23
-4 -1 10 1.89 1.25
-4 -1 11 -0.16 1.04
-4 -1 11 -1.46 1.12
-4 -1 11 0.38 1.04
-4 1 11 -0.64 1.66
-4 1 11 -1.42 1.18
-4 1 11 0.96 1.25
-4 1 11 1.18 1.38
-4 -1 12 6.31 1.7
-4 -1 12 8.59 2.01
-4 1 12 4.58 1.56
-4 -1 12 6.52 1.93
-4 1 12 5.28 1.82
-4 1 12 7.31 1.95
-4 -1 13 17.09 2.57
-4 -1 13 21.36 2.75
-4 1 13 24.52 3.17
-4 1 13 23.64 2.97
-4 1 13 18.22 2.43
-4 1 14 2.39 1.42
-4 1 14 2.53 1.16
-4 -1 14 0.9 0.99
-4 -1 14 1.64 0.97
-4 -2 -5 53.95 9.38
-4 -2 -4 -1.01 2.41
-4 -2 -3 50.34 7.97
-4 -2 -2 71.23 9.27
-4 2 -2 60.87 7.57
-4 -2 -1 29.67 5.9
-4 -2 -1 37.56 5.46
-4 2 -1 34.38 5.71
-4 -2 0 177.59 12.26
-4 -2 0 178.69 13.01
-4 2 0 173.6 12.82
-4 2 1 515.24 15.6
-4 -2 1 492.63 20.52
-4 -2 1 492.38 21
-4 2 1 444.94 20.66
-4 2 2 68.06 8.37
-4 2 2 68.38 5.62
-4 2 2 68.67 6.1
-4 -2 2 72.45 7.63
-4 -2 2 55.68 7.52
-4 2 3 505.53 16.57
-4 2 3 503.73 17.49
-4 -2 3 505.05 19.1
-4 -2 3 457.53 21.75
-4 2 3 488.78 22.55
-4 2 4 796.72 29.36
-4 2 4 815.14 23
-4 2 4 809.67 23.53
-4 -2 4 753.35 28.96
-4 -2 4 767.71 27.88
-4 2 5 52.47 7.99
-4 -2 5 55.26 8.04
-4 2 5 42.86 5.97
-4 -2 5 38.55 7.18
-4 2 5 44.59 5.94
-4 2 6 163.65 12.13
-4 -2 6 153.53 14.35
-4 -2 6 141.81 13.6
-4 -2 6 190.35 16.14
-4 -2 7 12.63 4.32
-4 2 7 19.2 4.63
-4 -2 7 21.67 6.68
-4 -2 7 16.54 5
-4 -2 8 -7.06 3.83
-4 -2 8 -0.81 2.91
-4 -2 9 7.48 1.88
-4 2 9 9.12 2.12
-4 2 9 12.95 2.58
-4 2 9 8.75 2.04
-4 -2 9 13.16 2.56
-4 2 10 19.13 3.02
-4 2 10 23.34 3.07
-4 -2 10 20.84 2.88
-4 2 10 23.49 3.54
-4 -2 10 22.72 3.13
-4 -2 10 23.41 3.41
-4 2 11 3.07 1.44
-4 2 11 0.66 1.33
-4 2 11 2.95 1.63
-4 -2 11 2.99 1.55
-4 -2 11 -0.14 0.86
-4 -2 12 16.25 2.96
-4 -2 12 13.25 2.38
-4 2 12 13.63 2.43
-4 -2 12 19.92 2.69
-4 2 12 16.24 2.82
-4 2 12 14.04 2.47
-4 2 13 1.4 1.47
-4 -2 13 1.19 0.89
-4 2 13 2.97 1.3
-4 -2 13 1.36 0.99
-4 -2 14 2.17 0.82
-4 2 14 2.64 1.13
-4 -2 14 3.74 1.18
-4 -3 -3 25.48 6.74
-4 -3 -2 6.37 3.54
-4 -3 -1 67.07 10.23
-4 -3 0 199.59 16.35
-4 -3 0 214.82 16.22
-4 -3 1 137.29 13.02
-4 -3 1 129.81 12.95
-4 -3 2 42.8 7.6
-4 3 2 42.16 6.14
-4 -3 2 45.4 7.79
-4 3 3 50.92 6.87
-4 -3 3 51.86 8.86
-4 -3 4 94.17 11.83
-4 -3 4 100.98 12.34
-4 3 4 108.03 10.27
-4 -3 5 45.75 8.51
-4 -3 5 41.79 7.62
-4 3 5 28.17 5.29
-4 3 5 47.65 7.14
-4 -3 5 45.99 9.02
-4 -3 6 5.03 2.99
-4 3 6 10.04 3.52
-4 3 6 3.74 1.41
-4 -3 6 2.9 2.15
-4 3 7 18.28 2.76
-4 3 7 15.45 2.46
-4 3 8 0.74 1.07
-4 3 8 0.79 0.93
-4 3 8 2.23 1.72
-4 3 9 9.58 2.32
-4 3 9 4.24 2.2
-4 3 9 7.54 1.93
-4 -3 9 8.27 2.19
-4 3 10 0.25 1.67
-4 3 10 2.25 1.49
-4 -3 10 0.44 1.44
-4 3 10 -1.25 1.25
-4 3 11 6.03 1.75
-4 -3 11 3.61 1.38
-4 3 11 5.36 1.79
-4 -3 11 4.98 1.54
-4 -3 12 1.37 1.08
-4 3 12 1.07 1.13
-4 -3 12 0.58 1.04
-4 3 12 0.7 1.02
-4 -3 13 1.25 0.81
-4 3 13 1.5 0.87
-4 -3 13 2.78 1.28
-4 -4 -3 18.2 2.62
-4 -4 -2 2.52 1.13
-4 -4 -1 92.89 5.54
-4 -4 0 7.18 1.69
-4 4 1 11.47 2.31
-4 -4 1 7.4 1.67
-4 4 2 18.27 2.82
-4 -4 2 17.51 2.46
-4 -4 3 37.58 3.65
-4 4 3 39.7 3.88
-4 4 4 7.1 1.86
-4 -4 4 8.48 1.98
-4 4 4 5.29 1.8
-4 -4 4 8.84 1.97
-4 -4 5 79.47 5.59
-4 4 5 66.99 5.05
-4 4 5 69.95 5.13
-4 4 6 8.72 1.98
-4 4 6 9.32 2.13
-4 4 6 6.74 1.99
-4 -4 6 7.72 1.93
-4 4 7 26.49 3.29
-4 4 7 25.96 3.36
-4 -4 7 31.11 3.52
-4 4 7 34.54 3.62
-4 4 8 19.34 2.87
-4 4 8 13.43 2.52
-4 -4 9 1.01 1.26
-4 4 9 1.92 1.29
-4 4 9 -1.76 1.15
-4 4 10 3.89 1.41
-4 -4 10 3.86 1.33
-4 4 10 3.95 1.42
-4 -4 10 3.71 1.47
-4 -4 11 5.48 1.51
-4 4 11 3.81 1.3
-4 4 11 3.21 1.29
-4 -4 11 5.42 1.32
-4 -5 -1 23.81 2.98
-4 -5 0 2.84 1.45
-4 -5 1 5.69 1.79
-4 5 2 26.89 3.25
-4 -5 2 27.5 3.39
-4 5 3 10.2 2.22
-4 5 3 15.73 2.57
-4 -5 3 12.03 2.44
-4 -5 4 5.47 1.8
-4 5 4 1.9 1.27
-4 5 4 3.75 1.67
-4 5 5 7.69 1.81
-4 5 5 8.32 2.02
-4 -5 5 9.52 2.15
-4 5 6 2.32 1.24
-4 5 6 2.5 1.33
-4 -5 6 3.61 1.46
-4 5 7 2.56 1.21
-4 5 7 1.55 1.14
-4 -5 7 1.69 1.21
-4 5 8 3.19 1.2
-4 5 8 4.77 1.41
-4 -5 8 6.34 1.48
-4 -5 8 2.66 1.22
-4 -5 9 3.03 1.28
-4 5 9 3.74 1.27
-4 5 9 3.1 1.02
-4 -6 -3 -0.06 0.9
-4 6 -2 0.59 0.81
-4 -6 -2 1.41 1.01
-4 6 -1 0.36 0.76
-4 -6 -1 -0.22 0.9
-4 6 0 2.57 1.15
-4 -6 0 5.19 1.51
-4 -6 1 8.27 1.77
-4 6 1 9.86 1.81
-4 6 2 0.22 0.89
-4 -6 2 0.6 0.94
-4 -6 3 8.54 1.72
-4 6 3 9.61 1.69
-4 6 4 0.32 0.77
-4 -6 4 0.41 0.87
-4 -6 5 -0.72 0.89
-4 6 5 -0.39 0.7
-3 0 -4 1021.1 24.26
-3 0 -3 1.8 1.98
-3 0 -2 157.35 9.12
-3 0 -1 -1.03 1.5
-3 0 0 64.52 5.75
-3 0 1 0.23 1.51
-3 0 1 0.75 1.72
-3 0 2 905.36 20.46
-3 0 2 964 13.69
-3 0 2 904.44 21.32
-3 0 3 -0.08 1.5
-3 0 3 0.02 1.64
-3 0 3 0.25 1.86
-3 0 3 1.35 0.99
-3 0 4 622.09 20.03
-3 0 4 652.63 18.22
-3 0 4 680.06 17.94
-3 0 4 623.81 19.96
-3 0 5 2.17 1.72
-3 0 5 0.44 1.25
-3 0 5 -0.89 1.46
-3 0 5 0.96 1.79
-3 0 5 0.85 1.34
-3 0 6 728.08 21.7
-3 0 6 734.49 25.54
-3 0 6 806.57 25.4
-3 0 6 768.85 26.36
-3 0 7 0.63 1.82
-3 0 7 -1.28 2.21
-3 0 8 -0.04 1.71
-3 0 9 -9.22 4.11
-3 0 10 15.33 2.57
-3 0 10 17 2.52
-3 0 10 19.79 3.01
-3 0 10 13.86 2.25
-3 0 11 -2.03 1.34
-3 0 11 2.39 1.49
-3 0 12 39.77 3.9
-3 0 12 38.19 3.94
-3 0 13 0.37 1.12
-3 0 13 -0.45 1.03
-3 0 14 10.52 1.9
-3 0 14 6.57 1.57
-3 0 15 2.76 0.98
-3 1 -3 723.6 19.26
-3 1 -2 143.57 8.82
-3 -1 -2 150.88 6.93
-3 -1 -1 532.67 14.64
-3 1 -1 492.61 16.17
-3 1 0 247.53 11.63
-3 -1 0 242.8 10.72
-3 1 1 3613.42 29.21
-3 1 1 3745.56 30.24
-3 -1 1 3686.43 43.72
-3 1 2 1201.88 19.52
-3 1 2 1217.95 19.81
-3 -1 2 1218.47 20.92
-3 -1 2 1195.17 26.44
-3 1 2 1189.97 26.4
-3 1 3 529.56 14.56
-3 1 3 541.71 14.65
-3 -1 3 544.28 12.71
-3 1 3 535.2 18.22
-3 -1 3 525.73 18.72
-3 -1 3 531.66 17.04
-3 1 4 473.04 15.18
-3 -1 4 470.31 15.01
-3 -1 4 482.91 18.95
-3 1 4 507.94 15.81
-3 -1 4 499.93 18.28
-3 1 4 491.77 18.18
-3 -1 5 1.33 2.08
-3 -1 5 2.26 2.71
-3 1 5 3.48 1.91
-3 1 5 2.82 1.9
-3 1 5 3.51 2
-3 1 5 2.61 1.96
-3 1 6 282.98 14.08
-3 1 6 321.38 15.79
-3 1 6 310.71 15.18
-3 -1 6 292.24 17.51
-3 -1 6 263.15 16.35
-3 -1 6 310.56 17.35
-3 -1 7 8.02 3.45
-3 -1 7 9.84 3.71
-3 1 7 7.51 2.71
-3 -1 7 6.83 3.19
-3 1 8 77.64 8.71
-3 -1 8 72.26 10.2
-3 -1 8 67.24 10.03
-3 1 9 42.95 7
-3 -1 9 26.75 6.79
-3 -1 10 21.04 2.89
-3 1 10 18.86 2.72
-3 -1 10 18.51 2.95
-3 1 10 16.52 2.56
-3 -1 10 17.8 2.62
-3 1 10 18.65 2.66
-3 1 10 19.61 3.05
-3 1 11 18.24 2.78
-3 -1 11 18.72 2.93
-3 1 11 18.99 2.75
-3 -1 11 16.43 2.7
-3 1 11 17.21 2.81
-3 1 11 14.54 2.44
-3 -1 11 16.32 2.91
-3 1 12 90.16 5.76
-3 -1 12 75.58 5.44
-3 1 12 86.72 5.46
-3 -1 12 79.02 5.43
-3 1 12 86.8 5.95
-3 1 12 74.66 5.36
-3 -1 13 0.91 1.08
-3 -1 13 2.35 1.21
-3 1 13 0.98 1.5
-3 1 13 1.86 1.27
-3 1 13 3.72 1.57
-3 -1 14 5.45 1.35
-3 -1 14 4.92 1.49
-3 1 14 3.25 1.38
-3 -2 -6 19.32 5.92
-3 -2 -5 60.34 9.59
-3 -2 -4 75.9 9.86
-3 -2 -3 155.47 13.32
-3 -2 -2 585.1 24.08
-3 2 -2 572.46 20.57
-3 2 -1 189.13 12.14
-3 -2 -1 190.51 13.19
-3 -2 -1 188.05 11.33
-3 2 0 113.95 9.61
-3 -2 0 119.68 9.98
-3 -2 0 102.89 8.75
-3 -2 1 669.36 22.37
-3 2 1 668.66 14.61
-3 -2 1 651.21 22.63
-3 2 1 642.31 22.98
-3 -2 2 193.51 12.99
-3 2 2 192.95 13
-3 2 2 220.36 9.68
-3 2 3 223.71 14.33
-3 2 3 216.43 11.25
-3 -2 3 215.16 12.06
-3 -2 3 193.69 13.48
-3 2 3 232.97 10.99
-3 -2 4 23.75 5.2
-3 -2 4 28.11 5.66
-3 2 4 23.45 4.12
-3 2 4 31.66 5.68
-3 2 4 26.78 4.33
-3 -2 5 13.31 4.44
-3 -2 5 21.12 5.16
-3 2 5 23.66 4.45
-3 2 5 21.72 4.09
-3 -2 5 21.88 4.97
-3 2 6 130.23 10.56
-3 -2 6 139.55 13.22
-3 -2 6 149.07 13.56
-3 -2 6 135.82 13.21
-3 -2 7 34.93 7.27
-3 -2 7 32 6.94
-3 2 7 35.82 6.03
-3 -2 7 29.75 6.49
-3 -2 8 21.87 6.06
-3 2 8 18.9 4.75
-3 -2 8 8.76 3.71
-3 2 9 9.72 2.07
-3 -2 9 8.01 1.78
-3 2 9 7.11 2.26
-3 -2 9 8.65 2.21
-3 2 9 10.34 2.24
-3 2 10 27.11 3.25
-3 2 10 19.98 2.84
-3 2 10 26.13 3.56
-3 -2 10 19.83 2.81
-3 2 10 25.97 3.35
-3 -2 10 24.04 3.3
-3 -2 10 25.63 3.57
-3 -2 11 16.34 2.96
-3 2 11 19.12 3.26
-3 2 11 16.86 2.77
-3 -2 11 22.01 2.97
-3 2 11 20.11 3.04
-3 -2 11 16.32 2.72
-3 -2 12 15.55 2.45
-3 -2 12 16.47 2.69
-3 -2 12 17.88 2.91
-3 2 12 20.45 2.9
-3 2 12 15.63 2.83
-3 2 12 20.56 2.97
-3 2 13 2.56 1.27
-3 -2 13 1.27 1.01
-3 2 13 4.01 1.66
-3 -2 13 1.48 0.92
-3 2 14 2.44 1.25
-3 -2 14 2.2 1.14
-3 2 14 2.86 1.33
-3 -2 14 3 1.13
-3 -3 -4 17.09 5.26
-3 -3 -3 119.18 13.43
-3 -3 -2 117.42 12.84
-3 -3 -1 126.04 12.75
-3 -3 -1 125.26 11.66
-3 -3 0 10.75 3.72
-3 -3 0 18.09 4.72
-3 -3 1 49.31 7.68
-3 -3 1 56.44 8.24
-3 -3 2 4.5 2.73
-3 -3 2 6.93 2.93
-3 3 3 36.8 5.63
-3 -3 3 22.99 5.4
-3 -3 3 31.52 6.83
-3 3 4 37.61 5.88
-3 3 4 33.55 5.69
-3 -3 4 43.71 8.09
-3 -3 4 24.83 5.91
-3 -3 5 36.88 7.6
-3 3 5 25.54 5.2
-3 3 5 29.79 5.61
-3 -3 5 32.64 6.48
-3 -3 5 25.58 6.63
-3 -3 6 3.11 3.03
-3 -3 6 7.37 3.71
-3 3 6 0.86 1.68
-3 3 6 7.41 3.01
-3 -3 6 9.79 3.73
-3 3 7 1.68 1.25
-3 3 7 3.75 1.9
-3 -3 7 4.27 1.16
-3 3 8 32.46 3.55
-3 3 8 28.6 3.65
-3 3 9 37.83 4.07
-3 3 9 37.43 4.27
-3 3 9 35.69 3.87
-3 -3 9 33.34 4.02
-3 -3 10 53.67 5.03
-3 3 10 61.19 4.84
-3 3 10 49.67 4.72
-3 3 10 60.91 5.22
-3 -3 11 2.81 1.52
-3 -3 11 0.57 1.2
-3 3 11 2.61 1.5
-3 3 11 3.69 1.66
-3 3 11 5.53 2.15
-3 -3 12 1.73 1.2
-3 3 12 4.81 1.65
-3 3 12 1.95 1.23
-3 3 12 3.07 1.72
-3 -3 12 1.04 0.97
-3 -3 13 0.41 0.67
-3 3 13 1.25 0.93
-3 -4 -2 33.55 3.3
-3 -4 -1 1.49 1.36
-3 4 -1 4.35 1.46
-3 4 0 31.54 3.31
-3 -4 0 27.64 3.07
-3 4 1 23.99 2.92
-3 -4 1 21.33 2.8
-3 4 2 20.04 2.82
-3 -4 2 19.52 2.56
-3 4 3 69.34 5.05
-3 -4 3 69.07 4.85
-3 -4 4 4.61 1.7
-3 4 4 1.44 1.36
-3 4 4 1.61 1.28
-3 4 5 32.42 3.55
-3 4 5 30.55 3.45
-3 -4 5 32.99 3.72
-3 4 6 16.64 2.7
-3 4 6 17.25 2.65
-3 -4 6 19.13 2.95
-3 4 7 66.48 5.04
-3 4 7 69.41 5.04
-3 -4 7 70.96 5.27
-3 4 8 15.88 2.58
-3 4 8 18.14 2.72
-3 4 8 12.78 2.46
-3 -4 8 16.9 2.69
-3 -4 9 2.49 1.24
-3 4 9 3.56 1.44
-3 4 9 5.95 1.63
-3 -4 9 0.97 1.01
-3 4 10 1.48 1.04
-3 -4 10 0.74 1.14
-3 -4 11 7.28 1.79
-3 4 11 5.69 1.4
-3 -4 11 7.19 1.61
-3 4 11 7.03 1.65
-3 -4 12 0.55 0.81
-3 -4 12 0.09 0.66
-3 4 12 2.04 0.86
-3 4 12 1 0.87
-3 -5 -1 6.96 1.79
-3 -5 0 9.84 2.01
-3 5 1 26.26 3.25
-3 5 2 10.89 2.26
-3 5 2 19.29 2.82
-3 -5 2 13.37 2.56
-3 5 3 51.63 4.42
-3 -5 3 51.64 4.65
-3 5 3 57.43 4.67
-3 5 4 13.29 2.36
-3 5 4 19.11 2.83
-3 -5 4 13.68 2.57
-3 5 5 2.96 1.38
-3 5 5 3.73 1.51
-3 -5 5 2.88 1.5
-3 5 6 6.14 1.76
-3 5 6 2.96 1.39
-3 -5 6 3 1.36
-3 5 7 2.43 1.26
-3 5 7 2.82 1.37
-3 -5 7 1.03 1.14
-3 5 7 0.81 1.04
-3 -5 8 1.83 1.3
-3 -5 8 4.72 1.47
-3 5 8 3.14 1.18
-3 5 8 5.97 1.44
-3 5 8 3.42 1.19
-3 5 9 -0.07 0.7
-3 5 9 1.24 0.88
-3 -5 9 1.46 0.89
-3 -5 9 0.75 0.92
-3 -6 -2 1.17 1.04
-3 6 -1 12.16 1.96
-3 -6 -1 11.64 2.08
-3 6 0 4.81 1.29
-3 -6 0 4.49 1.56
-3 6 1 6.41 1.5
-3 -6 1 2.39 1.31
-3 6 2 5.06 1.42
-3 -6 2 5.19 1.53
-3 6 3 -1.28 0.92
-3 -6 3 0.32 0.97
-3 6 4 3.77 1.19
-3 -6 4 4.36 1.28
-3 6 5 2.12 0.96
-3 -6 5 1.92 1.06
-2 0 -4 1694.51 25.76
-2 0 0 1754.21 23.13
-2 0 0 1802.57 21.24
-2 0 1 -0.07 0.44
-2 0 1 -0.1 1.1
-2 0 1 1.28 1.3
-2 0 2 9999 46.94
-2 0 2 9866.65 54.33
-2 0 2 9811.86 59.71
-2 0 3 -0.21 1.25
-2 0 3 -1.03 1.8
-2 0 3 -1.34 1.17
-2 0 4 111.77 6.64
-2 0 4 106.6 7.77
-2 0 4 110.27 5.98
-2 0 4 106.52 7.66
-2 0 4 100.51 7.18
-2 0 5 -1.55 1.7
-2 0 5 0.61 1.68
-2 0 5 -0.29 0.92
-2 0 5 -0.08 1.62
-2 0 5 0.33 1.33
-2 0 6 195.68 11.19
-2 0 6 208.29 11.11
-2 0 6 198.77 13.5
-2 0 6 208.94 13.58
-2 0 7 0.39 1.39
-2 0 7 -2.85 2.21
-2 0 8 19.58 4.2
-2 0 8 20.99 5.52
-2 0 9 -6.35 3.58
-2 0 10 7.37 1.78
-2 0 10 7.46 1.92
-2 0 10 10.2 2.1
-2 0 10 5.9 1.69
-2 0 11 -0.25 1.11
-2 0 11 -0.04 0.96
-2 0 12 183.59 8.39
-2 0 12 193.44 8.34
-2 0 13 -0.93 1.2
-2 0 13 -0.29 1.11
-2 0 14 2.62 1.2
-2 0 14 1.5 1.25
-2 0 14 0.22 1.33
-2 0 15 0.32 0.77
-2 1 -3 446.13 12.29
-2 -1 -2 2.13 0.9
-2 1 -2 0.69 1.09
-2 1 -1 464.93 13.42
-2 -1 -1 459.67 11.96
-2 1 0 842.99 9.79
-2 -1 0 844.09 17.58
-2 1 0 838.04 18.51
-2 1 1 1427.08 16.88
-2 1 1 1469.97 25.3
-2 -1 1 1452.86 24.82
-2 1 2 1770.98 28.97
-2 1 2 1771.67 22.29
-2 1 2 1770.77 22.94
-2 -1 2 1724.6 28.96
-2 1 3 2494.72 30.27
-2 1 3 2585.18 36.44
-2 1 3 2494.36 30.1
-2 1 3 2689.58 28.7
-2 -1 3 2567.02 37.7
-2 -1 3 2651.49 27.33
-2 -1 3 2604.07 37.35
-2 1 4 325.8 13.54
-2 1 4 279.49 11.35
-2 -1 4 277.08 11.26
-2 -1 4 298.2 9.34
-2 -1 4 309.19 14
-2 1 4 286.73 11.47
-2 1 4 285.99 13.49
-2 -1 4 296.81 14.14
-2 -1 5 343.32 14.43
-2 -1 5 319.2 13.22
-2 1 5 366.6 13.54
-2 1 5 321.27 13.39
-2 1 5 332.29 16.25
-2 -1 5 312.52 16.18
-2 -1 5 333.11 15.52
-2 -1 5 316.21 16.22
-2 -1 6 0.18 1.69
-2 1 6 2.82 2.12
-2 -1 6 3.81 2.32
-2 1 6 2.22 1.79
-2 -1 6 0.64 1.47
-2 -1 6 2.28 1.68
-2 -1 6 0.39 1.43
-2 -1 7 51.47 7.9
-2 -1 7 65.86 7.88
-2 -1 7 56.4 6.81
-2 -1 7 47.91 7.79
-2 1 7 58.07 6.89
-2 1 8 70.94 8.28
-2 -1 8 78.72 10.75
-2 1 9 71.4 8.95
-2 -1 9 83.92 11.71
-2 -1 10 32.58 3.6
-2 -1 10 34.91 3.9
-2 1 10 37.76 3.82
-2 1 10 36.46 3.51
-2 -1 10 32.42 3.51
-2 1 10 33.15 3.89
-2 1 10 41.15 3.92
-2 1 10 37.84 3.79
-2 -1 11 9.73 2.27
-2 -1 11 13.21 2.59
-2 1 11 10.78 2.31
-2 1 11 9.61 2.28
-2 1 11 15.28 2.53
-2 -1 11 10.72 2.32
-2 1 11 10.44 2.37
-2 -1 12 -0.29 1.35
-2 1 12 1.77 1.54
-2 1 12 0.46 1.06
-2 -1 12 -0.63 0.96
-2 -1 13 31.12 3.35
-2 1 13 38.37 3.47
-2 -1 13 32.6 3.34
-2 1 13 35.25 3.54
-2 1 13 35.02 3.75
-2 -1 14 3.43 1.28
-2 -1 14 2.06 1.25
-2 1 14 2.76 1.37
-2 -2 -7 41.14 8.02
-2 -2 -6 18.6 5.33
-2 -2 -5 13.77 4.66
-2 2 -4 77.02 6.71
-2 -2 -4 71.34 8.97
-2 -2 -3 589.57 23.92
-2 2 -3 628.49 18.66
-2 2 -2 194.47 10.13
-2 -2 -2 205.99 13.49
-2 -2 -2 203.8 10.85
-2 2 -2 199.75 11.39
-2 -2 -1 42.06 5.83
-2 -2 -1 42.1 5.25
-2 2 -1 35.91 5.01
-2 -2 0 8.68 2.92
-2 2 0 4.18 1.17
-2 -2 0 4.81 2.48
-2 2 0 1.46 1.79
-2 2 1 73.94 7.45
-2 -2 1 87.16 7.77
-2 -2 1 70.55 7.15
-2 2 1 85.1 5.3
-2 2 2 256.46 14.23
-2 -2 2 283.05 13.65
-2 -2 2 267.16 14.42
-2 2 2 267.12 10.46
-2 -2 3 81.43 7.53
-2 -2 3 72.84 8.02
-2 2 3 71.09 6.08
-2 2 4 942.81 24.32
-2 -2 4 936.57 28.25
-2 2 4 926.22 23.42
-2 -2 4 979.98 29.91
-2 2 4 957.28 26.86
-2 -2 4 865.11 29.06
-2 2 5 619.15 20.77
-2 -2 5 618.08 20.85
-2 2 5 615.58 21.04
-2 2 5 641.62 24.48
-2 -2 5 606.41 24.63
-2 -2 5 637.89 25.58
-2 -2 5 607.02 26.01
-2 -2 6 55.04 8.44
-2 2 6 59.33 7.16
-2 -2 6 48.62 6.48
-2 -2 6 55.24 8.22
-2 2 6 56.35 6.97
-2 2 6 62.06 8.51
-2 -2 6 51.24 7.82
-2 2 7 12.73 4.64
-2 2 7 7.37 2.82
-2 -2 7 12.01 4.32
-2 -2 7 13.71 4.27
-2 -2 7 9.46 4.66
-2 -2 8 42.62 8.3
-2 2 8 39.15 6.62
-2 -2 9 45.64 4.47
-2 2 9 38.64 3.77
-2 2 9 47 4.19
-2 -2 9 44.31 3.87
-2 2 9 49.95 4.47
-2 2 9 47.46 4.38
-2 2 9 46.31 4.47
-2 2 10 172.87 8.03
-2 -2 10 156.7 8.41
-2 -2 10 165.29 8.11
-2 2 10 156.11 7.64
-2 -2 10 163.79 7.56
-2 2 10 162.6 8.09
-2 2 10 153.71 7.96
-2 2 10 163.97 8.4
-2 2 11 2.29 1.38
-2 -2 11 3.33 1.7
-2 2 11 9.12 2.19
-2 2 11 3.63 1.45
-2 -2 11 4.05 1.55
-2 -2 11 3.92 1.46
-2 2 11 3.42 1.32
-2 -2 12 6.3 1.69
-2 2 12 6.65 1.85
-2 -2 12 5.03 1.79
-2 -2 12 3.79 1.44
-2 2 12 6.23 1.72
-2 2 12 3 1.74
-2 -2 13 2.37 1.27
-2 -2 13 5.33 1.45
-2 2 13 4.74 1.79
-2 -2 14 6.72 1.38
-2 2 14 6.95 1.73
-2 -3 -5 121.87 13.94
-2 -3 -4 1.81 2.52
-2 -3 -3 46.97 8.14
-2 -3 -2 70.24 9.54
-2 -3 -1 10.53 3
-2 -3 -1 7.25 3.44
-2 -3 0 201.73 15.05
-2 -3 0 199.26 14.74
-2 -3 1 264.67 17.16
-2 -3 1 241.32 16.53
-2 -3 2 33.68 6.49
-2 -3 2 27.53 5.84
-2 3 2 38.79 4.86
-2 3 3 213.98 12.39
-2 -3 3 214.26 15.49
-2 -3 3 207.5 16.15
-2 -3 4 0.21 2
-2 3 4 8.81 3.06
-2 3 4 3.6 2.36
-2 -3 4 8.2 4.27
-2 3 5 111.01 10.54
-2 3 5 112.83 10.26
-2 -3 5 98.65 12.13
-2 -3 5 93.46 11.98
-2 -3 6 70.11 10.77
-2 -3 6 50.45 8.94
-2 3 6 47.63 7.11
-2 3 6 40.82 6.81
-2 3 7 146.04 7.06
-2 3 7 138.93 7.18
-2 -3 7 140.49 6.98
-2 3 8 83.16 5.53
-2 -3 8 89.49 5.72
-2 3 8 79.79 5.68
-2 -3 9 19.77 3.13
-2 -3 9 24.25 3.15
-2 3 9 20.75 2.91
-2 3 9 19.71 3.13
-2 3 10 10.38 2.07
-2 -3 10 9.48 2.26
-2 3 10 6.31 1.95
-2 3 10 4.91 2.06
-2 -3 11 3.31 1.64
-2 -3 11 2.97 1.61
-2 3 11 2.11 1.19
-2 3 11 4.11 1.6
-2 3 11 1.58 1.43
-2 -3 12 6.99 1.74
-2 3 12 8.86 1.85
-2 -3 12 7.88 1.86
-2 3 12 5.72 1.63
-2 3 12 4.82 1.83
-2 -3 13 0.05 0.83
-2 3 13 1.23 0.89
-2 -4 0 39 8.14
-2 -4 0 42.68 9.06
-2 -4 1 -4.24 2.83
-2 -4 1 6.66 3.95
-2 4 2 33.97 3.49
-2 -4 2 40.39 8.25
-2 4 3 126.08 6.59
-2 4 3 128.98 6.6
-2 -4 3 131.92 6.94
-2 4 4 1.87 1.23
-2 4 4 4.16 1.42
-2 -4 4 6.15 1.92
-2 4 5 59.31 4.66
-2 4 5 63.98 4.86
-2 -4 5 55.07 4.74
-2 -4 6 10.32 2.16
-2 4 6 9.7 2.05
-2 4 6 9.84 2.25
-2 4 7 55.59 4.58
-2 4 7 58.6 4.69
-2 -4 7 49.2 4.44
-2 4 8 21.17 2.93
-2 4 8 16.01 2.46
-2 -4 8 19.97 3.02
-2 4 9 10.08 2.12
-2 -4 9 15.02 2.48
-2 4 9 15.56 2.59
-2 -4 10 1.67 1.24
-2 -4 10 0.96 1.03
-2 4 10 0.46 1.02
-2 4 10 -0.14 0.94
-2 -4 11 1.54 1.17
-2 -4 11 2.82 1.23
-2 4 11 3.09 1.23
-2 4 11 3.26 1.34
-2 5 -1 10.42 2.04
-2 5 0 37.53 3.76
-2 5 1 22.09 3.08
-2 5 2 6.78 1.95
-2 -5 2 12.96 2.65
-2 5 2 13.32 2.4
-2 -5 3 34.06 3.71
-2 5 3 33.94 3.6
-2 5 3 24.44 3.2
-2 5 4 11.7 2.23
-2 5 4 13.61 2.53
-2 -5 4 12.15 2.4
-2 5 5 28.32 3.19
-2 5 5 30.98 3.52
-2 -5 5 30.27 3.59
-2 5 6 35.79 3.48
-2 5 6 32.19 3.48
-2 -5 6 32.86 3.64
-2 5 7 7.94 1.72
-2 -5 7 6.38 1.73
-2 5 7 9.38 1.94
-2 5 7 11.23 2.1
-2 -5 8 0.23 0.99
-2 5 8 0.97 0.88
-2 5 8 0.41 0.81
-2 5 8 1.82 1.1
-2 -5 8 -0.13 1.02
-2 -5 9 5.29 1.51
-2 5 9 5.95 1.3
-2 -5 9 3.33 1.11
-2 5 9 5.23 1.39
-2 -5 9 7.47 1.56
-2 -6 -4 0.94 0.93
-2 -6 -3 1.69 1.2
-2 -6 -2 5.77 1.63
-2 6 -1 1.96 1.07
-2 -6 -1 0.75 1.04
-2 6 0 28.06 2.81
-2 -6 0 31.15 3.2
-2 6 1 14.14 2.06
-2 -6 1 13.83 2.27
-2 6 2 2.27 0.99
-2 -6 2 1.14 1.09
-2 -6 3 2.26 1.27
-2 6 3 4.25 1.19
-2 6 3 3.36 1.35
-2 6 4 0.23 0.61
-2 6 4 0.87 1.04
-2 -6 4 -1.62 1.23
-2 -6 5 3.52 1.18
-2 6 5 0.15 0.75
-2 6 5 1.93 0.97
-2 6 6 1.83 0.89
-2 -6 6 2.55 0.94
-1 0 0 1257.61 12.5
-1 0 1 7.25 0.98
-1 0 1 8.25 1.35
-1 0 1 5.16 1.04
-1 0 2 3656.13 28.87
-1 0 2 3689.81 24.39
-1 0 2 3706.77 23.86
-1 0 3 1.36 1.38
-1 0 3 0.37 1.05
-1 0 3 0.61 0.78
-1 0 3 0.07 1.05
-1 0 4 274.08 12.19
-1 0 4 252.28 9.01
-1 0 4 261.18 9.54
-1 0 4 238.74 11.33
-1 0 4 272.48 12.2
-1 0 4 257.9 12.12
-1 0 4 270.38 9.92
-1 0 5 0.66 1.4
-1 0 5 0.46 1.34
-1 0 5 -1.33 1.32
-1 0 5 0.21 1.12
-1 0 5 -0.44 1.91
-1 0 5 0.71 1.39
-1 0 6 18.18 4.12
-1 0 6 23.69 3.85
-1 0 6 30.53 4.19
-1 0 6 21.28 4.81
-1 0 7 1.22 1.64
-1 0 7 -0.28 1.5
-1 0 7 0.14 1.72
-1 0 7 0.04 1.71
-1 0 8 67.38 7.29
-1 0 8 70.84 7.78
-1 0 8 62.72 9.84
-1 0 9 -5.53 3.68
-1 0 10 63.01 4.88
-1 0 10 60 4.58
-1 0 10 63.62 5.09
-1 0 11 0.12 0.94
-1 0 11 1.15 1.34
-1 0 12 8.15 2.02
-1 0 12 9.33 2.13
-1 0 13 0.14 1.12
-1 0 13 3.14 1.53
-1 0 14 5.62 1.57
-1 1 -5 254.1 11.1
-1 1 -4 10.65 1.96
-1 1 -4 7.7 2.09
-1 1 -3 100.43 5.33
-1 -1 -3 102.29 4.11
-1 1 -3 98.59 4.34
-1 1 -3 99.48 6.02
-1 1 -2 447.42 10.46
-1 1 -2 416.88 11.22
-1 -1 -2 456.8 10.03
-1 1 -2 431.41 10.47
-1 1 -1 379.72 9.55
-1 -1 -1 404.19 10.32
-1 1 -1 404.91 10.65
-1 1 0 2486.73 28.05
-1 -1 0 2481.4 27.39
-1 -1 1 737.38 16.1
-1 1 1 739.27 16.17
-1 -1 1 729.41 11.82
-1 -1 1 744.23 15.11
-1 1 1 741.37 12.35
-1 1 1 705.95 11.47
-1 -1 2 4985.21 36.05
-1 1 2 5027.68 44.77
-1 -1 2 5070.1 40.01
-1 -1 2 5125.18 33.72
-1 1 2 5011.08 41.11
-1 -1 2 4988.27 45.03
-1 -1 3 2494.62 29.2
-1 1 3 2484.28 29.21
-1 1 3 2551.17 34.82
-1 -1 3 2570.63 35.75
-1 -1 3 2584.38 34.79
-1 1 4 449.23 13.9
-1 1 4 487.93 12.03
-1 1 4 414.53 13.39
-1 -1 4 420.14 13.42
-1 -1 4 449.71 15.42
-1 1 4 441.52 16.6
-1 -1 4 439.51 16.78
-1 -1 4 453.15 15.74
-1 -1 4 432.85 17.15
-1 1 5 254.18 11.67
-1 -1 5 237.01 12.76
-1 1 5 225.56 13.4
-1 -1 5 225.3 13.56
-1 -1 5 249.87 11.54
-1 -1 5 267.38 12.92
-1 -1 5 247.95 14.55
-1 -1 6 46.58 6.62
-1 1 6 55.15 6.12
-1 -1 6 56 6.2
-1 1 6 51.27 7.17
-1 -1 6 46.26 6.91
-1 -1 6 51.51 7.39
-1 -1 6 47.45 5.92
-1 1 7 11.75 3.38
-1 -1 7 12.97 3.58
-1 1 7 7.34 3.09
-1 -1 7 7.59 3.14
-1 -1 8 124.78 12.95
-1 1 8 119.1 10.51
-1 -1 8 114.23 10.36
-1 1 8 96.77 11.62
-1 -1 8 114.42 13.1
-1 1 9 19.99 5.7
-1 -1 9 34.24 6.03
-1 1 9 29.14 5.69
-1 -1 9 31.54 7.53
-1 -1 10 111.31 6.92
-1 1 10 121.52 6.76
-1 -1 10 104.45 6.39
-1 1 10 106.13 6.25
-1 1 10 116.47 6.28
-1 -1 10 107.48 6.14
-1 1 10 113.27 6.94
-1 -1 11 30.75 3.89
-1 -1 11 27.08 3.34
-1 1 11 27.99 3.41
-1 1 11 33.39 3.7
-1 1 11 33.44 3.56
-1 -1 11 31.78 3.49
-1 1 11 32.49 3.94
-1 -1 12 1.65 1.08
-1 1 12 6.51 2
-1 1 12 5.22 1.75
-1 -1 12 3.16 1.36
-1 -1 13 13.66 2.28
-1 -1 13 11.4 2.12
-1 1 13 10.76 2.16
-1 -1 14 0.99 0.9
-1 1 14 0.48 1.16
-1 -2 -7 6.73 3.17
-1 -2 -6 0.26 1.63
-1 -2 -5 214.18 15.28
-1 2 -5 237.79 12.03
-1 2 -4 299.21 13.99
-1 -2 -4 298.88 16.97
-1 2 -4 299.49 13.01
-1 2 -3 461.53 16.27
-1 2 -3 488.42 16.03
-1 -2 -3 485.73 20.28
-1 -2 -3 481.86 16.11
-1 2 -2 245.5 11.3
-1 2 -2 262.29 11.4
-1 -2 -2 240.73 13.62
-1 2 -1 -0.02 1.41
-1 -2 -1 -0.03 1.76
-1 -2 -1 1.21 1.85
-1 -2 0 197.74 11.55
-1 -2 0 182.37 10.77
-1 2 0 178.1 8.96
-1 2 1 660.6 17.09
-1 -2 1 681.76 20.99
-1 -2 1 621.74 20.54
-1 2 1 687.21 14.21
-1 2 2 149.08 7.94
-1 -2 2 148.26 7.63
-1 -2 2 153.54 10.14
-1 -2 2 141.44 10.23
-1 2 2 148.58 8.28
-1 -2 3 184.88 9.47
-1 2 3 190.65 9.78
-1 -2 3 191.24 12.34
-1 2 3 201.2 11.19
-1 -2 3 199.48 11.38
-1 -2 3 198.47 9.79
-1 -2 3 191.12 12.72
-1 -2 4 182.33 10.55
-1 2 4 151.37 9.44
-1 -2 4 148.98 9.4
-1 2 4 167.5 10.21
-1 2 4 167.64 11.48
-1 -2 4 153.52 11.13
-1 -2 4 160.22 11.83
-1 -2 4 141.15 11.79
-1 -2 5 112.21 9.41
-1 2 5 92.09 8.07
-1 -2 5 108.33 8.78
-1 2 5 95.6 8.37
-1 2 5 96.25 9.71
-1 -2 5 96.59 9.78
-1 -2 5 100.6 9.94
-1 -2 5 96.78 10.46
-1 -2 6 65.14 9.2
-1 2 6 71.34 7.72
-1 -2 6 72.2 7.81
-1 2 6 73.45 7.72
-1 -2 6 71.43 8.44
-1 2 6 77.18 9.42
-1 -2 6 72.86 8.83
-1 -2 7 73.18 10.52
-1 2 7 67.91 8.18
-1 -2 7 63.81 7.97
-1 2 7 68.58 9.84
-1 -2 8 61.44 10.15
-1 2 8 45.45 8.46
-1 2 8 73.11 8.96
-1 -2 8 58.06 7.78
-1 -2 9 23.89 3.27
-1 2 9 21.1 2.82
-1 2 9 20.61 3.09
-1 -2 9 25.99 3.1
-1 -2 9 19.95 2.75
-1 2 9 23.06 3.18
-1 2 10 77.95 5.59
-1 -2 10 76.06 5.85
-1 -2 10 71.85 5.51
-1 -2 10 69.67 4.95
-1 2 10 76.48 5.51
-1 2 10 74.04 5.27
-1 2 10 64.82 5.33
-1 -2 11 15.57 2.92
-1 2 11 13.87 2.63
-1 -2 11 10.94 2.25
-1 2 11 10.28 2.27
-1 2 11 13.58 2.45
-1 2 11 14.02 2.67
-1 -2 11 15.69 2.51
-1 2 11 15.15 2.54
-1 -2 12 1.96 1.31
-1 2 12 4.15 1.58
-1 -2 12 3.87 1.38
-1 2 12 5.96 1.78
-1 2 12 2.65 1.4
-1 -2 13 2.41 1.29
-1 -2 13 3.76 1.38
-1 2 13 1.95 1.31
-1 -2 14 1.47 0.98
-1 2 14 3.22 1.31
-1 -3 -6 28.8 6.65
-1 -3 -5 52.59 9.03
-1 3 -5 41.5 6.42
-1 3 -4 6.83 2.83
-1 -3 -4 15.18 4.84
-1 -3 -3 142.72 13.45
-1 3 -3 168.34 11.94
-1 -3 -2 435.15 20.79
-1 -3 -2 443.7 22.62
-1 3 -2 401.88 17.82
-1 3 -1 181.91 11.8
-1 -3 -1 155.37 12.64
-1 -3 -1 163.18 13.64
-1 3 0 18.66 3.86
-1 -3 0 20.97 5.11
-1 -3 0 17.02 4.21
-1 -3 1 101 10.51
-1 -3 1 76.88 9.31
-1 3 1 84.61 6.93
-1 -3 2 28.29 5.97
-1 3 2 23.85 4.09
-1 -3 2 19.01 5.06
-1 3 3 137.37 10.03
-1 -3 3 132.51 12.94
-1 -3 3 142.52 13.57
-1 3 4 124.11 10.16
-1 -3 4 123.4 9.78
-1 3 4 118.27 10.36
-1 -3 4 128.47 12.94
-1 -3 4 117.55 12.89
-1 -3 5 14.61 4.93
-1 -3 5 6.38 3.4
-1 3 5 9.74 3.5
-1 -3 5 11.37 3.66
-1 3 5 10.34 3.8
-1 -3 6 89.42 12.19
-1 3 6 83.01 9.37
-1 -3 6 95.32 10.11
-1 3 6 93.91 10.14
-1 -3 6 95.53 12.18
-1 3 7 135 6.74
-1 3 7 137.29 7.12
-1 -3 7 134.03 6.94
-1 -3 8 71.72 5.55
-1 3 8 71.68 5.17
-1 -3 8 67.48 5.04
-1 3 8 67.48 5.21
-1 -3 9 9.96 2.01
-1 -3 9 10.67 2.3
-1 3 9 7.94 1.92
-1 3 9 8.93 2.24
-1 3 9 10.2 2.16
-1 -3 10 1.29 1.05
-1 -3 10 1.33 1.38
-1 3 10 -0.18 1.06
-1 3 10 0.04 1.01
-1 3 10 4.08 1.83
-1 -3 11 5.47 1.7
-1 -3 11 3.78 1.41
-1 3 11 7.42 1.84
-1 3 11 6.73 1.93
-1 3 11 6.63 1.98
-1 -3 12 4 1.51
-1 -3 12 3.22 1.43
-1 3 12 2.39 1.14
-1 3 12 2.56 1.18
-1 3 12 3.09 1.59
-1 -3 13 4.2 1.22
-1 3 13 2.72 0.99
-1 3 13 5.8 1.67
-1 -4 -1 61.33 9.67
-1 -4 -1 68.78 11.03
-1 -4 0 -11.14 4.19
-1 -4 0 -8.35 3.92
-1 -4 1 2.02 1.79
-1 -4 1 8.49 4.06
-1 -4 2 11.56 4.75
-1 4 3 18.32 2.53
-1 4 3 17.5 2.57
-1 -4 3 16.01 2.6
-1 4 4 4.38 1.56
-1 4 4 3.37 1.42
-1 -4 4 3.39 1.53
-1 4 5 131.06 6.77
-1 4 5 125.88 6.68
-1 -4 5 123.08 6.91
-1 4 6 41.11 3.91
-1 4 6 38.68 3.83
-1 -4 6 37.1 3.9
-1 4 7 21.12 2.92
-1 4 7 21.8 2.92
-1 -4 7 21.35 3.15
-1 -4 8 3.96 1.64
-1 -4 8 2.84 1.5
-1 4 8 6.41 1.72
-1 4 8 5.6 1.67
-1 -4 9 29.96 3.63
-1 4 9 28.38 3.06
-1 -4 9 32.73 3.53
-1 -4 10 -0.65 1.1
-1 -4 10 -0.22 0.8
-1 4 10 -0.96 1
-1 4 10 0.87 1.22
-1 -4 11 2.95 1.17
-1 -4 11 2.28 1.13
-1 4 11 0.35 0.78
-1 4 11 2.27 1.17
-1 5 -1 5.43 1.74
-1 5 0 27.54 3.24
-1 -5 1 28.6 3.65
-1 5 1 34.8 3.67
-1 5 2 7.21 2.09
-1 5 2 5.67 1.74
-1 -5 2 4.73 1.88
-1 5 3 6.17 1.72
-1 5 3 5.1 1.7
-1 -5 3 6.64 2
-1 5 4 82.25 5.35
-1 5 4 68.35 5.1
-1 -5 4 72.74 5.4
-1 5 5 1.66 0.85
-1 5 5 1.35 1.04
-1 -5 5 3.35 1.5
-1 5 6 0.79 0.95
-1 5 6 1.2 1.2
-1 -5 6 -0.7 1.32
-1 -5 7 4.96 1.77
-1 5 7 6.24 1.72
-1 5 7 4.11 1.43
-1 -5 7 7.35 1.87
-1 -5 8 11.87 2.11
-1 5 8 17.01 2.11
-1 -5 8 11.27 2.04
-1 5 8 12.32 1.99
-1 5 8 14.15 2.21
-1 5 9 2.15 0.91
-1 -5 9 3.43 1.24
-1 5 9 3.3 1.29
-1 -6 -5 11.71 1.72
-1 -6 -4 11.26 1.9
-1 -6 -3 4.71 1.42
-1 6 -2 19.97 2.32
-1 -6 -2 17.25 2.41
-1 6 -1 8.08 1.64
-1 -6 -1 7.59 1.81
-1 6 0 3.95 1.29
-1 -6 0 5.62 1.72
-1 6 1 32.56 2.94
-1 6 1 27.19 2.83
-1 -6 1 28.54 3.16
-1 6 2 3.5 1.15
-1 6 2 2.79 1.03
-1 -6 2 3.51 1.48
-1 6 3 -0.03 0.9
-1 -6 3 0.7 1.03
-1 6 4 5.93 1.49
-1 -6 4 4.44 1.43
-1 6 5 0.35 0.8
-1 -6 5 3 1.18
-1 6 6 1.1 0.82
-1 -6 6 2.29 1.04
0 0 -5 -0.39 0.92
0 0 -4 502.16 8.47
0 0 -4 496.57 10.02
0 0 1 0.32 0.31
0 0 1 0.07 0.45
0 0 2 77.13 3.4
0 0 2 66.56 4.13
0 0 2 73.68 2.9
0 0 3 0.4 1.12
0 0 3 0.16 0.79
0 0 3 0.5 0.86
0 0 4 498.82 17.01
0 0 4 546.33 13.15
0 0 4 475.23 15.99
0 0 4 503.94 17.51
0 0 4 544.58 10.85
0 0 5 -1.2 1.62
0 0 5 0.63 1.46
0 0 5 -0.24 1.11
0 0 5 2.57 1.59
0 0 6 951.33 22.64
0 0 6 929.65 29.59
0 0 6 935.73 22.26
0 0 6 921.51 28.33
0 0 6 896.86 29.89
0 0 7 -0.59 1.6
0 0 7 5.12 2.88
0 0 7 -2.35 1.75
0 0 7 0.54 1.29
0 0 7 2.14 2.2
0 0 8 110.22 9.46
0 0 8 92.25 11.02
0 0 8 115.78 13.1
0 0 9 1.71 1.59
0 0 9 -8.12 3.72
0 0 10 42.97 4.16
0 0 10 44.83 4.08
0 0 10 41.54 4.17
0 0 11 0.02 1.39
0 0 11 0.93 1.32
0 0 11 -1.26 1.09
0 0 12 28.99 3.48
0 0 12 25.82 3.16
0 0 12 28.7 3.51
0 0 13 0.87 1.23
0 0 14 -0.41 0.92
0 1 -6 147.75 8.92
0 1 -5 471.22 14.66
0 1 -5 467.84 12.97
0 1 -4 307.63 9.95
0 1 -4 291.77 10.69
0 1 -3 1621.52 21.38
0 1 -3 1635.75 23.2
0 1 -2 3253.3 28.35
0 -1 -2 3227.79 35.14
0 1 0 1889.4 17.86
0 1 0 1859.56 15.84
0 1 1 586.87 10.51
0 1 1 573.69 11.91
0 -1 1 554.07 10.94
0 1 2 3331.01 35.04
0 -1 2 3277.96 34.59
0 -1 2 3218.95 33.03
0 1 3 1739.21 14.23
0 1 3 1603.11 23.14
0 1 3 1667.33 29.02
0 -1 3 1692.99 26.62
0 -1 3 1603.14 27.95
0 -1 4 307.02 13.61
0 1 4 301.76 11.44
0 1 4 319.06 8.02
0 1 4 288.12 10.97
0 1 4 297.78 14.03
0 -1 4 309.71 12.23
0 -1 4 296.46 14.41
0 -1 5 442.14 18.55
0 -1 5 427.09 19.27
0 1 5 439.46 15.31
0 1 5 467.27 11.76
0 1 5 438.11 18.98
0 -1 5 474.16 16.08
0 -1 6 136.03 11.56
0 1 6 156.94 10.14
0 -1 6 155.13 10.29
0 1 6 138.08 11.88
0 -1 6 136.93 12.17
0 1 7 22.97 5.46
0 -1 7 28.47 5.96
0 1 7 23.86 4.42
0 -1 7 22.84 4.46
0 -1 7 23.41 5.79
0 -1 8 35.38 7.38
0 1 8 31.94 5.63
0 -1 8 23.97 5.14
0 1 8 25.92 5.92
0 -1 8 31.3 6.92
0 1 9 230.83 9.02
0 -1 9 227.23 19.33
0 -1 9 219.86 8.88
0 1 9 245.57 16.29
0 -1 9 236.81 16.23
0 1 9 235.66 9.59
0 1 10 62.22 4.95
0 -1 10 62.71 4.97
0 -1 10 61.55 5.23
0 1 10 58.8 4.71
0 1 10 63.23 4.78
0 -1 10 60.62 4.7
0 1 10 65.38 5.33
0 1 11 59.1 4.91
0 -1 11 54.49 4.74
0 1 11 54.06 4.47
0 -1 11 54.04 4.5
0 1 11 61.1 5.3
0 -1 12 0.08 1.32
0 1 12 2.3 1.4
0 -1 12 3.47 1.47
0 1 12 3.98 1.65
0 -1 13 2.06 1.08
0 1 13 4.65 1.67
0 -1 14 1.14 0.91
0 1 14 -0.05 1.24
0 2 -7 181.38 12.71
0 2 -6 6.02 2.29
0 -2 -6 8.18 3.52
0 2 -6 3.51 2.11
0 2 -5 542.87 18.2
0 -2 -5 535.32 22.51
0 2 -5 547.05 19.44
0 2 -4 267.4 12.29
0 -2 -4 265.11 15.02
0 2 -4 261.88 12.66
0 2 -3 248.65 11.64
0 2 -3 244.56 11.26
0 -2 -3 257.18 14.04
0 2 -2 560.65 16.36
0 2 -2 546.93 16.1
0 -2 -2 563.08 19.79
0 2 -1 28.61 3.79
0 2 -1 18.54 1.59
0 -2 -1 26.85 4.5
0 2 -1 32.35 3.86
0 2 0 103.52 6.74
0 -2 0 107.83 4.69
0 -2 0 100.74 8.31
0 2 0 109.97 5.31
0 2 0 105.72 6.39
0 2 1 27.53 3.6
0 -2 1 26.81 2.89
0 2 1 31.11 3.59
0 -2 1 27.33 4.58
0 -2 1 26.81 3
0 2 2 571.39 15.18
0 -2 2 545.91 14.67
0 2 2 555.04 17.06
0 -2 2 547.46 15.63
0 -2 3 249.06 11.08
0 2 3 255.38 13.15
0 -2 3 246.5 12.19
0 -2 3 250.05 13.87
0 -2 3 237.39 14.22
0 -2 4 274.39 14.28
0 2 4 272.14 12.89
0 -2 4 252.07 12.31
0 2 4 246.61 12.32
0 -2 4 261.72 14.86
0 2 4 270.25 15.03
0 -2 4 250.01 15.65
0 2 5 533.75 19.46
0 -2 5 504.28 18.9
0 2 5 475.1 18.16
0 -2 5 548.46 22.22
0 2 5 570.32 24.11
0 -2 5 534.78 22.18
0 -2 5 529.8 24.41
0 -2 6 6.09 2.97
0 -2 6 14.13 4.31
0 2 6 4.91 2.92
0 -2 6 4.73 2.64
0 2 6 8.16 2.84
0 -2 6 3.52 2.33
0 2 6 3.74 2.26
0 -2 7 203.07 16.36
0 2 7 186.01 13.58
0 -2 7 156.54 12.42
0 2 7 176.63 15.84
0 -2 7 190.75 17.01
0 2 8 93.55 12.48
0 -2 8 78.91 11.21
0 2 8 101.72 10.5
0 -2 8 99.05 10.62
0 -2 8 80.46 11.67
0 -2 9 4.29 1.72
0 2 9 2 1.34
0 -2 9 2.23 0.97
0 2 9 2.05 1.26
0 -2 9 3.13 1.42
0 2 9 4.09 1.48
0 -2 10 5.99 1.92
0 2 10 9.06 2.05
0 -2 10 4.98 1.7
0 2 10 6.71 1.91
0 -2 10 7.53 1.8
0 2 10 9.11 1.91
0 2 10 5.24 1.75
0 2 11 69.57 5.27
0 -2 11 70.88 5.5
0 -2 11 67.05 5.25
0 2 11 69.64 5.03
0 -2 11 67.97 4.85
0 2 11 64.7 4.88
0 2 11 61.6 5.19
0 -2 12 4.68 1.5
0 2 12 2.29 1.48
0 -2 12 5.31 1.64
0 2 12 2.66 1.33
0 -2 13 -0.29 0.88
0 2 13 1.15 1.18
0 3 -6 39.87 6.46
0 -3 -6 26.8 6.25
0 3 -5 42.51 6.36
0 -3 -5 36.37 7.1
0 3 -5 39.81 6.39
0 3 -4 34.93 5.99
0 3 -4 50.85 6.75
0 -3 -4 49.06 8
0 3 -3 49.4 6.49
0 3 -3 40.16 5.91
0 -3 -3 51.83 7.94
0 3 -2 201.12 12.29
0 3 -2 194.95 12.29
0 -3 -2 190.3 14.58
0 3 -1 104.26 8.83
0 -3 -1 121.18 11.59
0 3 0 44.93 5.83
0 -3 0 53.11 7.81
0 3 1 111.38 8.93
0 -3 1 108.09 10.92
0 -3 1 114.19 11.34
0 -3 2 204.87 15.26
0 -3 3 42.03 7.5
0 3 3 52.51 6.46
0 -3 3 49.4 5.76
0 -3 3 47.07 7.79
0 -3 4 44.24 8
0 -3 4 50.73 8.63
0 3 4 40.73 5.97
0 -3 4 41.13 5.75
0 -3 5 41.81 7.94
0 -3 5 38.7 7.89
0 3 5 37.96 7.15
0 3 5 34.92 5.87
0 -3 5 42.44 6.39
0 3 5 32.47 5.84
0 -3 6 13.62 4.72
0 -3 6 33.45 7.77
0 3 6 41.15 7.81
0 3 6 45.61 7.1
0 -3 6 35.56 6.41
0 3 6 34.13 6.16
0 3 7 27.69 3.12
0 3 7 25.85 3.06
0 3 7 28.29 3.2
0 3 7 31.57 3.48
0 -3 7 32.24 3.54
0 -3 8 28.2 3.49
0 3 8 29.29 3.34
0 3 8 24.6 3.19
0 3 8 24.92 3.2
0 -3 8 22.6 3.15
0 -3 9 42.09 4.35
0 3 9 41.51 3.9
0 3 9 45.62 4.38
0 -3 9 39.84 4.04
0 3 9 39.59 4.13
0 -3 10 0.67 1.21
0 3 10 2.41 1.24
0 3 10 0.31 1.31
0 3 10 1.17 1.17
0 -3 11 0.56 0.88
0 3 11 1.87 1.01
0 -3 11 2.71 1.41
0 3 11 0.66 1.05
0 3 11 1.32 1.46
0 -3 12 5.17 1.43
0 3 12 5.7 1.5
0 3 12 1.98 1.38
0 -3 13 0.69 0.71
0 3 13 2.75 1.36
0 4 -2 2.84 2.41
0 -4 -2 5.04 3.5
0 4 -1 11.39 3.88
0 -4 -1 7.97 3.77
0 4 0 5.31 2.84
0 -4 0 9.83 4.47
0 -4 0 14.19 4.67
0 -4 1 28.64 6.89
0 -4 2 2.73 3.35
0 -4 2 7.28 3.65
0 4 3 82.1 5.33
0 -4 3 76.63 5.32
0 4 4 8.47 1.79
0 4 4 7.24 1.87
0 -4 4 6.17 1.86
0 4 5 86.94 5.43
0 4 5 84.17 5.53
0 -4 5 79.55 5.6
0 4 6 40.97 3.79
0 4 6 39.55 3.86
0 -4 6 39.16 4.07
0 4 7 -2.45 1.32
0 4 7 -0.37 1.1
0 -4 7 -1.08 1.46
0 4 8 0.43 0.94
0 -4 8 -0.08 1.52
0 -4 9 45.18 4.06
0 -4 9 43.78 4.04
0 -4 10 7.44 1.76
0 4 10 5.86 1.74
0 -4 11 3.81 1.35
0 4 11 5.06 1.38
0 5 0 45.98 4.08
0 -5 0 42.44 4.22
0 5 1 14.45 2.32
0 5 1 13.88 2.45
0 -5 1 12.33 2.5
0 5 2 15.79 2.54
0 -5 2 12.57 2.54
0 5 3 83.34 5.59
0 -5 3 80.8 5.7
0 5 4 12.21 2.27
0 -5 4 12.2 2.52
0 5 5 2.83 1.33
0 -5 5 2.79 1.44
0 5 6 4.67 1.64
0 -5 6 2.68 1.26
0 5 7 13.67 2.2
0 -5 7 15.98 2.56
0 5 8 2.47 1.15
0 -5 8 3.15 1.34
0 -5 8 2.09 1.18
0 -5 9 7.97 1.57
0 5 9 6.4 1.24
0 -5 9 5.63 1.29
0 5 9 5.26 1.39
0 -6 -3 0.13 0.91
0 -6 -2 32.08 3.16
0 -6 -1 17.35 2.51
0 6 0 1.84 1
0 -6 0 -1.32 1.35
0 6 1 16.33 2.29
0 -6 1 18.89 2.51
0 6 2 26.86 2.81
0 -6 2 32.12 3.28
0 -6 3 -0.97 1.12
0 6 3 2 1.14
0 6 4 5.11 1.43
0 -6 4 7.59 1.69
0 -6 5 2.04 0.99
0 6 5 4.65 1.37
1 0 1 0.72 0.47
1 0 1 0.96 0.7
1 0 1 1.35 0.81
1 0 2 1118.77 15.47
1 0 2 1142.01 18.76
1 0 2 1096.82 19.01
1 0 3 0.35 0.72
1 0 3 -0.19 1.15
1 0 3 1.06 1.37
1 0 4 540.69 18.83
1 0 4 548.5 17.95
1 0 4 554.81 19.18
1 0 5 -2.72 1.87
1 0 5 0.99 1.03
1 0 5 -2.57 1.99
1 0 6 361.44 19.3
1 0 6 412.19 14.55
1 0 6 394.37 19.19
1 0 6 398.99 20.56
1 0 7 2.33 2.16
1 0 7 0.8 1.5
1 0 7 -1.57 2.16
1 0 8 274.23 20.16
1 0 8 318.4 16.49
1 0 8 273.46 19.19
1 0 8 312.49 21.99
1 0 9 -4.34 1.63
1 0 9 -0.16 1.15
1 0 9 -2.14 1.26
1 0 10 22.32 3.04
1 0 10 22.98 3.09
1 0 10 22.39 3.13
1 0 11 0.46 0.92
1 0 11 0.76 1.34
1 0 11 -0.03 1.06
1 0 12 36.74 3.83
1 0 12 42.34 4.14
1 0 13 -0.53 1.02
1 0 14 2.05 1.06
1 1 -7 8.98 2.66
1 1 -6 43.96 5.03
1 1 -6 46.29 4.71
1 -1 -6 48.91 5.73
1 1 -5 237 9.95
1 -1 -5 239.09 11.46
1 1 -4 432.42 12.59
1 -1 -4 458.02 9.4
1 -1 -4 425.08 13.78
1 1 -3 2503.29 28.28
1 -1 -3 2521.61 30.58
1 -1 -2 5045.63 31.03
1 -1 -2 4960.19 39.96
1 -1 -1 708.76 14.81
1 1 0 2548.56 22.8
1 -1 0 2496.27 19.62
1 1 1 424.68 8.67
1 -1 1 408.1 9.75
1 1 1 414.72 12
1 1 2 463.76 8.33
1 1 2 448.14 7.77
1 1 2 454.98 14.39
1 -1 2 452.25 8.67
1 -1 2 440.94 13.95
1 1 3 105.44 5.88
1 1 3 100.24 7.73
1 -1 3 106.57 5.75
1 -1 3 101.37 7.73
1 -1 4 8.28 2.23
1 -1 4 6.7 2.71
1 -1 4 7.47 2.1
1 -1 4 7.96 2.76
1 1 4 7.79 2.24
1 1 4 5.92 1.85
1 1 4 5.12 2.31
1 -1 5 244.89 14.82
1 1 5 259.44 11.96
1 -1 5 243.99 12.27
1 1 5 247.38 14.88
1 -1 5 242.71 14.9
1 -1 6 257.41 16.79
1 1 6 261.92 13.17
1 1 6 245.58 16.4
1 -1 6 260.46 14.45
1 -1 6 243.98 16.56
1 -1 7 203.4 16.32
1 1 7 222.25 13.3
1 -1 7 215.57 13.64
1 -1 7 219.54 17.33
1 1 7 210.35 16.44
1 -1 8 82.16 11.1
1 1 8 104.34 10.01
1 -1 8 106.2 10.37
1 1 8 92.77 11.94
1 -1 8 88.16 11.96
1 -1 9 4.45 1.57
1 1 9 6.95 1.8
1 -1 9 2.8 1.39
1 1 9 4.42 1.61
1 1 9 5.34 1.75
1 -1 9 2.32 1.36
1 1 9 1.51 0.89
1 1 10 36.77 3.98
1 -1 10 40.09 4.12
1 -1 10 36.12 3.74
1 1 10 41.13 4.37
1 1 11 20.01 2.96
1 -1 11 17.2 2.78
1 -1 11 23.18 3.13
1 1 11 17.71 2.91
1 1 12 2.04 1.43
1 -1 12 3.43 1.62
1 1 12 3.01 1.57
1 1 13 4.1 1.41
1 -1 13 1.27 1.11
1 -1 14 8.65 1.53
1 1 14 4.17 1.33
1 2 -8 51.44 7.28
1 2 -7 74.5 8.2
1 2 -6 70.73 7.6
1 2 -6 77.43 7.44
1 -2 -6 72.17 8.55
1 2 -5 89.74 7.98
1 2 -5 110.6 8.49
1 -2 -5 103.9 9.54
1 2 -4 152.14 9.81
1 2 -4 160.69 9.72
1 -2 -4 154.75 10.96
1 2 -3 194.27 10.28
1 2 -3 194.87 10.2
1 -2 -3 193.85 11.74
1 2 -2 141.86 8.32
1 2 -2 136.43 8.25
1 -2 -2 134.68 9.57
1 2 -1 685.76 16.8
1 2 -1 635.32 16.93
1 -2 -1 663.83 9.37
1 -2 -1 626.88 20.33
1 2 0 177.57 8.01
1 2 0 182.58 8.83
1 2 0 189.23 8.85
1 -2 0 177.03 10.82
1 2 1 0.06 1.3
1 2 1 1.33 1.37
1 2 2 265.99 10.14
1 2 2 260.95 12.94
1 -2 2 264.82 14.06
1 2 3 482.83 19.18
1 -2 3 454.93 19.71
1 -2 4 293.33 16.08
1 2 4 270.31 12.88
1 2 4 310.19 16.96
1 -2 4 311.38 16.14
1 -2 4 289.31 17.02
1 -2 5 238.59 15.69
1 2 5 226.39 13
1 2 5 213.55 12.24
1 2 5 246.33 16.51
1 -2 5 232.67 14.61
1 -2 5 226.72 16.29
1 -2 6 -2.88 2.06
1 2 6 2.58 2.48
1 -2 6 2.68 1.19
1 2 6 0.43 1.74
1 -2 6 -2.81 2.22
1 2 6 4.5 2.67
1 -2 7 8.93 2.97
1 2 7 9.71 4.4
1 -2 7 21.19 5.62
1 2 7 13.92 3.97
1 -2 7 13.07 4.09
1 2 8 48.78 4.33
1 2 8 49.39 4.02
1 2 8 47.22 4.03
1 2 8 44.49 4.2
1 -2 8 48.96 4.33
1 -2 9 23.48 3.27
1 2 9 18.99 2.96
1 -2 9 22.08 3.09
1 2 9 18.23 2.53
1 2 9 16.8 2.53
1 -2 9 25.86 3.1
1 2 9 18.75 2.96
1 -2 10 3.2 1.41
1 2 10 3.17 1.78
1 -2 10 -0.81 1.02
1 2 10 1.57 1.29
1 -2 10 0.88 1.13
1 2 10 0.01 0.85
1 -2 11 12.41 2.51
1 2 11 9.75 2.19
1 -2 12 4.77 1.53
1 2 12 4.47 1.67
1 2 12 4.79 1.58
1 -2 13 0.65 0.83
1 2 13 -1.17 1.44
1 3 -6 82.13 9.27
1 3 -6 92.54 9.88
1 3 -5 10.63 3.51
1 -3 -5 7.44 3.28
1 3 -5 11.52 3.89
1 3 -4 132.68 10.96
1 3 -4 128.78 10.72
1 -3 -4 120.63 12.06
1 3 -3 149.13 10.92
1 3 -3 126.02 10.28
1 -3 -3 124.8 12.06
1 3 -2 28.58 4.74
1 3 -2 30.54 5.1
1 -3 -2 28.19 5.75
1 3 -1 98.89 8.24
1 3 -1 88.95 8.19
1 -3 -1 85.75 9.83
1 3 0 20.2 3.59
1 3 0 15.04 3.79
1 -3 0 14.77 4.27
1 3 1 171.74 10.94
1 3 2 443.15 17.24
1 -3 3 153.92 10.42
1 3 3 162.42 12.75
1 -3 3 154.93 13.98
1 -3 3 148.51 13.92
1 -3 4 15.39 5
1 3 4 22.81 5.47
1 -3 4 14.19 4.77
1 -3 4 16.27 4.42
1 3 4 12.84 3.78
1 -3 4 14.92 3.87
1 -3 5 31.98 6.94
1 -3 5 29.75 6.45
1 3 5 47.01 8.09
1 3 5 30.83 5.7
1 -3 5 36.35 5.98
1 3 5 36.99 6
1 -3 6 10.69 4.22
1 3 6 3.12 2.28
1 -3 6 11.63 4.01
1 3 6 11.62 3.88
1 3 6 15.47 2.49
1 -3 6 13.13 2.35
1 3 7 57.42 4.59
1 -3 7 54.79 4.64
1 3 8 17.58 2.68
1 -3 8 14.01 2.45
1 3 8 14.06 2.52
1 -3 8 15.76 2.69
1 3 8 18.48 2.79
1 -3 9 26.6 3.42
1 -3 9 35.98 3.8
1 3 9 32.25 3.8
1 3 9 32.02 3.73
1 -3 10 2.55 1.34
1 3 10 3.34 1.65
1 3 10 4.48 1.61
1 -3 11 1.96 1.17
1 3 11 0.89 1.02
1 3 11 0.59 1.2
1 3 11 1.89 1.17
1 -3 12 2.32 1.06
1 3 12 0.98 1.07
1 4 -2 20.58 4.98
1 -4 -2 17.61 5.38
1 4 -1 -1.05 1.63
1 -4 -1 1.74 3.17
1 4 0 13.35 4.08
1 -4 0 12.71 4.79
1 4 1 63.21 8.14
1 -4 1 80 11.37
1 -4 2 33.74 7.42
1 4 2 37.47 6.21
1 4 2 32.9 3.53
1 4 3 18.93 2.62
1 4 3 23.71 3.04
1 4 3 20.02 2.81
1 -4 3 24 3.15
1 4 4 16.94 2.71
1 4 4 16.25 2.56
1 4 4 19.05 2.75
1 -4 4 15.39 2.66
1 4 5 26.67 3.21
1 4 5 28.01 3.26
1 -4 5 23.95 3.27
1 4 6 2.86 1.29
1 4 6 1.27 1.26
1 -4 6 5.65 1.86
1 4 7 52.36 4.38
1 -4 7 46.58 4.4
1 -4 8 1.73 1.21
1 4 8 2.36 1.4
1 -4 8 1.91 1.32
1 -4 9 12.65 2.27
1 -4 9 13.51 2.38
1 4 9 11.31 1.97
1 -4 10 14.34 2.24
1 -4 10 10.56 1.81
1 4 10 14.01 2.22
1 -4 11 0.57 0.75
1 4 11 1.01 0.9
1 -5 -1 44.4 4.22
1 5 0 29.86 3.35
1 -5 0 31.29 3.57
1 5 1 3.84 1.55
1 -5 1 6.18 1.97
1 5 2 23.61 3.08
1 -5 2 23.74 3.24
1 5 3 3.96 1.47
1 -5 3 5.01 1.77
1 5 4 0.05 1.11
1 -5 4 1.67 1.45
1 5 5 3.63 1.46
1 -5 5 3.6 1.5
1 5 6 3.81 1.52
1 -5 6 2.72 1.28
1 5 7 3.66 1.25
1 -5 7 3.18 1.32
1 -5 7 3.88 1.55
1 -5 8 4.93 1.48
1 5 8 3.79 1.11
1 -5 9 -0.87 0.76
1 5 9 0.31 0.61
1 -5 9 -0.39 0.68
1 5 9 -0.21 0.74
1 -6 -2 1.56 0.96
1 -6 -1 30.18 3.05
1 -6 0 4.47 1.43
1 6 1 3.07 1.2
1 -6 1 9.66 1.88
1 6 2 12.86 2.01
1 -6 2 19.95 2.53
1 6 3 2.39 1.04
1 -6 3 1.95 1.17
1 6 4 8.5 1.66
1 -6 4 10.98 1.87
1 6 5 9.35 1.64
1 -6 5 11.7 1.76
2 0 -4 70.97 2.54
2 0 1 1.03 0.87
2 0 1 0.33 0.78
2 0 2 1114.86 18.19
2 0 2 1121.02 21.69
2 0 2 1100.88 20.6
2 0 3 -0.53 1.5
2 0 3 0.62 1.33
2 0 3 -0.12 1.38
2 0 3 -1.24 1.17
2 0 4 1558.98 34.3
2 0 4 1618.14 33.07
2 0 4 1612.5 34.32
2 0 5 -0.3 1.7
2 0 5 2.11 1.2
2 0 5 0.36 1.53
2 0 5 -0.46 2.37
2 0 6 970.46 33.41
2 0 6 945.62 30.97
2 0 6 1004.86 34.05
2 0 7 3.63 2.32
2 0 7 -2.42 2.12
2 0 7 -2.49 2.14
2 0 8 140.93 14.84
2 0 8 129.47 13.72
2 0 9 -0.45 0.97
2 0 9 -1.89 1.47
2 0 9 -0.27 1.09
2 0 9 -1.35 0.99
2 0 10 56.32 4.74
2 0 10 66.91 5.39
2 0 11 0.2 1.11
2 0 11 -0.63 0.98
2 0 12 3.18 1.47
2 0 12 4.44 1.54
2 0 13 1.7 0.98
2 1 -6 2.3 1.59
2 1 -5 319.18 12.38
2 -1 -5 328.94 10.45
2 1 -4 293.64 11.2
2 -1 -4 299.64 9.69
2 -1 -4 288.58 10.05
2 -1 -3 2587.56 27.4
2 -1 -3 2516.89 28.32
2 -1 -2 1783.55 22.35
2 -1 -2 1737.64 23.51
2 -1 -1 1429.86 20.02
2 1 1 425.98 10.6
2 -1 1 430.07 11.57
2 -1 1 417.93 11.95
2 -1 2 4.76 1.91
2 1 2 0.96 0.97
2 1 2 2.18 0.77
2 -1 2 1.67 1.34
2 1 2 2.07 1.6
2 -1 2 2.91 1.09
2 1 3 442.55 16.09
2 1 3 447.25 11.51
2 1 3 436.22 11.69
2 1 3 442.64 17.49
2 -1 3 457.79 13.17
2 -1 3 451.64 16.48
2 1 4 290 14.82
2 -1 4 289.03 15.55
2 1 4 318.2 11.03
2 1 4 290.9 15.57
2 -1 4 332.22 13.12
2 -1 4 344.7 12.49
2 -1 4 286.8 14.97
2 1 5 574.56 23.31
2 -1 5 527.67 22.99
2 1 5 585.18 18.55
2 1 5 562.31 23.66
2 -1 5 584.4 19.86
2 -1 5 588.53 23.87
2 -1 6 27 5.83
2 1 6 24.67 4.36
2 -1 6 31.17 6.05
2 1 6 21.91 5.24
2 -1 7 161.68 15.36
2 1 7 185.2 12.31
2 1 7 152.98 14.5
2 -1 7 163.93 15.21
2 1 8 35.42 7.94
2 -1 8 18.26 5.79
2 -1 8 20.29 4.71
2 -1 8 36.6 7.67
2 1 9 24.39 3.16
2 -1 9 26.36 3.32
2 -1 9 30.44 3.45
2 -1 9 24.26 3.1
2 1 9 25.69 3.37
2 1 10 49.44 4.52
2 -1 10 47.49 4.4
2 -1 10 55.33 4.55
2 1 10 48.38 4.66
2 1 11 25.38 3.26
2 -1 11 20.66 2.98
2 -1 11 20.05 2.76
2 1 11 22.09 3.15
2 1 12 13.18 2.36
2 -1 12 12.15 2.22
2 1 12 16.78 2.67
2 -1 13 -0.12 0.94
2 1 13 0.21 0.72
2 2 -8 38.91 6.51
2 2 -7 11.84 3.57
2 2 -7 10.47 3.19
2 2 -6 55.07 6.52
2 2 -5 655.2 21.08
2 -2 -5 670.15 22.6
2 2 -4 964.42 24.31
2 -2 -4 926.21 25.74
2 2 -3 72.16 6.58
2 -2 -3 64.18 6.82
2 2 -2 267.19 11.83
2 -2 -2 268.93 13.64
2 2 -1 83.91 6.43
2 -2 -1 76.44 7.38
2 2 0 4.76 1.88
2 2 1 39.98 4.21
2 2 1 34.63 4.94
2 2 2 215.85 9.13
2 2 2 210.95 12.72
2 -2 2 203.09 12.43
2 2 3 629.8 23.85
2 -2 3 650.55 23.75
2 2 4 71.02 6.78
2 2 4 78.36 9.17
2 -2 4 84.62 8.64
2 -2 4 70.46 8.52
2 -2 5 7.34 3.11
2 -2 5 14.12 4.58
2 2 5 14.22 3.63
2 2 5 17.95 3.8
2 2 5 14.16 4.43
2 2 6 15.61 4.77
2 -2 6 13.73 4.41
2 -2 6 12.37 4.41
2 2 6 21.68 4.44
2 2 7 45.91 8.63
2 -2 7 36.16 7.67
2 2 7 39.99 6.4
2 -2 7 47.15 7.25
2 -2 7 45.23 8.43
2 2 8 76.1 5.47
2 -2 8 69.89 5.18
2 -2 8 83.47 5.56
2 2 8 69.44 4.85
2 2 8 68.81 5.35
2 2 9 82.35 5.73
2 -2 9 85.64 5.81
2 2 9 84.09 5.42
2 2 9 83.08 6.02
2 -2 10 31.5 3.65
2 2 10 26.85 3.51
2 -2 11 6.15 1.56
2 -2 11 6.46 1.76
2 2 11 4.83 1.67
2 -2 12 -1.05 1.14
2 2 12 -0.85 1.37
2 2 12 -0.82 0.92
2 -2 13 6.6 1.4
2 2 13 4.12 1.46
2 3 -6 40.77 7.06
2 3 -6 43.38 7.01
2 3 -5 112.21 10.48
2 3 -5 97.89 9.92
2 3 -4 6.63 3.25
2 3 -4 6.47 2.69
2 -3 -4 7.91 3.49
2 3 -3 203.68 12.82
2 3 -3 202.34 13.09
2 -3 -3 193.08 14.8
2 3 -2 36.35 5.39
2 3 -2 38.63 5.68
2 -3 -2 32.34 6.17
2 3 -1 263.35 13.22
2 3 -1 251.27 13.83
2 -3 -1 265.2 17.21
2 3 0 215.71 11.4
2 3 0 185.69 11.69
2 3 1 19.41 3.98
2 3 2 81.26 7.46
2 3 2 85.16 9.34
2 -3 2 88.33 10.17
2 -3 3 57.89 8.5
2 3 3 46.84 7.49
2 -3 4 3.76 2.61
2 -3 4 3.38 2.58
2 3 4 6.96 3.05
2 3 4 4.6 3.33
2 -3 5 101.28 12.35
2 3 5 109.38 10.88
2 -3 5 92.55 11.77
2 -3 5 100.77 10.26
2 3 5 104.3 10.28
2 3 5 123.09 13.63
2 3 6 13.08 2.23
2 -3 6 12.49 2.36
2 3 7 116.84 6.57
2 -3 7 120.26 6.92
2 -3 7 112.18 6.62
2 3 7 118.64 6.88
2 3 8 47.73 4.24
2 -3 8 48.51 4.49
2 -3 8 50.69 4.56
2 3 8 53.04 4.75
2 -3 9 2.02 1.28
2 3 9 2.66 1.3
2 -3 9 1.65 1.15
2 3 9 -1.54 1.6
2 3 9 0.75 1
2 -3 10 1.3 1.26
2 3 10 -1.25 1.56
2 3 10 1.66 1.13
2 -3 11 0.88 0.93
2 -3 11 2.19 1.06
2 3 11 2.65 1.49
2 3 11 4.04 1.3
2 -3 12 4.98 1.22
2 -3 12 6.95 1.3
2 3 12 7.24 1.56
2 4 -2 22.96 5.07
2 4 -1 0.7 1.76
2 4 0 44.96 6.87
2 -4 1 105.32 13.29
2 4 1 103.57 10.61
2 4 1 101.31 6.03
2 4 2 32.72 3.43
2 4 2 39.26 3.83
2 -4 2 38.19 3.76
2 4 3 7.23 1.77
2 4 3 5.13 1.51
2 4 3 3.48 1.46
2 -4 3 2.35 1.47
2 4 4 1.19 0.95
2 4 4 2.52 1.28
2 4 4 2.67 1.41
2 -4 4 5.62 1.75
2 4 5 26.17 3.18
2 4 5 23.12 3.1
2 4 5 27.89 3.33
2 -4 5 21.87 3.2
2 4 6 5.52 1.64
2 4 6 6.84 1.88
2 -4 6 8.79 2.09
2 -4 7 48.87 4.62
2 4 7 41.55 4.02
2 4 7 43.77 4
2 -4 7 37.25 3.92
2 4 8 1.97 1.34
2 -4 8 -0.12 1.2
2 -4 8 2.03 1.37
2 -4 9 -1.19 0.98
2 4 9 0.13 0.76
2 -4 9 0.18 0.93
2 -4 10 5.87 1.43
2 4 10 6.86 1.54
2 -5 -1 23.61 3.15
2 5 0 44.39 3.99
2 -5 0 44.08 4.19
2 5 1 13.8 2.39
2 -5 1 9.39 2.16
2 5 2 3.55 1.47
2 -5 2 3.12 1.44
2 5 3 14.07 2.39
2 -5 3 11.06 2.24
2 5 4 5.05 1.69
2 -5 4 4.23 1.52
2 5 5 1.01 1.15
2 -5 5 -0.99 1.07
2 5 6 5.37 1.53
2 -5 6 6.48 1.91
2 -5 6 7.02 1.88
2 5 7 8.36 1.68
2 -5 7 9.93 1.91
2 -5 7 9.35 1.88
2 -5 8 1.75 0.86
2 -5 8 0.54 0.85
2 6 1 -0.17 0.82
2 -6 1 0.6 0.96
2 6 2 5.88 1.46
2 -6 2 5.86 1.62
2 6 3 3.45 1.2
2 -6 3 2.28 1.15
2 -6 3 2.04 1.09
2 6 4 0.59 0.79
2 -6 4 -0.69 0.96
3 0 1 1.39 1.1
3 0 2 142.06 8.93
3 0 2 155.39 9.52
3 0 2 171.48 6.61
3 0 3 1.58 1.9
3 0 3 1.7 1.47
3 0 3 1.18 1.79
3 0 3 0.9 1.28
3 0 4 951.89 28.81
3 0 4 1065.67 19.27
3 0 4 1081.96 24.65
3 0 4 939.32 27.51
3 0 4 1016.41 28.39
3 0 5 2.23 1.94
3 0 5 -0.12 0.88
3 0 5 4.2 2.27
3 0 6 168.16 14.66
3 0 6 183.19 14.54
3 0 7 1.15 1.31
3 0 7 -0.65 1.94
3 0 8 30.42 3.31
3 0 8 29.88 3.44
3 0 9 -1.62 1.21
3 0 9 -0.61 1.17
3 0 9 1.5 1.3
3 0 10 48.28 4.4
3 0 10 42.96 4.03
3 0 10 50.87 4.65
3 0 11 -0.57 1
3 0 11 1.57 1.13
3 0 11 -0.36 1.24
3 0 12 5.78 1.6
3 0 12 6.48 1.63
3 0 13 -0.21 0.82
3 1 -7 5.84 2.47
3 1 -6 296.84 13.68
3 -1 -6 286.97 11.8
3 -1 -4 471.11 14.27
3 -1 -3 500.45 14.16
3 -1 -2 1164.03 21.08
3 -1 -1 3446.05 35.8
3 1 0 225.02 6.12
3 -1 0 241.98 9.6
3 -1 0 242.1 7.44
3 1 1 516.73 13.08
3 -1 1 482.53 14.07
3 -1 1 525.77 13.17
3 1 2 144.91 8.51
3 1 2 151.64 5.57
3 -1 2 128.32 7.94
3 1 2 121.89 9.42
3 -1 2 131.86 7.33
3 -1 2 136.29 8.08
3 1 3 698.79 21.7
3 1 3 718.87 17.29
3 -1 3 683.67 19.74
3 1 3 756.03 14.88
3 1 3 679.74 23.91
3 -1 3 736.12 19.32
3 -1 3 753.37 21.96
3 1 4 372.49 17.83
3 -1 4 359.72 18.77
3 1 4 427.93 14.36
3 1 4 377.21 19.18
3 -1 4 418.68 18.59
3 1 5 24.17 5.06
3 -1 5 25.4 5.57
3 1 5 31.48 4.69
3 1 5 24.89 5.44
3 -1 5 24.52 5.08
3 -1 6 2.86 2.51
3 1 6 5.78 2.38
3 -1 6 4.25 2.35
3 1 6 0.69 1.22
3 1 7 3.3 2.33
3 -1 7 0.16 1.98
3 1 8 106.01 6.18
3 -1 8 108.05 6.21
3 1 8 104.77 6.1
3 1 8 116.54 6.86
3 1 9 40.49 4.01
3 -1 9 34.93 3.75
3 1 9 40.55 3.98
3 -1 9 35.94 3.71
3 1 9 31.2 3.74
3 1 10 16.18 2.77
3 1 10 19.26 2.97
3 -1 10 18.73 2.75
3 -1 10 27.66 3.37
3 1 10 20.73 2.89
3 1 11 4.25 1.51
3 -1 11 3.68 1.4
3 -1 11 1.66 1.12
3 1 11 3.13 1.43
3 -1 12 3.48 1.21
3 -1 12 0.91 0.86
3 1 12 1.73 1.12
3 -1 13 1.88 0.98
3 1 13 3.37 1.11
3 2 -8 14.95 4.4
3 2 -7 30.7 5.48
3 2 -6 135.84 10.56
3 2 -5 21.26 4.26
3 2 -4 25.41 4.49
3 -2 -4 24.02 4.26
3 2 -3 219.05 11.71
3 -2 -3 205.16 11.98
3 2 -2 216.32 11.2
3 2 -1 631.71 18.24
3 -2 -1 656.25 15.49
3 2 0 116.53 7.63
3 -2 0 110.14 6.99
3 2 1 194.09 9.34
3 2 1 184.41 12.37
3 -2 1 184.58 9.8
3 -2 1 197.52 11.46
3 2 2 568.8 22.9
3 -2 2 568.99 20.67
3 2 3 148.14 12.58
3 -2 3 154.53 11.8
3 2 4 78.5 9.83
3 -2 4 93.23 9.85
3 -2 5 66.05 9.01
3 2 5 61.7 7.34
3 -2 5 52.04 8.72
3 2 5 68.89 9.78
3 -2 6 17.91 5.45
3 2 6 22.15 4.72
3 2 6 11.7 4.61
3 2 7 5.65 1.54
3 2 7 8.1 2.16
3 -2 7 10.63 2.38
3 -2 7 6.98 1.89
3 2 7 5.06 1.51
3 2 7 6.81 1.87
3 -2 8 89.37 5.85
3 -2 8 82.71 5.67
3 2 8 89.75 5.62
3 2 8 95.67 5.91
3 2 8 81.36 5.9
3 -2 9 64.39 4.99
3 2 9 66.65 4.82
3 2 9 71.07 5.58
3 -2 10 1.18 1.31
3 -2 10 3.98 1.47
3 2 10 5.79 1.78
3 -2 11 -1.59 1.14
3 -2 11 0.53 0.89
3 2 11 -0.16 0.85
3 -2 12 4.58 1.31
3 -2 12 4.31 1.24
3 2 12 2.53 1.08
3 2 12 3.84 1.32
3 3 -6 4.26 3.18
3 3 -6 12.55 4.37
3 3 -5 32.08 6.01
3 3 -5 32.74 5.85
3 3 -4 39.27 6.37
3 3 -4 31.85 5.75
3 -3 -4 28.4 5.87
3 3 -3 35.76 5.65
3 3 -3 35.31 5.7
3 3 -2 11.26 3.31
3 3 -2 8.43 2.93
3 3 -1 42.43 5.63
3 3 -1 51.04 6.55
3 3 0 12.37 3.46
3 3 1 144.55 10.27
3 3 1 124.23 11.51
3 3 2 133.43 12.62
3 3 3 106.41 11.9
3 3 4 30.81 7.05
3 3 5 59.89 4.56
3 -3 5 61.76 4.73
3 3 6 50.21 4.31
3 -3 6 46.82 4.38
3 -3 6 44.84 4.23
3 -3 7 43.64 4.31
3 3 7 39.98 3.91
3 -3 7 36.33 3.82
3 3 7 38.29 3.98
3 -3 8 29.99 3.51
3 -3 8 26.83 3.45
3 3 8 28.99 3.39
3 3 8 28.16 3.45
3 -3 9 37.01 3.77
3 3 9 40.95 3.82
3 -3 9 33.91 3.64
3 3 9 31.03 3.58
3 -3 10 6.31 1.47
3 -3 10 9.84 1.93
3 3 10 4.9 1.52
3 -3 11 4.58 1.25
3 -3 11 3.14 1.13
3 3 11 4.2 1.31
3 4 -3 70.17 4.92
3 4 -2 20.31 2.8
3 4 -1 25.69 3.08
3 4 0 41.24 6.76
3 4 0 32 3.44
3 4 1 1.19 1
3 4 1 2.92 1.08
3 4 2 38.75 3.67
3 4 2 36.05 3.79
3 -4 2 44.26 4.09
3 4 3 11.46 2.1
3 4 3 10.34 2.25
3 -4 3 13.77 2.35
3 4 4 19.07 2.72
3 4 4 17.43 2.73
3 -4 4 21.77 3
3 4 5 39.77 3.89
3 4 5 47.51 4.26
3 -4 5 52.81 4.61
3 4 6 20.98 2.91
3 4 6 18.87 2.8
3 -4 6 17.52 2.94
3 -4 6 21.53 3.02
3 4 7 33.56 3.58
3 4 7 37.26 3.66
3 -4 7 33.5 3.71
3 -4 7 37.87 3.91
3 -4 8 5.05 1.57
3 4 8 5.71 1.55
3 -4 8 1.53 1.21
3 4 9 -0.33 0.69
3 -4 10 1.06 0.75
3 4 10 2.45 0.86
3 5 0 6.33 1.76
3 5 1 10.5 2.15
3 -5 1 7.1 1.82
3 5 2 20.41 2.87
3 -5 2 22.38 2.96
3 5 3 5.27 1.52
3 -5 3 4.51 1.49
3 5 4 21.08 2.83
3 -5 4 19.03 2.66
3 5 5 13.08 2.23
3 -5 5 10.8 2.23
3 -5 5 12.9 2.26
3 5 6 0.48 0.86
3 -5 6 1.1 1.15
3 -5 6 1.99 1.3
3 5 7 4.11 1.35
3 -5 7 2.35 1.1
3 5 8 -1.29 0.92
3 -5 8 1.16 0.82
3 6 1 8.66 1.61
3 -6 2 -0.3 0.84
3 6 2 0.42 0.9
3 6 3 2.87 0.97
3 -6 3 0.69 0.97
3 -6 3 2.76 1.06
3 6 4 0.79 0.76
3 -6 4 0.51 0.64
3 -6 4 0.16 0.75
4 0 1 0.05 1.17
4 0 2 268.34 13.71
4 0 2 239.93 13.28
4 0 2 272.45 9.89
4 0 3 1.63 1.78
4 0 3 -0.18 1.53
4 0 3 -2.4 2.03
4 0 4 192.7 14.06
4 0 4 202 11.83
4 0 4 207 14.16
4 0 5 4.75 2.55
4 0 5 0.28 1.74
4 0 6 104.36 12.2
4 0 6 103.17 11.68
4 0 7 -3.25 2.51
4 0 8 37.44 3.78
4 0 8 38.46 3.81
4 0 8 38.83 4.04
4 0 9 -0.16 0.9
4 0 9 -0.22 1.03
4 0 9 2.83 1.48
4 0 10 5.26 1.51
4 0 10 10.46 2.18
4 0 10 8.04 1.88
4 0 11 -1.82 1.11
4 0 11 -1.21 1.06
4 0 11 -1.71 1.11
4 0 12 4.66 1.31
4 0 12 4.85 1.23
4 0 12 7.16 1.55
4 1 -8 8.48 3.07
4 1 -7 140.94 10.62
4 -1 -4 540.74 17.09
4 -1 -3 197.4 10.18
4 -1 -2 229.92 10.74
4 -1 -1 597.19 16.92
4 -1 0 242.39 10.8
4 1 1 94.98 6.34
4 -1 1 80.13 6.73
4 1 2 13.84 3.06
4 -1 2 8.14 2.54
4 1 2 10.8 3.31
4 -1 2 9.95 2.5
4 1 3 305.88 15.37
4 1 3 286.91 12.64
4 -1 3 305.11 14.51
4 1 3 261.95 16.29
4 1 4 15.57 3.71
4 -1 4 11.17 3.96
4 1 4 16.07 3.36
4 -1 4 18.71 4.15
4 1 4 16.42 4.65
4 1 5 31.75 6.06
4 -1 5 39.8 7.5
4 1 5 39.04 5.28
4 1 5 29.26 6.39
4 1 6 22.26 5.5
4 -1 6 18.05 5.22
4 1 6 6.91 3.38
4 1 7 32.48 3.49
4 1 7 34.49 3.77
4 1 8 71.86 5.19
4 1 8 64.73 5.06
4 -1 8 63.61 4.92
4 1 8 63.2 5.27
4 1 9 32.96 3.68
4 -1 9 34.02 3.58
4 1 9 33.74 3.65
4 -1 9 34.06 3.7
4 1 9 29.25 3.7
4 1 10 10.54 2.33
4 1 10 13.92 2.51
4 -1 10 11.74 2.18
4 1 10 13.42 2.39
4 -1 10 15.3 2.51
4 -1 11 -0.07 0.71
4 1 11 -0.34 0.91
4 -1 11 0.34 0.83
4 1 11 -0.49 1.06
4 -1 12 -0.72 0.76
4 1 12 0.66 0.91
4 2 -8 13 4.09
4 2 -7 15.26 3.81
4 2 -6 169.68 12.47
4 2 -5 49.66 6.6
4 2 -4 761.44 24.1
4 2 -3 492.33 18.59
4 2 -2 64.57 6.59
4 -2 -2 76.43 5.93
4 2 -1 475.92 16.98
4 -2 -1 500.93 15.65
4 2 0 189.11 10.28
4 -2 0 178.07 10.06
4 2 1 41.55 4.7
4 -2 1 35.08 4.91
4 2 1 41.99 6.79
4 -2 2 61.6 6.8
4 2 2 75.25 9.31
4 2 3 65.28 9.03
4 -2 4 11.84 4.13
4 2 4 5.55 3.09
4 -2 5 64.56 10.09
4 2 5 58.91 9.52
4 2 6 170.09 13.51
4 2 6 183.5 7.82
4 2 6 179.58 7.96
4 -2 6 175.25 8.12
4 2 6 178.26 8.33
4 2 7 19.98 3.02
4 2 7 21.96 2.84
4 2 7 28.95 3.41
4 -2 7 22.11 3.12
4 2 8 28.01 3.21
4 2 8 29.12 3.46
4 2 8 28.56 3.62
4 2 9 2.36 1.21
4 2 9 1.82 1.09
4 -2 9 1.84 1.15
4 -2 10 13.19 2.27
4 2 10 10.07 2.16
4 -2 11 5.95 1.55
4 2 11 6.17 1.64
4 -2 12 3.74 0.99
4 2 12 4.36 1.27
4 3 -5 37.79 6.39
4 3 -4 96.7 10.08
4 3 -3 53.5 7.35
4 3 -2 52.63 7.21
4 3 -1 130.56 10.58
4 3 0 220.82 13.44
4 3 0 214.18 16.1
4 3 1 52.69 8.25
4 3 2 -3.95 3.25
4 3 3 32.89 7.21
4 3 4 9.02 1.86
4 -3 4 11.59 2.34
4 3 4 9.16 1.98
4 -3 5 16.22 2.79
4 3 5 17.03 2.6
4 3 5 15.34 2.38
4 -3 5 15.96 2.5
4 3 6 42.49 4.02
4 -3 6 46.87 4.51
4 -3 6 48.86 4.43
4 3 6 48.36 4.47
4 3 7 83.21 5.6
4 -3 7 85.76 6.01
4 3 7 85.06 5.93
4 3 8 18.84 2.86
4 3 8 15.55 2.45
4 -3 8 14.32 2.6
4 3 9 9.12 1.75
4 3 9 7.93 1.62
4 3 9 8.27 1.88
4 -3 10 5.02 1.3
4 3 10 2.96 1.19
4 -3 11 2.93 0.94
4 3 11 3.42 1.1
4 4 -3 43.74 3.97
4 4 -2 18.64 2.69
4 4 -1 10.04 2.04
4 4 0 2.33 1.26
4 4 1 87.13 5.8
4 4 2 7.21 1.72
4 4 2 4.93 1.66
4 4 3 21.87 2.88
4 4 3 24.86 3.21
4 -4 3 21.63 3.03
4 4 4 29.66 3.41
4 -4 4 29.12 3.62
4 4 4 26.43 3.35
4 -4 4 29.99 3.55
4 4 5 0.79 1.04
4 -4 5 1.68 1.36
4 4 5 0.73 1.06
4 -4 5 -1.13 1.45
4 4 6 9.49 1.99
4 -4 6 9.22 2.28
4 4 7 8.4 1.81
4 4 7 10.9 2.1
4 -4 7 9.18 2.07
4 4 8 5.15 1.3
4 -4 8 5.47 1.48
4 4 9 0.05 0.77
4 -4 9 1.49 1.03
4 5 -1 4.63 1.62
4 5 0 1.46 1.26
4 5 0 3.1 1.53
4 5 1 23.66 2.92
4 5 1 22.29 3.01
4 5 2 6.76 1.94
4 5 2 9.21 2.01
4 -5 2 5.38 1.67
4 5 3 46.29 3.78
4 5 3 42.07 3.86
4 -5 3 37.27 3.84
4 5 3 42.05 3.95
4 -5 3 50.14 4.07
4 -5 4 12 2.37
4 -5 4 16.21 2.42
4 -5 5 2.56 1.5
4 5 5 4.78 1.43
4 -5 5 5.06 1.49
4 -5 6 0.93 0.89
4 5 6 1.98 1.06
4 5 7 0.67 0.74
4 -5 7 2.25 1.09
4 6 2 2.02 0.84
4 6 3 -1.26 0.82
5 0 0 723.33 19.25
5 0 1 0.25 1.23
5 0 2 240.48 14.4
5 0 2 224.98 14.51
5 0 2 269.67 11.27
5 0 3 2.7 1.99
5 0 3 -0.14 1.8
5 0 3 0.01 2
5 0 4 301.63 19.07
5 0 4 319.23 16.34
5 0 4 305.43 18.99
5 0 5 1.51 1.63
5 0 5 -2.61 2.33
5 0 6 49.87 8.82
5 0 7 1.04 1.12
5 0 7 0.12 1.08
5 0 8 96.22 6.14
5 0 8 94.75 6.35
5 0 9 1.31 1.57
5 0 9 -0.3 1.07
5 0 10 5.53 1.7
5 0 10 7.04 1.86
5 0 11 -0.72 1
5 0 11 0.49 0.82
5 0 12 0.36 0.75
5 0 12 1.54 0.9
5 1 -8 34.48 6.31
5 -1 -7 13.5 3.87
5 -1 -6 218.35 12.82
5 -1 -5 95.03 8.25
5 -1 -4 174.86 10.9
5 -1 -3 801.26 22.61
5 -1 -2 182.72 10.66
5 -1 -1 35.37 4.84
5 -1 0 59.13 6.11
5 -1 1 94.57 8.13
5 -1 2 283.78 14.56
5 1 2 285.45 17.8
5 1 3 226.8 12.63
5 -1 3 205.6 13.1
5 1 3 189.83 15.16
5 -1 4 5.75 3
5 1 4 11.52 3.37
5 -1 4 11.62 3.48
5 1 4 12.09 4.24
5 -1 5 102.05 12.59
5 1 5 77.01 10.7
5 -1 6 19.15 2.67
5 1 6 21.75 2.85
5 1 7 25.84 3.3
5 -1 7 26.86 3.3
5 1 7 25.86 3.41
5 1 8 11.73 2.39
5 1 8 11.83 2.32
5 -1 8 15.5 2.57
5 1 9 11.6 2.34
5 -1 9 8.6 2.11
5 1 9 7.55 1.96
5 1 10 1.4 1.04
5 1 10 -0.04 0.9
5 -1 10 1.09 1.16
5 -1 11 3.03 1.24
5 1 11 0.43 0.77
5 2 -7 35.62 6.16
5 2 -6 96.28 9.9
5 2 -5 73.24 8.23
5 -2 -5 63.59 7.21
5 2 -4 515.78 21.05
5 2 -3 363.83 17.16
5 2 -2 17.49 4.07
5 -2 -2 15.31 3.34
5 2 -1 17.97 3.63
5 -2 -1 15.85 3.49
5 2 0 112.13 8.59
5 -2 0 94.92 8.34
5 -2 1 47.28 6.25
5 2 1 51.53 8.17
5 -2 2 59.34 7.33
5 2 2 46.49 8.15
5 2 3 103.97 12.4
5 -2 4 9.43 4.48
5 2 4 9.26 4.17
5 2 5 -0.66 1.55
5 2 5 2.2 1.24
5 -2 5 2.08 1.52
5 2 6 191.82 8.53
5 -2 6 193.61 8.83
5 2 6 182.56 8.7
5 2 7 11.01 2.33
5 2 7 14.06 2.4
5 2 7 11.64 2.28
5 2 8 16.6 2.87
5 2 8 17.62 2.52
5 -2 8 15.9 2.66
5 2 9 1.83 1.11
5 2 9 4.2 1.24
5 -2 9 2.19 1.3
5 -2 10 6.65 1.71
5 2 10 5.19 1.53
5 -2 11 3.18 1.1
5 2 11 5.24 1.35
5 3 -4 15.55 4.36
5 3 -3 18.83 4.35
5 3 -2 40.53 6.5
5 3 -1 46.06 6.72
5 3 -1 46.6 8.41
5 3 0 43.42 7.88
5 3 1 6.68 3.66
5 3 2 8.02 4.19
5 -3 3 16.94 2.64
5 3 3 13.6 2.4
5 -3 4 53.99 4.71
5 3 4 68.31 5.05
5 -3 4 63.2 4.74
5 3 5 23.67 3.06
5 -3 5 24.91 3.35
5 3 5 26.52 3.25
5 3 6 100.56 6.11
5 -3 6 99.23 6.47
5 3 6 110 6.72
5 3 7 30.79 3.45
5 -3 7 31.91 3.69
5 3 7 29.52 3.53
5 3 8 6.9 1.76
5 3 8 9.81 1.94
5 -3 9 -0.83 1.01
5 3 9 1.06 0.82
5 3 9 -0.27 0.87
5 3 9 -1.33 0.95
5 -3 10 -0.75 0.94
5 3 10 1.34 0.91
5 4 -3 8.14 1.96
5 4 -2 46.36 4.2
5 4 -1 38.32 4.27
5 4 0 43.04 4.13
5 -4 1 83.68 5.68
5 4 1 77 5.54
5 4 2 38.66 3.74
5 -4 2 38.81 3.97
5 4 2 39.99 4.06
5 4 3 6.82 1.73
5 -4 3 8.09 2.01
5 4 3 9.46 2.25
5 4 4 28.47 3.34
5 -4 4 27.28 3.45
5 4 4 30.34 3.47
5 -4 4 32.76 3.49
5 4 5 16.53 2.53
5 -4 5 11.58 2.33
5 4 5 13.34 2.33
5 4 6 1.03 0.95
5 -4 6 -1.3 1.3
5 4 7 0.63 0.81
5 4 7 1.84 1.09
5 4 8 4.51 1.24
5 -4 8 5.92 1.45
5 5 -2 2.63 1.24
5 5 -1 40.58 3.91
5 5 0 9.45 2.08
5 5 1 25.71 2.98
5 5 1 21.4 2.88
5 5 2 11.7 2.09
5 -5 2 6.09 1.68
5 5 2 9.11 1.97
5 5 3 17.68 2.32
5 5 3 16.56 2.42
5 -5 3 12.28 2.22
5 5 3 18.2 2.53
5 5 4 8.13 1.57
5 5 4 8.64 1.84
5 -5 4 4.74 1.49
5 5 5 2.44 1.21
5 -5 5 2.72 1.29
5 5 6 0.54 0.85
6 0 0 411.34 16.27
6 0 1 -1.1 1.49
6 0 2 248.63 15.9
6 0 2 237.65 14.18
6 0 2 210.24 15.77
6 0 3 -2.78 2.23
6 0 3 3.95 2.33
6 0 3 -1.5 1.92
6 0 4 8.44 3.42
6 0 4 7.91 3.37
6 0 4 15.71 4.95
6 0 5 0.24 1.39
6 0 5 1.59 1.16
6 0 6 66.78 5.04
6 0 7 0.2 0.94
6 0 7 -0.26 1
6 0 8 159.09 7.85
6 0 8 168.74 8.37
6 0 9 -0.6 1.21
6 0 9 -0.04 1.02
6 0 10 2.2 1.19
6 0 10 0.2 0.83
6 0 11 -0.75 0.9
6 0 11 0.24 0.74
6 1 -8 6.87 3.34
6 -1 -7 39.17 6.42
6 -1 -6 64.82 7.89
6 -1 -5 85.15 8.64
6 -1 -4 11.59 3.48
6 -1 -3 292.32 15.06
6 -1 -2 456.59 18.44
6 -1 -1 270.66 14.18
6 -1 0 19.23 3.97
6 -1 1 74.75 8.06
6 -1 2 147.18 11.58
6 1 2 154.82 14.48
6 -1 3 161.85 15.12
6 1 3 185.81 12.83
6 -1 3 174.1 13.25
6 1 3 153.04 15.01
6 -1 4 86.45 11.34
6 -1 4 78.98 9.36
6 1 4 71.6 10.77
6 -1 5 23.1 2.87
6 1 5 18.72 2.67
6 1 6 99.78 6.2
6 -1 6 93.8 6.01
6 1 7 31.28 3.61
6 -1 7 28.3 3.42
6 1 7 30.26 3.76
6 1 8 16.98 2.82
6 -1 8 25.25 3.18
6 1 8 20.65 3.02
6 1 9 8.89 2.06
6 1 9 9.59 2.07
6 -1 9 10.13 2.16
6 1 10 13.29 2.15
6 -1 10 13.91 2.2
6 1 10 10.32 1.94
6 -1 11 2.39 1.04
6 1 11 0.36 0.63
6 2 -6 150.42 13.1
6 -2 -6 130.9 11.45
6 2 -5 19.38 4.83
6 -2 -5 16.53 4.38
6 2 -4 31.96 5.86
6 -2 -4 29.75 5.47
6 2 -3 232.9 14.59
6 2 -2 67.33 7.75
6 -2 -2 66.25 7.26
6 2 -1 0.99 1.74
6 -2 -1 2.78 2.11
6 -2 0 26.82 5.16
6 -2 1 42.21 6.44
6 2 1 54.45 8.86
6 -2 2 61.37 8.11
6 2 2 52.75 9.44
6 2 3 221.2 19.33
6 2 4 43.18 4
6 2 4 44.97 4.14
6 -2 4 47.72 4.32
6 2 5 47.61 4.41
6 2 6 104.57 6.44
6 2 6 107.54 6.8
6 2 7 8.71 2.12
6 2 7 6.36 1.74
6 -2 7 6.02 1.67
6 2 8 32.88 3.28
6 -2 8 30.3 3.41
6 2 8 31.77 3.66
6 2 9 9.04 1.98
6 -2 9 9.27 1.92
6 -2 10 9.98 1.81
6 2 10 9.03 1.71
6 3 -3 6.04 2.98
6 3 -2 2.65 2.11
6 3 -1 40.69 8.91
6 3 0 6.97 1.78
6 3 0 -3.3 2.89
6 -3 1 14.16 2.3
6 3 1 13.97 2.5
6 -3 2 15.06 2.53
6 3 2 14.13 2.43
6 -3 3 41.73 4.16
6 3 3 47.9 4.39
6 -3 4 9.65 2.2
6 3 4 8.22 2.02
6 3 5 23.35 3.21
6 3 5 25.57 3.19
6 -3 5 20.75 3.09
6 3 5 24.1 3.17
6 3 6 63.99 4.83
6 3 6 69.9 5.33
6 3 7 20.04 2.81
6 3 7 19.66 2.64
6 -3 7 15.93 2.52
6 3 8 2.64 1.33
6 3 8 1.67 1.03
6 -3 8 1.02 0.94
6 3 9 1.7 0.78
6 3 9 0.92 0.76
6 -3 9 1.59 0.96
6 3 9 1.91 0.91
6 4 -3 6.79 1.84
6 4 -2 32.65 3.59
6 4 -1 55.42 4.68
6 4 0 4.22 1.59
6 4 1 82.54 5.36
6 4 1 69.27 5.33
6 4 2 21.05 2.83
6 -4 2 20.8 2.98
6 4 2 24 3.17
6 4 3 2.21 1.22
6 -4 3 3.73 1.53
6 4 3 2.59 1.41
6 4 4 0.69 0.85
6 -4 4 0.92 1.11
6 4 4 0.33 1.2
6 4 5 14.91 2.29
6 -4 5 14.12 2.46
6 4 5 16.16 2.42
6 4 6 4.37 1.35
6 4 7 1.5 0.85
6 4 7 1.65 1.02
6 -4 7 1.66 0.91
6 5 -2 3.02 1.25
6 5 -1 23.4 2.91
6 5 0 0.18 0.98
6 5 1 3.37 1.17
6 5 1 2.68 1.26
6 5 2 1.39 1.07
6 -5 2 2.1 1.07
6 5 2 1.5 0.97
6 5 3 8.87 1.57
6 5 3 5.78 1.41
6 -5 3 7.31 1.66
6 5 3 4.85 1.39
6 5 4 1.83 0.99
6 5 5 2.6 1.02
7 0 -1 -0.43 1.78
7 0 0 124.94 9.96
7 0 2 191.33 13.97
7 0 2 164.26 15.24
7 0 3 -1.64 1.92
7 0 3 -4.44 2.66
7 0 4 5.76 1.65
7 0 4 5.05 1.52
7 0 5 -0.19 1.21
7 0 6 362.92 11.79
7 0 7 -0.98 1.16
7 0 7 0.71 1.23
7 0 8 20.76 2.96
7 0 8 23.63 3.06
7 0 9 -1.99 1.05
7 0 9 -0.08 0.92
7 0 10 5.66 1.45
7 0 10 5.48 1.21
7 -1 -7 41.33 7.17
7 -1 -6 56.99 7.97
7 -1 -5 3.59 2.96
7 -1 -4 115.98 10.63
7 -1 -3 60.69 7.58
7 -1 -2 55.21 7.15
7 -1 -1 18.79 4.21
7 -1 1 227.45 15.16
7 -1 2 62.81 8.39
7 1 2 53.47 9.13
7 -1 3 66.65 10.08
7 1 3 82.64 9.63
7 1 3 83.05 5.11
7 1 4 22.01 2.91
7 1 4 19.64 2.83
7 -1 4 14.91 2.44
7 1 5 10.79 2.2
7 -1 5 14.49 2.48
7 1 6 55.58 4.73
7 -1 6 52.63 4.59
7 1 7 15.03 2.75
7 1 7 15.3 2.63
7 -1 7 16.32 2.62
7 1 8 14.15 2.56
7 1 8 18.53 2.72
7 -1 8 13.15 2.31
7 1 9 5.69 1.54
7 1 9 4.86 1.46
7 -1 9 7.22 1.73
7 -1 10 -0.09 0.78
7 1 10 0.52 0.74
7 2 -5 71.35 9.39
7 2 -4 24.03 5.7
7 2 -3 72.83 8.91
7 2 -2 12.24 3.96
7 -2 -1 121.21 11.04
7 -2 0 97.35 10.35
7 -2 1 50.83 7.54
7 2 2 2.12 1.09
7 2 3 44.87 3.94
7 -2 4 167.59 7.85
7 2 4 159.85 7.72
7 -2 5 10.71 2.26
7 2 5 8.18 1.87
7 2 6 1.78 1.23
7 -2 6 2.65 1.28
7 2 7 0.88 1.03
7 2 7 2.65 1.21
7 -2 7 2.54 1.38
7 2 8 -0.82 0.85
7 2 8 0.42 0.69
7 -2 8 0.31 0.9
7 2 9 0.32 0.75
7 -2 9 0.15 0.88
7 3 -3 19.01 2.65
7 3 -2 0.06 1.02
7 3 -1 19.54 2.84
7 3 0 12.41 2.3
7 3 1 84.53 5.78
7 -3 1 84.36 5.64
7 -3 2 80.27 5.66
7 3 2 83.17 5.8
7 3 3 4.8 1.7
7 3 4 52.84 4.55
7 3 4 58.63 4.88
7 3 5 22.83 3.06
7 3 5 20.97 2.89
7 3 5 23.32 2.99
7 3 6 3.07 1.3
7 3 6 6.96 1.71
7 -3 6 4.38 1.55
7 3 7 1.41 1.07
7 3 7 3.31 1.22
7 -3 7 2.53 1.35
7 3 8 4.86 1.11
7 -3 8 4.5 1.18
7 3 8 6.22 1.48
7 4 -3 21.49 2.85
7 4 -2 20.98 2.88
7 4 -1 23.8 3.17
7 4 0 9.97 2.13
7 4 1 7.89 1.93
7 4 1 5.53 1.77
7 4 2 1.6 1.08
7 4 2 2.75 1.31
7 4 3 7.76 1.69
7 4 3 7.28 1.9
7 4 4 20.6 2.59
7 4 4 20.1 2.61
7 4 5 11.87 1.94
7 4 5 11.98 1.95
7 -4 5 14.83 2.12
7 4 6 1.27 0.92
7 4 6 0.92 1.01
7 -4 6 1.57 0.98
7 5 -2 0.76 0.89
7 5 -1 4.65 1.46
7 5 0 24.34 2.81
7 5 1 0.94 0.75
7 5 1 -0.13 0.8
7 5 2 2.93 1.08
7 5 2 0.68 0.83
7 5 3 7.2 1.25
7 5 3 6.55 1.41
7 5 3 8.17 1.53
8 0 -3 2.69 2.43
8 0 -2 6.59 2.81
8 0 -1 2.94 2.27
8 0 1 12.04 4.37
8 0 2 44.13 3.83
8 0 2 40.66 3.93
8 0 3 -1.17 1.04
8 0 3 -0.78 1.06
8 0 3 -0.67 1.08
8 0 4 29.93 3.24
8 0 4 29.17 3.36
8 0 5 1.31 1.21
8 0 6 83 5.63
8 0 7 0.02 0.81
8 0 7 -0.49 0.97
8 0 8 2.52 1.46
8 0 8 3.21 1.39
8 0 9 1.71 1.02
8 0 9 0.66 0.89
8 -1 -4 81.29 9.78
8 -1 -3 74.29 9.17
8 -1 -2 20.96 4.67
8 -1 -1 21.86 4.85
8 -1 0 22.62 5.59
8 1 1 63.7 4.59
8 -1 1 64.49 4.84
8 1 2 17.67 2.6
8 1 2 24.65 3.01
8 -1 2 20.21 2.77
8 1 3 53.11 4.37
8 1 3 49.16 4.29
8 -1 3 49.39 4.24
8 -1 3 52.62 4.49
8 1 4 164.87 7.49
8 1 4 152.97 7.64
8 -1 4 159.51 7.7
8 -1 4 163.38 7.7
8 1 5 139.79 7.38
8 -1 5 132.05 7.07
8 1 6 13.61 2.53
8 1 6 14.85 2.55
8 -1 6 16.14 2.64
8 1 7 1.48 1.11
8 1 7 1.27 1.08
8 -1 7 2.46 1.36
8 1 8 5.85 1.59
8 1 8 4.95 1.47
8 -1 8 6.1 1.59
8 1 9 5.04 1.45
8 -1 9 3.34 1.09
8 2 -2 10.3 2.07
8 2 -1 37.73 3.52
8 2 0 17.69 2.59
8 2 1 40.34 3.84
8 2 2 91.12 5.65
8 2 3 96.87 6.15
8 -2 3 107.36 6.49
8 -2 4 32.14 3.48
8 2 4 37.83 3.89
8 -2 4 36.48 3.78
8 -2 5 4.75 1.54
8 2 5 5.77 1.79
8 2 6 5.92 1.8
8 2 6 5.58 1.52
8 -2 6 4.59 1.61
8 2 7 1.7 1.07
8 2 7 2.64 1.07
8 -2 7 2.87 1.43
8 2 8 0.5 0.87
8 2 8 2.1 0.77
8 -2 8 1.74 1.07
8 3 -3 41.84 4.01
8 3 -2 32.54 3.6
8 3 -1 61.39 4.96
8 3 0 63.23 5.07
8 3 1 20.12 2.99
8 3 2 23.99 3.2
8 3 3 7.52 1.96
8 3 4 24.68 3.04
8 -3 4 27.74 3.1
8 3 4 27.84 3.2
8 3 4 28.26 3.27
8 3 5 17.5 2.53
8 3 5 15.69 2.43
8 -3 5 13.29 2.19
8 3 5 17.01 2.4
8 3 6 16.89 2.28
8 3 6 18.77 2.32
8 -3 6 17.07 2.29
8 3 7 8.79 1.6
8 3 7 10.44 1.65
8 -3 7 7.08 1.45
8 4 -3 -0.97 1.07
8 4 -2 16.61 2.61
8 4 -1 18.65 2.74
8 4 0 3.37 1.45
8 4 1 29.65 3.07
8 4 1 23.65 3.05
8 4 2 12.72 2.07
8 4 2 13.24 2.12
8 4 3 5.66 1.42
8 4 3 5.24 1.48
8 4 4 2.12 1.03
8 4 4 2.32 1.07
8 4 5 5.82 1.31
8 4 5 7.68 1.38
8 5 -2 8.21 1.57
8 5 -1 10.93 1.85
8 5 0 0.66 0.86
8 5 1 2.28 0.98
9 0 -4 69.76 5
9 0 -3 -0.69 1.01
9 0 -2 0.54 1.07
9 0 -1 -0.9 1.38
9 0 0 63.97 4.73
9 0 0 72.16 5.32
9 0 1 0.04 1.14
9 0 1 1.78 1.41
9 0 2 47.13 4.09
9 0 2 48.32 4.47
9 0 3 -0.6 1.19
9 0 3 0.09 0.97
9 0 4 95.89 5.53
9 0 4 93.31 5.82
9 0 5 -0.08 1.01
9 0 6 2.5 1.41
9 0 6 0.93 1.1
9 0 7 -1.68 0.98
9 0 7 0.07 0.98
9 0 8 3.12 1.01
9 0 8 4.35 1.3
9 -1 -4 28.96 3.37
9 1 -3 8.68 2.04
9 -1 -3 7.18 1.86
9 1 -2 12.17 2.19
9 -1 -2 13.6 2.37
9 1 -1 32.45 3.62
9 -1 -1 29.78 3.5
9 1 0 12.67 2.34
9 -1 0 11.99 2.36
9 1 1 26.83 3.18
9 -1 1 33.21 3.43
9 -1 1 30.75 3.68
9 1 2 28.06 3.28
9 -1 2 30.8 3.34
9 1 2 25.18 3.17
9 -1 2 26.94 3.31
9 1 3 32.46 3.48
9 1 3 35.94 3.75
9 -1 3 34.12 3.76
9 1 4 25.45 3.04
9 1 4 28.78 3.32
9 -1 4 31.35 3.39
9 -1 4 31.13 3.46
9 1 5 1.77 1.17
9 -1 5 2.52 1.19
9 1 5 0.81 0.93
9 1 6 0.75 0.85
9 -1 6 0.33 0.82
9 1 7 1.89 1.11
9 -1 7 0.38 0.8
9 1 8 0.7 0.73
9 -1 8 2.17 1.08
9 2 -3 21.11 2.74
9 2 -2 13.62 2.27
9 2 -1 43.52 3.95
9 2 0 9.15 2.04
9 2 1 96.42 5.83
9 -2 1 97.39 6.26
9 2 2 39.86 3.84
9 2 2 43.82 4.27
9 -2 2 37.57 3.87
9 2 3 0.94 1.1
9 -2 3 3.19 1.48
9 2 4 14.76 2.34
9 -2 4 15.68 2.63
9 2 5 7.3 1.85
9 -2 5 6.56 1.59
9 2 5 4.79 1.22
9 2 6 2.09 1.05
9 2 6 2.48 1.07
9 -2 6 4.54 1.32
9 2 7 3.61 1.16
9 2 7 2.9 0.86
9 -2 7 2.91 1.04
9 3 -3 7.86 1.97
9 3 -2 38.74 3.93
9 3 -1 103.6 6.34
9 3 0 3.44 1.58
9 3 1 8.74 2.13
9 3 2 8.59 2
9 -3 2 11.9 2.28
9 3 3 15.59 2.4
9 3 3 17.53 2.5
9 -3 3 16.48 2.46
9 3 4 5.48 1.45
9 3 4 3.43 1.24
9 3 4 6.48 1.54
9 3 5 1.45 0.84
9 3 5 3.16 1.15
9 3 5 1.23 0.72
9 3 6 2.47 0.85
9 3 6 2.45 0.92
9 4 -3 0.15 0.75
9 4 -2 5.05 1.46
9 4 -1 9.51 1.93
9 4 0 3.12 1.42
9 4 1 19.43 2.35
9 4 1 18.41 2.46
9 4 2 15.6 2
9 4 2 14.39 2.12
9 -4 2 13.04 2.03
9 4 3 8.17 1.46
9 4 3 6.97 1.51
9 -4 3 5.52 1.3
10 0 -4 3.32 1.4
10 0 -3 0.18 0.88
10 0 -2 18.19 2.77
10 0 -1 0.72 1.2
10 0 -1 -0.42 1.22
10 0 0 89.57 5.66
10 0 0 84.93 5.87
10 0 1 -0.19 1.13
10 0 2 178.88 7.7
10 0 3 0.87 1.22
10 0 4 20.4 2.49
10 0 4 22.97 2.78
10 0 5 0.67 0.95
10 0 6 4.64 1.34
10 0 6 3.74 1.2
10 0 7 -1.32 0.75
10 1 -5 17.25 2.61
10 1 -4 6.26 1.76
10 -1 -4 5.1 1.72
10 1 -3 9.45 2.03
10 -1 -3 6.18 1.73
10 1 -2 5.76 1.81
10 -1 -2 4.75 1.58
10 1 -1 28.56 3.32
10 -1 -1 26.91 3.4
10 1 0 5.96 1.77
10 -1 0 8 1.95
10 -1 0 7.06 1.97
10 1 1 89.82 5.68
10 -1 1 95.65 5.62
10 -1 1 84.92 5.88
10 1 2 31.46 3.35
10 -1 2 24.23 2.9
10 -1 2 27.65 3.44
10 1 3 21.38 2.78
10 -1 3 17.83 2.7
10 1 4 0.87 0.86
10 1 5 3.63 1.38
10 -1 5 2.82 1.04
10 1 6 -0.21 0.74
10 -1 6 0.8 0.79
10 -2 -5 2.38 1.34
10 2 -4 29.03 3.31
10 -2 -4 15.94 2.61
10 2 -3 54.99 4.33
10 2 -3 50.29 4.4
10 -2 -3 44.32 4.39
10 2 -2 8.19 1.87
10 -2 -2 8.21 2.03
10 2 -1 9.3 2
10 -2 -1 11.84 2.36
10 2 0 4.74 1.57
10 2 0 7.04 1.82
10 -2 0 7.44 1.93
10 2 1 20.11 2.72
10 2 1 24.45 3.2
10 -2 1 24.98 3.27
10 2 2 0.74 1
10 -2 2 0.97 1.04
10 2 3 9.74 1.91
10 -2 3 13.23 2.28
10 2 4 4.35 1.46
10 2 4 2.98 1.16
10 -2 4 3.66 1.32
10 2 5 7.59 1.69
10 2 5 6.42 1.41
10 2 5 5.96 1.24
10 2 6 3.66 1.16
10 2 6 6.3 1.16
10 3 -3 18.83 2.67
10 3 -2 10.29 2.07
10 3 -1 1.39 1.22
10 3 0 14.13 2.33
10 -3 0 15.5 2.62
10 3 1 0.76 0.96
10 -3 1 0.75 1.04
10 3 2 2.74 1.17
10 -3 2 2.66 1.23
10 3 3 2.34 0.89
10 3 3 1.09 0.77
10 3 3 2.58 1.16
10 -3 3 2.19 1.01
10 3 4 1 0.69
10 3 4 0.07 0.7
10 3 4 -0.37 0.77
10 -4 -5 0.53 0.71
10 4 -3 1.07 0.83
10 4 -2 15.35 2.08
10 4 -1 7.22 1.53
10 -4 -1 5.1 1.48
10 4 0 0.76 0.87
10 -4 0 1.83 1.05
10 4 1 -0.22 0.54
10 4 1 0.02 0.79
10 -4 1 0.9 0.83
11 0 -3 0.38 1.27
11 0 -2 34.21 3.58
11 0 -1 0.74 1.15
11 0 0 27.38 3.15
11 0 1 -0.43 1.13
11 0 2 4.15 1.26
11 0 3 -0.87 1.01
11 0 5 1.06 0.86
11 1 -6 28.01 3.12
11 1 -5 3.07 1.28
11 -1 -5 3.24 1.31
11 1 -4 4.78 1.69
11 -1 -4 5.88 1.76
11 1 -3 3.02 1.34
11 -1 -3 6.1 1.91
11 1 -2 5.14 1.61
11 -1 -2 5.09 1.75
11 1 -1 47.66 4.11
11 -1 -1 52.23 4.33
11 -1 -1 47.52 4.38
11 1 0 20.02 2.75
11 -1 0 18.57 2.64
11 -1 0 23.9 3.21
11 1 1 2.75 1.34
11 -1 1 0.24 0.93
11 -1 1 0.13 0.99
11 1 2 12.92 2.12
11 -1 2 13.51 2
11 1 3 -1.03 0.82
11 1 4 2.9 0.99
11 1 5 0.61 0.8
11 1 5 1.31 0.58
11 -2 -5 4.22 1.41
11 2 -4 1.65 1.03
11 2 -4 1.25 1.14
11 -2 -4 1.51 0.99
11 2 -3 14.3 2.27
11 2 -3 7.2 1.89
11 -2 -3 13.25 2.33
11 2 -2 8.97 1.85
11 2 -2 11.88 2.21
11 -2 -2 11.99 2.32
11 2 -1 1.01 0.96
11 -2 -1 3.76 1.47
11 2 -1 2.62 1.2
11 -2 -1 1.48 1.27
11 2 0 0.77 1.04
11 -2 0 -0.95 0.93
11 2 0 -0.64 1.07
11 -2 0 -0.27 1.06
11 2 1 2.98 1.26
11 -2 1 1.05 0.97
11 2 2 3.47 1.28
11 -2 2 2.86 1.14
11 2 3 3.51 1.18
11 2 4 1.32 0.92
11 2 4 -0.01 0.67
11 2 4 0.31 0.66
11 -3 -5 0.39 0.85
11 -3 -4 4.64 1.45
11 3 -3 2.17 1.09
11 -3 -3 0.83 1.03
11 3 -2 2.7 1.17
11 -3 -2 7.12 1.67
11 3 -1 1.24 1.11
11 -3 -1 1.37 1.16
11 3 0 0.74 0.9
11 -3 0 0.31 0.86
11 3 1 2.63 1.07
11 -3 1 3.45 1.18
11 3 2 0.24 0.71
11 3 2 0.8 0.77
11 -3 2 -0.76 0.69
12 0 -8 1.85 0.97
12 0 -7 1.38 1.06
12 0 -6 1.17 1.04
12 0 -5 0.08 0.88
12 0 -4 1.23 1.06
12 0 -3 1.73 1.31
12 0 -2 6.63 1.65
12 0 -1 -0.13 0.94
12 0 0 44.24 3.64
12 0 1 -1.4 1.11
12 0 2 1.52 0.93
12 1 -6 0.53 0.79
12 1 -5 2.17 1.13
12 1 -4 3.2 1.35
12 -1 -4 5.92 1.66
12 1 -3 4.46 1.52
12 -1 -3 4.84 1.46
12 -1 -3 6.05 1.64
12 1 -2 3.95 1.33
12 -1 -2 3.31 1.46
12 -1 -2 5.02 1.7
12 1 -1 4.1 1.45
12 -1 -1 3.61 1.31
12 -1 -1 4.86 1.6
12 1 0 7 1.65
12 -1 0 6.09 1.48
12 1 1 1.65 0.97
12 -1 1 1.67 0.88
12 1 2 6.36 1.42
12 1 3 8.27 1.35
12 -2 -5 2.6 1.17
12 2 -4 2.43 0.98
12 2 -4 2.84 1.09
12 -2 -4 2.37 1.09
12 2 -3 0.76 0.86
12 2 -3 1.02 0.92
12 -2 -3 3.35 1.37
12 2 -2 11.67 1.92
12 -2 -2 11.89 1.92
12 2 -2 8.87 1.76
12 -2 -2 8.5 1.79
12 -2 -1 1.17 0.84
12 2 -1 1.66 0.97
12 -2 -1 0.09 0.9
12 2 0 2.9 1.18
12 -2 0 2.44 1.28
12 2 1 4.12 1.19
12 -3 -5 1.79 0.82
12 -3 -4 1.65 0.84
12 -3 -3 2.3 0.93
12 3 -3 2.45 0.82
12 -3 -3 1.62 0.88
12 3 -2 2.72 0.96
12 -3 -2 0.75 0.94
13 0 -7 -0.64 0.86
13 0 -6 2.12 1.11
13 0 -5 0.07 0.86
13 0 -4 0.74 0.87
13 0 -3 -0.1 0.9
13 0 -2 0.96 0.93
13 0 -1 -0.25 0.83
13 0 0 13.94 1.79
13 -1 -7 1 0.91
13 1 -6 -0.34 0.72
13 -1 -6 1.3 0.93
13 1 -5 3.47 1.11
13 -1 -5 1.75 1.01
13 1 -4 2.16 1.05
13 -1 -4 3.56 1.19
13 1 -4 0.85 0.79
13 1 -3 3.98 1.19
13 -1 -3 4.46 1.25
13 1 -3 3.38 1.11
13 1 -2 5.86 1.37
13 -1 -2 3.9 1.24
13 1 -2 5.41 1.42
13 1 -1 2.54 1.03
13 -1 -1 4.24 1.1
13 1 -1 3.27 1.13
13 -1 0 5.43 1.18
13 1 0 3.31 1.08
13 -2 -4 8.56 1.44
13 -2 -3 0.8 0.76
13 2 -3 1.79 0.79
