#------------------------------------------------------------------------------
#$Date: 2019-10-28 00:40:36 +0200 (Mon, 28 Oct 2019) $
#$Revision: 219542 $
#$URL: file:///home/coder/svn-repositories/cod/cif/4/51/44/4514440.cif $
#------------------------------------------------------------------------------
#
# This file is available in the Crystallography Open Database (COD),
# http://www.crystallography.net/
#
# All data on this site have been placed in the public domain by the
# contributors.
#
data_4514440
loop_
_publ_author_name
'Li, Chunyang'
'Bai, Xianwei'
'Guo, Yongchang'
'Zou, Bingsuo'
_publ_section_title
;
 Tunable Emission Properties of Manganese Chloride Small Single Crystals
 by Pyridine Incorporation.
;
_journal_issue                   5
_journal_name_full               'ACS omega'
_journal_page_first              8039
_journal_page_last               8045
_journal_paper_doi               10.1021/acsomega.8b03661
_journal_volume                  4
_journal_year                    2019
_chemical_formula_moiety         'Cl4 Mn, 2(C5 H6 N)'
_chemical_formula_sum            'C10 H12 Cl4 Mn N2'
_chemical_formula_weight         356.96
_space_group_crystal_system      triclinic
_space_group_IT_number           2
_space_group_name_Hall           '-P 1'
_space_group_name_H-M_alt        'P -1'
_symmetry_space_group_name_Hall  '-P 1'
_symmetry_space_group_name_H-M   'P -1'
_atom_sites_solution_hydrogens   mixed
_atom_sites_solution_primary     dual
_audit_creation_date             2018-06-28
_audit_creation_method
;
Olex2 1.2
(compiled 2018.05.29 svn.r3508 for OlexSys, GUI svn.r5506)
;
_audit_update_record
;
????
;
_cell_angle_alpha                88.72(3)
_cell_angle_beta                 83.85(3)
_cell_angle_gamma                80.07(3)
_cell_formula_units_Z            2
_cell_length_a                   7.6243(15)
_cell_length_b                   8.0440(16)
_cell_length_c                   12.562(3)
_cell_measurement_reflns_used    2479
_cell_measurement_temperature    153(2)
_cell_measurement_theta_max      27.4816
_cell_measurement_theta_min      2.5706
_cell_volume                     754.5(3)
_computing_molecular_graphics    'Olex2 (Dolomanov et al., 2009)'
_computing_publication_material  'Olex2 (Dolomanov et al., 2009)'
_computing_structure_refinement  'ShelXL (Sheldrick, 2015)'
_computing_structure_solution    'ShelXT (Sheldrick, 2015)'
_diffrn_ambient_temperature      153.15
_diffrn_measured_fraction_theta_full 0.991
_diffrn_measured_fraction_theta_max 0.989
_diffrn_measurement_device_type  'multiwire proportional'
_diffrn_measurement_method       'phi and omega scans'
_diffrn_radiation_monochromator  graphite
_diffrn_radiation_type           MoK\a
_diffrn_radiation_wavelength     0.71073
_diffrn_reflns_av_R_equivalents  0.0440
_diffrn_reflns_av_unetI/netI     0.0544
_diffrn_reflns_Laue_measured_fraction_full 0.991
_diffrn_reflns_Laue_measured_fraction_max 0.989
_diffrn_reflns_limit_h_max       9
_diffrn_reflns_limit_h_min       -9
_diffrn_reflns_limit_k_max       10
_diffrn_reflns_limit_k_min       -10
_diffrn_reflns_limit_l_max       16
_diffrn_reflns_limit_l_min       -16
_diffrn_reflns_number            7788
_diffrn_reflns_point_group_measured_fraction_full 0.991
_diffrn_reflns_point_group_measured_fraction_max 0.989
_diffrn_reflns_theta_full        25.242
_diffrn_reflns_theta_max         27.478
_diffrn_reflns_theta_min         2.571
_exptl_absorpt_coefficient_mu    1.562
_exptl_absorpt_correction_T_max  1.0000
_exptl_absorpt_correction_T_min  0.8372
_exptl_absorpt_correction_type   multi-scan
_exptl_absorpt_process_details   'CrystalClear (Rigaku Inc., 2008)'
_exptl_crystal_colour            colorless
_exptl_crystal_density_diffrn    1.571
_exptl_crystal_description       plate
_exptl_crystal_F_000             358
_exptl_crystal_size_max          0.21
_exptl_crystal_size_mid          0.15
_exptl_crystal_size_min          0.1
_refine_diff_density_max         0.375
_refine_diff_density_min         -0.391
_refine_diff_density_rms         0.084
_refine_ls_extinction_method     none
_refine_ls_goodness_of_fit_ref   1.112
_refine_ls_hydrogen_treatment    constr
_refine_ls_matrix_type           full
_refine_ls_number_parameters     154
_refine_ls_number_reflns         3423
_refine_ls_number_restraints     0
_refine_ls_restrained_S_all      1.112
_refine_ls_R_factor_all          0.0477
_refine_ls_R_factor_gt           0.0430
_refine_ls_shift/su_max          0.001
_refine_ls_shift/su_mean         0.000
_refine_ls_structure_factor_coef Fsqd
_refine_ls_weighting_details
'w=1/[\s^2^(Fo^2^)+(0.0335P)^2^+0.6042P] where P=(Fo^2^+2Fc^2^)/3'
_refine_ls_weighting_scheme      calc
_refine_ls_wR_factor_gt          0.0936
_refine_ls_wR_factor_ref         0.0972
_reflns_Friedel_coverage         0.000
_reflns_number_gt                3124
_reflns_number_total             3423
_reflns_threshold_expression     'I > 2\s(I)'
_iucr_refine_instructions_details
;
TITL bwn18169_a.res in P-1
    bwn18169.res
    created by SHELXL-2018/3 at 12:41:52 on 28-Jun-2018
CELL 0.71073 7.6243 8.044 12.562 88.723 83.852 80.072
ZERR 2 0.0015 0.0016 0.0025 0.03 0.03 0.03
LATT 1
SFAC C H Cl Mn N
UNIT 20 24 8 2 4

L.S. 4
PLAN  5
SIZE 0.21 0.15 0.1
TEMP -120
ACTA
BOND $H
CONF
list 4
fmap 2
OMIT 2 4 1
OMIT -4 1 3
OMIT 0 2 7
OMIT 0 0 1
OMIT 0 -2 11
REM <olex2.extras>
REM <HklSrc "%.\\bwn18169.hkl">
REM </olex2.extras>

WGHT    0.033500    0.604200
FVAR       0.65213
MN1   4    0.444087    0.672386    0.720509    11.00000    0.02238    0.02260 =
         0.02620    0.00006   -0.00298   -0.00383
CL1   3    0.584544    0.453545    0.826661    11.00000    0.02771    0.03883 =
         0.03709    0.01210   -0.00716   -0.00311
CL2   3    0.403546    0.938516    0.802365    11.00000    0.02631    0.03046 =
         0.04418   -0.01245   -0.00539   -0.00431
CL3   3    0.605305    0.681898    0.549181    11.00000    0.02433    0.02780 =
         0.02660    0.00102   -0.00223   -0.00571
CL4   3    0.160987    0.600910    0.699001    11.00000    0.02603    0.02594 =
         0.03304    0.00025   -0.00553   -0.00875
N1    5    0.210308    0.330269    0.914093    11.00000    0.04423    0.03011 =
         0.03506   -0.00730    0.01222   -0.01572
AFIX   3  0.8500
H1    2    0.272618    0.383259    0.869573    11.00000   -1.20000
AFIX   0
C1    1    0.290730    0.247192    0.993235    11.00000    0.02436    0.04333 =
         0.04618   -0.01424    0.00109   -0.00813
AFIX  43
H1A   2    0.415450    0.242569    0.996252    11.00000   -1.20000
AFIX   0
C2    1    0.192810    0.168203    1.070493    11.00000    0.03671    0.04207 =
         0.03026   -0.00241   -0.00962   -0.00346
AFIX  43
H2    2    0.248709    0.109129    1.127598    11.00000   -1.20000
AFIX   0
C3    1    0.012690    0.175753    1.064098    11.00000    0.03344    0.03204 =
         0.02713   -0.00050    0.00253   -0.00952
AFIX  43
H3    2   -0.056915    0.120932    1.116510    11.00000   -1.20000
AFIX   0
C4    1   -0.066869    0.264102    0.980464    11.00000    0.02636    0.03111 =
         0.04122   -0.00207   -0.00664   -0.00492
AFIX  43
H4    2   -0.191583    0.271739    0.975917    11.00000   -1.20000
AFIX   0
C5    1    0.035758    0.339824    0.904894    11.00000    0.04863    0.02764 =
         0.02939   -0.00217   -0.00530   -0.00551
AFIX  43
H5    2   -0.016261    0.398632    0.846439    11.00000   -1.20000
AFIX   0

N2    5    0.248954    0.738325    0.425476    11.00000    0.02383    0.03028 =
         0.02922    0.00188   -0.00562    0.00192
AFIX   3  0.8500
H2A   2    0.331564    0.675315    0.454986    11.00000   -1.20000
AFIX   0
C6    1    0.275418    0.895233    0.404561    11.00000    0.02810    0.03838 =
         0.03316   -0.00199   -0.00618   -0.01091
AFIX  43
H6    2    0.384919    0.928409    0.417504    11.00000   -1.20000
AFIX   0
C7    1    0.142714    1.009383    0.363947    11.00000    0.03746    0.02358 =
         0.03372    0.00253   -0.00798   -0.00761
AFIX  43
H7    2    0.159135    1.122204    0.348643    11.00000   -1.20000
AFIX   0
C8    1   -0.014426    0.956959    0.345898    11.00000    0.03003    0.02966 =
         0.03090    0.00324   -0.00772   -0.00055
AFIX  43
H8    2   -0.107729    1.034261    0.318406    11.00000   -1.20000
AFIX   0
C9    1   -0.036503    0.792411    0.367680    11.00000    0.02375    0.03022 =
         0.03127   -0.00368   -0.00250   -0.00695
AFIX  43
H9    2   -0.144428    0.755698    0.355180    11.00000   -1.20000
AFIX   0
C10   1    0.099432    0.682620    0.407607    11.00000    0.03376    0.02226 =
         0.03295   -0.00130    0.00164   -0.00627
AFIX  43
H10   2    0.087455    0.568537    0.422356    11.00000   -1.20000
AFIX   0
HKLF 4




REM  bwn18169_a.res in P-1
REM wR2 = 0.0972, GooF = S = 1.112, Restrained GooF = 1.112 for all data
REM R1 = 0.0430 for 3124 Fo > 4sig(Fo) and 0.0477 for all 3423 data
REM 154 parameters refined using 0 restraints

END  
     
WGHT      0.0333      0.6035 

REM Highest difference peak  0.375,  deepest hole -0.391,  1-sigma level  0.084
Q1    1  -0.2322  0.0537  1.0310  11.00000  0.05    0.37
Q2    1   0.4060  0.7934  0.8001  11.00000  0.05    0.35
Q3    1  -0.0301  0.8829  0.3620  11.00000  0.05    0.35
Q4    1   0.0000  0.5000  0.5000  10.50000  0.05    0.30
Q5    1   0.3698  0.1865  0.8961  11.00000  0.05    0.30

  REM The information below was added by Olex2.
  REM
  REM R1 = 0.0430 for 3124 Fo > 4sig(Fo) and 0.0477 for all 7796 data
  REM n/a parameters refined using n/a restraints
  REM Highest difference peak 0.37, deepest hole -0.39
  REM Mean Shift 0, Max Shift -0.001.

  REM +++ Tabular Listing of Refinement Information +++
  REM R1_all = 0.0477
  REM R1_gt = 0.0430
  REM wR_ref = 0.0972
  REM GOOF = 1.112
  REM Shift_max = -0.001
  REM Shift_mean = 0
  REM Reflections_all = 7796
  REM Reflections_gt = 3124
  REM Parameters = n/a
  REM Hole = -0.39
  REM Peak = 0.37
  REM Flack = n/a

  
;
_cod_data_source_file            ao8b03661_si_002.cif
_cod_data_source_block           bwn18169
_cod_database_code               4514440
_shelx_shelxl_version_number     2018/3
_shelx_space_group_comment
;
The symmetry employed for this shelxl refinement is uniquely defined
by the following loop, which should always be used as a source of
symmetry information in preference to the above space-group names.
They are only intended as comments.
;
_shelx_estimated_absorpt_t_max   0.859
_shelx_estimated_absorpt_t_min   0.735
_olex2_refinement_description
;
1. Fixed Uiso
 At 1.2 times of:
  All C(H) groups, All N(H) groups
2.a Riding coordinates:
 N1(H1), N2(H2A)
2.b Aromatic/amide H refined with riding coordinates:
 C1(H1A), C2(H2), C3(H3), C4(H4), C5(H5), C6(H6), C7(H7), C8(H8), C9(H9),
 C10(H10)
;
_olex2_submission_special_instructions 'No special instructions were received'
loop_
_space_group_symop_operation_xyz
'x, y, z'
'-x, -y, -z'
loop_
_atom_site_label
_atom_site_type_symbol
_atom_site_fract_x
_atom_site_fract_y
_atom_site_fract_z
_atom_site_U_iso_or_equiv
_atom_site_adp_type
_atom_site_occupancy
_atom_site_site_symmetry_order
_atom_site_calc_flag
_atom_site_refinement_flags_posn
Mn1 Mn 0.44409(5) 0.67239(5) 0.72051(3) 0.02370(12) Uani 1 1 d .
Cl1 Cl 0.58454(9) 0.45355(9) 0.82666(5) 0.03476(17) Uani 1 1 d .
Cl2 Cl 0.40355(9) 0.93852(8) 0.80236(6) 0.03340(17) Uani 1 1 d .
Cl3 Cl 0.60531(8) 0.68190(7) 0.54918(5) 0.02615(15) Uani 1 1 d .
Cl4 Cl 0.16099(8) 0.60091(8) 0.69900(5) 0.02765(15) Uani 1 1 d .
N1 N 0.2103(3) 0.3303(3) 0.91409(19) 0.0364(6) Uani 1 1 d .
H1 H 0.272618 0.383259 0.869573 0.044 Uiso 1 1 d R
C1 C 0.2907(4) 0.2472(4) 0.9932(2) 0.0378(7) Uani 1 1 d .
H1A H 0.415450 0.242569 0.996252 0.045 Uiso 1 1 calc R
C2 C 0.1928(4) 0.1682(4) 1.0705(2) 0.0363(6) Uani 1 1 d .
H2 H 0.248709 0.109129 1.127598 0.044 Uiso 1 1 calc R
C3 C 0.0127(4) 0.1758(3) 1.0641(2) 0.0308(6) Uani 1 1 d .
H3 H -0.056915 0.120932 1.116510 0.037 Uiso 1 1 calc R
C4 C -0.0669(4) 0.2641(3) 0.9805(2) 0.0326(6) Uani 1 1 d .
H4 H -0.191583 0.271739 0.975917 0.039 Uiso 1 1 calc R
C5 C 0.0358(4) 0.3398(3) 0.9049(2) 0.0352(6) Uani 1 1 d .
H5 H -0.016261 0.398632 0.846439 0.042 Uiso 1 1 calc R
N2 N 0.2490(3) 0.7383(3) 0.42548(17) 0.0284(5) Uani 1 1 d .
H2A H 0.331564 0.675315 0.454986 0.034 Uiso 1 1 d R
C6 C 0.2754(4) 0.8952(4) 0.4046(2) 0.0323(6) Uani 1 1 d .
H6 H 0.384919 0.928409 0.417504 0.039 Uiso 1 1 calc R
C7 C 0.1427(4) 1.0094(3) 0.3639(2) 0.0310(6) Uani 1 1 d .
H7 H 0.159135 1.122204 0.348643 0.037 Uiso 1 1 calc R
C8 C -0.0144(4) 0.9570(3) 0.3459(2) 0.0305(6) Uani 1 1 d .
H8 H -0.107729 1.034261 0.318406 0.037 Uiso 1 1 calc R
C9 C -0.0365(3) 0.7924(3) 0.3677(2) 0.0281(5) Uani 1 1 d .
H9 H -0.144428 0.755698 0.355180 0.034 Uiso 1 1 calc R
C10 C 0.0994(4) 0.6826(3) 0.4076(2) 0.0298(6) Uani 1 1 d .
H10 H 0.087455 0.568537 0.422356 0.036 Uiso 1 1 calc R
loop_
_atom_site_aniso_label
_atom_site_aniso_U_11
_atom_site_aniso_U_22
_atom_site_aniso_U_33
_atom_site_aniso_U_23
_atom_site_aniso_U_13
_atom_site_aniso_U_12
Mn1 0.0224(2) 0.0226(2) 0.0262(2) 0.00006(15) -0.00298(15) -0.00383(15)
Cl1 0.0277(4) 0.0388(4) 0.0371(4) 0.0121(3) -0.0072(3) -0.0031(3)
Cl2 0.0263(3) 0.0305(3) 0.0442(4) -0.0125(3) -0.0054(3) -0.0043(3)
Cl3 0.0243(3) 0.0278(3) 0.0266(3) 0.0010(2) -0.0022(2) -0.0057(2)
Cl4 0.0260(3) 0.0259(3) 0.0330(3) 0.0002(2) -0.0055(2) -0.0087(2)
N1 0.0442(15) 0.0301(12) 0.0351(13) -0.0073(10) 0.0122(11) -0.0157(11)
C1 0.0244(14) 0.0433(17) 0.0462(17) -0.0142(13) 0.0011(12) -0.0081(12)
C2 0.0367(16) 0.0421(16) 0.0303(14) -0.0024(12) -0.0096(12) -0.0035(13)
C3 0.0334(15) 0.0320(14) 0.0271(13) -0.0005(10) 0.0025(11) -0.0095(11)
C4 0.0264(14) 0.0311(14) 0.0412(16) -0.0021(11) -0.0066(11) -0.0049(11)
C5 0.0486(18) 0.0276(14) 0.0294(14) -0.0022(11) -0.0053(12) -0.0055(12)
N2 0.0238(11) 0.0303(11) 0.0292(11) 0.0019(9) -0.0056(9) 0.0019(9)
C6 0.0281(14) 0.0384(15) 0.0332(14) -0.0020(11) -0.0062(11) -0.0109(12)
C7 0.0375(16) 0.0236(12) 0.0337(14) 0.0025(10) -0.0080(11) -0.0076(11)
C8 0.0300(15) 0.0297(13) 0.0309(14) 0.0032(10) -0.0077(11) -0.0005(11)
C9 0.0237(13) 0.0302(13) 0.0313(13) -0.0037(10) -0.0025(10) -0.0070(10)
C10 0.0338(15) 0.0223(12) 0.0330(14) -0.0013(10) 0.0016(11) -0.0063(11)
loop_
_atom_type_symbol
_atom_type_description
_atom_type_scat_dispersion_real
_atom_type_scat_dispersion_imag
_atom_type_scat_source
C C 0.0033 0.0016 'International Tables Vol C Tables 4.2.6.8 and 6.1.1.4'
H H 0.0000 0.0000 'International Tables Vol C Tables 4.2.6.8 and 6.1.1.4'
Cl Cl 0.1484 0.1585 'International Tables Vol C Tables 4.2.6.8 and 6.1.1.4'
Mn Mn 0.3368 0.7283 'International Tables Vol C Tables 4.2.6.8 and 6.1.1.4'
N N 0.0061 0.0033 'International Tables Vol C Tables 4.2.6.8 and 6.1.1.4'
loop_
_geom_angle_atom_site_label_1
_geom_angle_atom_site_label_2
_geom_angle_atom_site_label_3
_geom_angle
Cl1 Mn1 Cl3 111.31(4)
Cl1 Mn1 Cl4 105.08(4)
Cl2 Mn1 Cl1 112.68(3)
Cl2 Mn1 Cl3 109.65(4)
Cl2 Mn1 Cl4 109.50(4)
Cl3 Mn1 Cl4 108.45(3)
C1 N1 H1 117.8
C1 N1 C5 122.9(2)
C5 N1 H1 119.2
N1 C1 H1A 120.1
N1 C1 C2 119.7(3)
C2 C1 H1A 120.1
C1 C2 H2 120.5
C1 C2 C3 119.1(3)
C3 C2 H2 120.5
C2 C3 H3 120.2
C2 C3 C4 119.6(3)
C4 C3 H3 120.2
C3 C4 H4 120.3
C5 C4 C3 119.4(3)
C5 C4 H4 120.3
N1 C5 C4 119.2(3)
N1 C5 H5 120.4
C4 C5 H5 120.4
C6 N2 H2A 115.5
C6 N2 C10 123.4(2)
C10 N2 H2A 121.0
N2 C6 H6 120.3
N2 C6 C7 119.4(2)
C7 C6 H6 120.3
C6 C7 H7 120.6
C6 C7 C8 118.8(2)
C8 C7 H7 120.6
C7 C8 H8 119.9
C7 C8 C9 120.2(2)
C9 C8 H8 119.9
C8 C9 H9 120.4
C10 C9 C8 119.1(2)
C10 C9 H9 120.4
N2 C10 C9 119.1(2)
N2 C10 H10 120.5
C9 C10 H10 120.5
loop_
_geom_bond_atom_site_label_1
_geom_bond_atom_site_label_2
_geom_bond_distance
Mn1 Cl1 2.3611(11)
Mn1 Cl2 2.3532(10)
Mn1 Cl3 2.3680(10)
Mn1 Cl4 2.3711(9)
N1 H1 0.8500
N1 C1 1.331(4)
N1 C5 1.337(4)
C1 H1A 0.9500
C1 C2 1.373(4)
C2 H2 0.9500
C2 C3 1.375(4)
C3 H3 0.9500
C3 C4 1.390(4)
C4 H4 0.9500
C4 C5 1.365(4)
C5 H5 0.9500
N2 H2A 0.8500
N2 C6 1.328(3)
N2 C10 1.336(3)
C6 H6 0.9500
C6 C7 1.377(4)
C7 H7 0.9500
C7 C8 1.379(4)
C8 H8 0.9500
C8 C9 1.381(4)
C9 H9 0.9500
C9 C10 1.372(4)
C10 H10 0.9500
loop_
_geom_torsion_atom_site_label_1
_geom_torsion_atom_site_label_2
_geom_torsion_atom_site_label_3
_geom_torsion_atom_site_label_4
_geom_torsion
N1 C1 C2 C3 0.4(4)
C1 N1 C5 C4 1.2(4)
C1 C2 C3 C4 -0.6(4)
C2 C3 C4 C5 1.1(4)
C3 C4 C5 N1 -1.3(4)
C5 N1 C1 C2 -0.7(4)
N2 C6 C7 C8 -0.1(4)
C6 N2 C10 C9 -1.4(4)
C6 C7 C8 C9 -0.5(4)
C7 C8 C9 C10 0.2(4)
C8 C9 C10 N2 0.7(4)
C10 N2 C6 C7 1.1(4)
loop_
_refln_index_h
_refln_index_k
_refln_index_l
_refln_F_squared_meas
_refln_F_squared_sigma
0 0 -1 0.06 0.09
0 0 1 0.28 0.12
0 0 -1 0.29 0.15
0 0 1 0.12 0.09
0 0 -2 322.72 2.18
0 0 -2 353.14 3.21
0 0 2 355.41 3.21
0 0 -2 314.99 2.96
0 0 2 333.59 3.02
0 0 -3 255.51 1.99
0 0 3 265.33 2.07
0 0 -3 272.48 3.3
0 0 -3 260.43 3.07
0 0 3 263.2 3.03
0 0 -4 4.75 0.25
0 0 -4 5.51 1.02
0 0 4 35.38 4.64
0 0 -4 4.2 0.52
0 0 4 5.2 0.53
0 0 -5 0.98 0.19
0 0 -5 0.8 0.23
0 0 -5 1.15 0.57
0 0 5 3.18 0.7
0 0 5 0.51 0.4
0 0 -6 17.57 0.99
0 0 -6 14.23 0.51
0 0 6 14.92 1.1
0 0 -6 17.2 1.12
0 0 -7 463.05 7.92
0 0 -7 475.1 8.03
0 0 7 468.28 9.28
0 0 -7 462.29 9.27
0 0 -8 783.42 16.26
0 0 -8 786.66 16.31
0 0 8 777.87 17.52
0 0 -8 838.54 18.85
0 0 -9 182.35 6.59
0 0 9 173.84 7.34
0 0 -9 167.31 7.15
0 0 10 113.57 4.94
0 0 -10 131.61 5.56
0 0 11 696.14 25.04
0 0 -11 649.93 23.44
0 0 12 72.62 4.59
0 0 -12 67.21 4.13
0 0 13 3.16 1.31
0 0 -13 2.41 1.34
0 0 14 31.3 4.5
0 0 15 0.51 1.7
0 0 -15 2.05 1.52
0 0 16 5.47 2.06
0 0 -16 0.61 1.54
0 -1 16 43.24 4.25
0 1 -16 48.42 7.34
0 -1 15 21.38 4.01
0 1 -15 39.7 5.91
0 -1 14 6.6 2.6
0 1 -14 6.08 2.4
0 -1 13 551.03 21.79
0 1 -13 609.35 23.95
0 -1 12 9.68 2.03
0 1 -12 7.4 1.66
0 1 -11 3.72 0.44
0 -1 11 5.5 1.2
0 1 -11 8.31 1.36
0 1 -10 266.01 9.93
0 -1 10 262.52 10.78
0 1 -10 235.77 9.81
0 1 -9 69.27 3.81
0 -1 9 66.85 5.17
0 -1 9 77.41 4.9
0 1 -9 61.39 5.19
0 1 -8 229.94 8.01
0 -1 8 233.62 8.12
0 -1 8 221.56 8.44
0 1 -8 212.77 8.1
0 1 -7 379.04 8.35
0 -1 7 356.78 7.84
0 -1 7 365.82 8.96
0 1 -7 344.85 8.47
0 1 -6 1039.72 17.53
0 -1 6 1028.34 17.27
0 -1 6 967.8 17.33
0 1 -6 1058.89 18.65
0 1 -5 2707.91 38.67
0 -1 5 2780.28 45.52
0 -1 5 2473.58 37.26
0 -1 5 2685.81 39.2
0 1 -5 2475.62 36.12
0 -1 5 2954.88 49.07
0 1 -4 8.41 0.5
0 -1 4 8.83 0.51
0 -1 4 10.18 0.75
0 1 -4 6.63 0.7
0 1 -4 5.54 0.56
0 -1 4 6.95 0.62
0 1 -3 1206.48 8.32
0 -1 3 1229.3 8.32
0 -1 3 1204.92 9.1
0 1 -3 1208.74 8.99
0 1 -3 1153.3 8.64
0 -1 3 1193.85 8.76
0 1 -2 19.53 0.73
0 -1 2 19.93 0.69
0 1 -2 20.76 0.79
0 1 -2 24.01 1.14
0 -1 2 23.02 0.77
0 1 -1 715.27 5.21
0 -1 1 703 5.11
0 1 -1 735.71 5.22
0 1 0 395.99 3.24
0 -1 0 406.57 3.15
0 1 1 633.46 4.49
0 -1 -1 671.25 4.72
0 -1 -1 691.25 5.05
0 1 1 651.73 4.73
0 -1 -2 333.5 2.68
0 -1 -2 347.36 3.28
0 1 2 325.33 3.11
0 1 5 4.94 0.73
0 -1 -5 2.6 0.22
0 -1 -5 4.51 0.83
0 1 5 4.46 0.65
0 -1 -5 4.95 0.61
0 -1 -6 1206.43 19.8
0 -1 -6 1320.5 23.34
0 -1 -6 1187.51 20.88
0 -1 -7 2236.08 45.79
0 -1 -7 2192.7 44.9
0 -1 -7 2282.34 165.12
0 -1 -7 2269.49 164.16
0 -1 -8 21.51 2.65
0 -1 -8 19.82 2.04
0 -1 -9 266.52 18.2
0 -1 -9 215.91 8.88
0 -1 -10 164.28 8.12
0 -1 -10 131.96 6.03
0 1 11 167.13 7.11
0 1 12 6.38 1.53
0 -1 -12 4.95 1.33
0 1 13 112.11 5.95
0 -1 -13 109.68 5.65
0 1 14 9.26 2.85
0 -1 -14 6.37 2
0 1 15 92.91 9.21
0 -1 -15 93.68 8.97
0 -1 -16 3.19 1.74
0 -2 15 18.53 4.17
0 2 -15 20.78 4.3
0 -2 14 83.86 6.4
0 2 -14 109.6 10.7
0 -2 13 107.81 5.96
0 2 -13 96.52 13.24
0 -2 12 4.87 2.06
0 2 -12 8.17 2.67
0 2 -11 395.71 16.69
0 2 -10 34.68 3.47
0 -2 10 28.57 2.92
0 -2 10 41.09 4.54
0 2 -10 49.16 5.45
0 2 -9 85.1 3.31
0 -2 9 77.8 3.1
0 -2 9 84.9 4.03
0 2 -9 111.38 5.14
0 2 -8 466.61 16.05
0 -2 8 499.75 17.16
0 -2 8 432.85 15.6
0 2 -8 530.82 18.96
0 2 -7 374.69 8.64
0 -2 7 353.07 8.06
0 -2 7 366.86 9.19
0 2 -6 4034.6 66.32
0 -2 6 4362.62 71.54
0 -2 6 4270.76 70.85
0 2 -5 0.93 0.39
0 -2 5 1.56 0.55
0 -2 5 1.82 1.13
0 2 -5 1.64 0.65
0 2 -4 1596.54 23.58
0 -2 4 1643.76 24.07
0 -2 4 1455.26 21.9
0 2 -4 1633.29 24.27
0 2 -4 1530.54 22.87
0 -2 4 1608.59 23.8
0 2 -3 3.49 0.54
0 -2 3 1.76 0.35
0 -2 3 3.79 0.59
0 2 -3 2.97 0.47
0 2 -3 3.81 0.69
0 -2 3 3.63 0.47
0 2 -2 423.73 4.39
0 -2 2 425.9 4.29
0 -2 2 416.11 4.33
0 2 -2 387.76 3.98
0 2 -2 420.27 4.17
0 -2 2 423.56 4.26
0 2 -1 70.85 1.68
0 -2 1 69.58 1.55
0 -2 1 62.43 1.46
0 2 -1 61.82 1.38
0 2 -1 69.71 1.39
0 -2 1 73.26 1.56
0 2 0 512.77 4.74
0 -2 0 511.52 4.62
0 2 0 488.26 4.38
0 -2 0 529.93 4.31
0 2 1 283.85 3.18
0 -2 -1 277.42 3.13
0 -2 -1 286.28 3.21
0 2 1 309.63 3.4
0 -2 -2 9934.83 58.32
0 2 2 9999 140.78
0 2 3 2746.44 18.05
0 2 4 3.58 0.46
0 -2 -4 4.21 0.44
0 -2 -4 4.03 0.78
0 2 4 3.47 0.44
0 2 5 854.33 12.71
0 -2 -5 898.7 13.36
0 -2 -5 899.97 14.15
0 2 5 828.14 13.11
0 -2 -5 963.05 14.93
0 2 6 132.2 2.9
0 -2 -6 118.66 2.52
0 -2 -6 152.37 7.02
0 -2 -6 131.06 3.4
0 -2 -7 0.01 0.17
0 2 8 90.19 6.64
0 -2 -8 105.7 7.74
0 -2 -8 112.02 10.59
0 -2 -9 10.37 0.63
0 -2 -9 10.64 0.64
0 -2 -9 10.03 2.22
0 -2 -9 12.15 1.52
0 -2 -10 7.82 1.57
0 -2 -10 5.09 1.11
0 -2 -11 2.88 1.14
0 -2 -11 7.5 1.48
0 -2 -12 24.1 4.54
0 -2 -12 21.69 3.04
0 -2 -13 211.74 10
0 2 14 0.46 1.31
0 -2 -14 3.16 1.79
0 -2 -15 2.04 1.44
0 -3 15 4.74 1.98
0 3 -15 7.91 1.78
0 -3 14 44.04 4.41
0 3 -14 46.8 14.12
0 -3 13 90.82 5.27
0 3 -13 88.29 7.9
0 3 -12 178.85 7.36
0 -3 12 211.66 9.52
0 3 -12 207.68 16.93
0 -3 11 676.38 15.73
0 3 -11 711.52 17.81
0 3 -10 122.56 4.93
0 -3 10 146.44 6.53
0 3 -10 144.46 9.97
0 3 -9 16.88 1.99
0 -3 9 19.77 2.46
0 3 -9 21.26 3.26
0 3 -8 9.53 1.17
0 -3 8 11.6 1.72
0 3 -8 9.92 1.87
0 3 -7 455.87 15.92
0 -3 7 474.78 16.93
0 3 -7 512.63 18.11
0 3 -6 160.5 7.7
0 -3 6 149.02 7.37
0 3 -6 155.19 7.65
0 3 -5 253.86 5.55
0 -3 5 254.79 5.44
0 -3 5 212.89 5.06
0 3 -5 269.91 6.24
0 3 -4 808.16 14.59
0 -3 4 773.44 13.77
0 -3 4 800.4 14.56
0 3 -3 18.02 2.57
0 -3 3 16.45 1.13
0 -3 3 15.89 1.07
0 3 -3 15.96 1
0 3 -3 20.26 2.56
0 -3 3 24.95 2.67
0 3 -2 442.3 7.67
0 -3 2 471.55 7.98
0 -3 2 442.88 7.56
0 3 -2 459.32 7.73
0 3 -2 427.36 7.3
0 -3 2 442.69 7.4
0 3 -1 150.34 2.72
0 -3 1 155.75 2.79
0 -3 1 157.06 2.71
0 3 -1 156.42 2.67
0 3 -1 154.13 2.5
0 -3 1 144.67 3.28
0 -3 0 2655.2 18.14
0 3 0 2552.11 17.16
0 3 1 1633.44 12.15
0 -3 -1 1731.07 12.74
0 -3 -1 1599.23 11.83
0 3 1 1620.61 11.77
0 3 2 49.71 1.9
0 -3 -2 39.16 1.42
0 -3 -2 38.88 1.58
0 3 2 34.78 1.36
0 3 3 437.02 7.33
0 -3 -3 470.23 7.85
0 -3 -3 448.36 7.76
0 3 3 453.3 7.7
0 3 4 57.94 1.79
0 -3 -4 58.51 1.84
0 -3 -4 48.13 1.89
0 3 5 624.21 11.13
0 -3 -5 567.3 10.28
0 -3 -5 602.95 11.74
0 3 6 349.41 7.94
0 -3 -6 345.65 7.89
0 -3 -6 368.95 8.96
0 -3 -6 352.68 8.42
0 3 7 193.01 7.19
0 -3 -7 197.99 7.06
0 -3 -7 206.9 9.86
0 -3 -7 201.23 7.63
0 3 8 11.82 1.82
0 -3 -8 14.45 1.33
0 -3 -8 18.97 3.11
0 -3 -8 16.99 1.89
0 3 9 154.17 6.19
0 -3 -9 166.24 10.21
0 -3 -9 166.77 7.14
0 3 10 1.82 0.66
0 -3 -10 9.15 2.21
0 -3 -10 6.47 1.46
0 -3 -11 3.74 1.22
0 -3 -11 3.08 1.01
0 -3 -12 144.2 11.42
0 -3 -12 154.03 7.14
0 -3 -13 2.6 1.46
0 -3 -13 1.74 1.35
0 -3 -14 13.06 2.96
0 -3 -14 10.75 2.08
0 3 15 2.99 2.17
0 -3 -15 1.43 1.28
0 -4 14 6.29 2.66
0 4 -14 1.15 1.2
0 -4 13 100.83 7.53
0 4 -13 100.47 9.35
0 4 -12 470.45 19.67
0 -4 12 449.55 19.63
0 4 -12 428.38 22.72
0 4 -11 50.68 7.7
0 -4 11 22.88 3.56
0 4 -11 21.35 3.67
0 4 -10 551.89 12.3
0 -4 10 547.17 13.18
0 4 -10 570.48 13.53
0 4 -9 87.15 6.33
0 -4 9 97.53 8.44
0 4 -9 104.96 8.92
0 4 -8 195.68 8.05
0 -4 8 227.98 9.62
0 4 -8 180.92 11.26
0 4 -7 48.67 4.14
0 -4 7 41.76 3.78
0 4 -7 48.89 7.46
0 4 -6 5.68 0.94
0 -4 6 6.61 1.39
0 4 -6 8.91 1.77
0 -4 5 877.61 19.57
0 4 -5 814.06 19.37
0 4 -4 1141.13 24.83
0 -4 4 1059.23 23.13
0 4 -4 1176.34 25.41
0 4 -3 849.76 15.57
0 -4 3 848.94 15.42
0 4 -3 893.38 16.47
0 4 -2 192.42 4.7
0 -4 2 211.06 4.85
0 4 -2 215.24 5.78
0 -4 2 217.05 9.88
0 4 -1 848.47 15.53
0 -4 1 993.94 17.61
0 -4 1 1000.2 17.38
0 4 0 66.06 2.28
0 -4 0 78.68 2.73
0 -4 0 58.24 3.86
0 4 1 537.94 10.23
0 -4 -1 536.73 10.23
0 -4 -1 514.04 9.38
0 4 3 477.68 9.21
0 -4 -3 539.66 10.41
0 4 4 574.81 12.9
0 -4 -4 628.38 14.28
0 4 5 462.25 10.58
0 -4 -5 457.3 10.89
0 4 6 432.35 15.06
0 -4 -6 389.36 13.71
0 -4 -6 464.4 16.77
0 4 7 479.1 17.72
0 -4 -7 385.86 14.42
0 -4 -7 416.17 15.98
0 -4 -7 430.67 16.24
0 4 8 6.45 0.96
0 -4 -8 3.23 0.64
0 -4 -8 2.81 1.12
0 -4 -8 2.76 0.71
0 4 9 7.06 1.31
0 -4 -9 9.01 1.77
0 -4 -9 6.04 1.03
0 4 10 40.14 3.57
0 -4 -10 48.65 6.47
0 -4 -10 45.88 2.96
0 -4 -11 16.93 3.87
0 -4 -11 12.89 2.6
0 -4 -12 161.85 14.29
0 -4 -12 119.81 6.34
0 -4 -13 30.44 5.84
0 -4 -13 27.6 3.98
0 -4 -14 1.92 0.96
0 -4 -14 2.96 1.37
0 -5 14 1.33 1.65
0 5 -14 2.84 1.5
0 -5 13 42.83 5.01
0 5 -13 50.94 7.21
0 5 -12 30.24 3.95
0 -5 12 41.31 5.68
0 5 -12 40.38 6.6
0 5 -11 4.81 2.22
0 -5 11 2.33 1.78
0 5 -11 5.43 2.09
0 5 -10 182.39 8.39
0 -5 10 135.64 6.94
0 5 -10 136.29 12.25
0 5 -9 22.42 2.06
0 -5 9 27.72 2.61
0 5 -9 18.84 3.02
0 5 -8 153.25 6.47
0 -5 8 121.38 5.68
0 5 -8 161.38 10.1
0 5 -7 436.78 16.92
0 -5 7 452.26 17.66
0 5 -7 421.83 16.45
0 5 -6 608.03 20.4
0 -5 6 606.96 20.42
0 5 -6 639.19 21.31
0 5 -5 160.74 6.99
0 -5 5 191.49 8.13
0 5 -5 192.83 9.3
0 5 -4 140.72 6.21
0 -5 4 130.09 5.75
0 5 -4 133.99 6.24
0 5 -3 227.34 8.75
0 -5 3 211.44 8.04
0 5 -3 237.47 8.81
0 5 -2 29.12 2.7
0 -5 2 23.42 2.24
0 5 -2 29.19 3.46
0 5 -1 89.61 4.8
0 -5 1 107.5 5.61
0 5 0 213.38 10.21
0 -5 0 233.67 11.1
0 5 1 606.1 14.34
0 -5 -1 464.28 10.98
0 5 2 349.27 12.94
0 -5 -2 228.31 8.57
0 5 3 186.59 7.13
0 -5 -3 172.25 6.81
0 5 4 4.22 0.73
0 -5 -4 6.14 1.17
0 5 5 6.17 0.91
0 -5 -5 7.21 1.29
0 5 6 10.53 1.22
0 -5 -6 6.9 1.1
0 5 7 9.68 1.33
0 -5 -7 9.73 2.17
0 5 8 300.32 11.21
0 -5 -8 304.35 12.9
0 -5 -8 297.47 11.35
0 5 9 32.85 5.18
0 -5 -9 32.51 5.14
0 -5 -9 37.83 2.82
0 5 10 21.52 4.62
0 -5 -10 25.42 4.84
0 -5 -10 28.61 3.75
0 -5 -11 207.28 19.19
0 -5 -11 206.66 9.59
0 -5 -12 26.69 3.91
0 -5 -12 17.94 2.7
0 -5 -13 4.36 1.89
0 -5 -14 6.65 2.6
0 -5 -14 8.89 2.36
0 -6 13 17.92 2.43
0 6 -13 14.44 4.69
0 6 -12 24.52 4.1
0 -6 12 19.53 3.72
0 6 -12 25.34 7.65
0 6 -11 161.82 18.08
0 -6 11 183.14 20.56
0 6 -11 136.7 20.81
0 6 -10 151.51 7.74
0 -6 10 87.12 4.97
0 6 -10 93.9 8.53
0 -6 9 256.83 11.18
0 6 -9 241.6 17.54
0 6 -8 113.14 12.5
0 -6 8 122.63 14.22
0 6 -8 121.82 15.19
0 6 -7 101.78 5.32
0 -6 7 110.04 5.73
0 6 -7 115.85 12.5
0 6 -6 76.3 6.78
0 -6 6 84.87 4.35
0 6 -6 81.14 5.47
0 -6 5 492.09 17.94
0 6 -5 531.59 26.69
0 6 -4 18.49 2.31
0 -6 4 17.26 2.15
0 6 -4 24.93 4.7
0 6 -3 7.66 1.24
0 -6 3 4.66 0.95
0 6 -3 6.94 1.18
0 6 -2 148.78 6.11
0 -6 2 136.21 5.56
0 6 -1 35.49 2.79
0 -6 1 40.7 3.11
0 -6 0 118.99 5.03
0 6 1 486.18 17.42
0 -6 -1 330.18 11.68
0 6 2 52.4 3.55
0 -6 -2 47.53 3.41
0 6 3 59.34 3.89
0 -6 -3 51.16 3.57
0 6 4 84.65 6.22
0 -6 -4 82.92 6.22
0 6 5 162.43 6.61
0 -6 -5 151.84 6.49
0 6 6 679.67 24.55
0 -6 -6 664.34 24.29
0 6 7 13.87 1.88
0 -6 -7 7.17 1.33
0 6 8 10.55 1.82
0 -6 -8 11.69 2.42
0 6 9 29.17 3.69
0 -6 -9 30.21 4.41
0 -6 -9 25.96 3.42
0 -6 -10 95.56 7.44
0 -6 -10 77.72 4.25
0 -6 -11 47.19 7.37
0 -6 -11 29.59 4.32
0 -6 -12 3.36 1.67
0 -6 -12 2.95 1.95
0 -6 -13 10.22 2.54
0 -6 -13 5.58 1.71
0 7 -11 3.09 2.21
0 -7 11 1.84 1.63
0 7 -11 3.14 1.17
0 7 -10 20.27 2.75
0 -7 10 28.82 3.3
0 7 -10 29.24 3.61
0 7 -9 31.05 4.66
0 -7 9 20.62 3.24
0 7 -9 18.84 3.32
0 7 -8 0.84 1.99
0 -7 8 3.38 1.6
0 7 -8 2.26 1.01
0 7 -7 10.84 5.24
0 -7 7 5.36 1.89
0 7 -7 3.62 1.52
0 7 -6 26.05 4.63
0 -7 6 9.04 1.93
0 7 -6 9.96 2.48
0 7 -5 528.32 14.29
0 -7 5 398.86 10.19
0 7 -5 382.13 15.48
0 7 -4 25.9 2.9
0 -7 4 20.96 2.71
0 7 -4 18.71 2.54
0 7 -3 7.22 2.44
0 -7 3 5.96 1.18
0 7 -2 10.17 4.59
0 -7 2 0.91 0.9
0 7 -1 5.48 2.02
0 -7 1 1.58 0.87
0 7 0 13.57 1.77
0 -7 0 8.5 1.28
0 7 1 46.61 3.91
0 -7 -1 41.86 3.6
0 7 2 168.29 7.24
0 -7 -2 145.82 6.45
0 7 3 8.8 1.48
0 -7 -3 9.11 1.65
0 7 4 4.53 0.95
0 -7 -4 6.45 1.4
0 7 5 378.65 9.44
0 -7 -5 448.95 11.04
0 7 6 31.03 3.77
0 -7 -6 38.83 4.74
0 7 7 20.38 2.74
0 -7 -7 23.48 3.22
0 7 8 3.93 1.44
0 -7 -8 7.17 2.48
0 7 9 20.88 2.92
0 -7 -9 20.65 3.66
0 -7 -10 0.83 0.74
0 -7 -10 2.07 1.57
0 -7 -11 7.97 3.1
0 -7 -11 12.75 2.47
0 8 -10 1.17 1.17
0 -8 10 1.47 1.24
0 8 -10 1.81 0.9
0 8 -9 5.26 1.79
0 -8 9 2.88 1.33
0 8 -9 4.7 1.68
0 8 -8 36.97 6.37
0 -8 8 39.47 4.24
0 8 -8 25.54 6.75
0 8 -7 2.38 1.7
0 -8 7 1.62 1.01
0 8 -7 1.28 1.02
0 8 -6 43.35 5.85
0 -8 6 32.05 4.32
0 8 -6 38.44 7.2
0 8 -5 61.74 8.88
0 -8 5 46.89 6.65
0 8 -4 5.91 2.16
0 -8 4 6.15 1.86
0 8 -3 261.06 11.84
0 -8 3 208.35 9.35
0 8 -2 109.93 5.97
0 -8 2 120.11 6.14
0 8 -1 31.81 4.11
0 -8 1 32.6 4.26
0 8 0 395.04 25.71
0 -8 0 353.91 23.09
0 8 1 5.21 1.5
0 -8 -1 2.23 1.22
0 8 2 5.09 1.22
0 -8 -2 7.09 1.84
0 8 3 20.72 3.02
0 -8 -3 20.18 2.97
0 8 4 29.51 4.38
0 -8 -4 35.44 5.21
0 8 5 32.32 4.77
0 -8 -5 19.67 5.99
0 8 6 2.7 1.2
0 -8 -6 1.5 1.25
0 8 7 2.48 1.42
0 -8 -7 2.72 1.39
0 8 8 135.45 15.2
0 -8 -8 113.68 19.58
0 -8 -9 53.91 34.18
0 -8 -10 1.42 1.03
0 9 -7 3.11 1.78
0 -9 7 4.98 1.96
0 9 -6 3.06 1.79
0 -9 6 4.94 2.06
0 9 -5 28.95 5.33
0 -9 5 34.41 5.57
0 9 -4 0.63 1.8
0 -9 4 2.46 1.48
0 9 -3 1.86 2.61
0 -9 3 3.23 2.06
0 9 -2 2.2 1.42
0 -9 2 2.82 2.06
0 9 -1 163.75 10.95
0 -9 1 150.96 10.34
0 9 0 35.5 4.95
0 -9 0 39.6 5.31
0 9 1 9.16 2.94
0 -9 -1 15.06 2.67
0 9 2 3.65 1.94
0 -9 -2 2.44 1.59
0 9 3 4.65 1.6
0 -9 -3 6.69 2.54
0 9 4 2 1.23
0 -9 -4 2.02 1.35
0 9 5 1.08 1.16
0 -9 -5 2.1 1.53
0 9 6 145.01 13.13
0 -9 -6 114.24 10.59
0 9 7 174.83 105.76
0 -9 -7 203.86 123.33
0 10 -3 5.97 2.28
0 -10 3 4.93 2.03
0 10 -2 18.09 2.4
0 -10 2 13.67 3.1
0 10 -1 7.02 1.88
0 -10 1 16.88 3.04
0 10 0 2.42 1.49
0 -10 0 4.57 2.24
0 10 1 108.84 65.92
0 -10 -1 93.84 56.87
0 10 2 40.72 24.79
0 -10 -2 45.26 27.53
0 10 3 71.24 5.69
0 -10 -3 86.18 6.51
-1 10 1 16 3.49
1 -10 -1 16.39 2.68
-1 10 0 57.39 4.96
1 -10 0 54.62 4.57
-1 10 -1 31.83 3.81
1 -10 1 26.37 3.17
-1 9 7 27.85 3.05
1 -9 -7 22.57 2.58
-1 9 6 11.42 2.44
1 -9 -6 16.27 3.01
-1 9 5 6.5 1.72
1 -9 -5 9.86 2.01
-1 9 4 27.88 4.76
1 -9 -4 21.31 3.66
-1 9 3 5.04 2.07
1 -9 -3 3.1 1.27
-1 9 2 2.94 1.95
1 -9 -2 0.62 0.95
-1 9 1 13.1 2.24
1 -9 -1 18.11 2.24
-1 9 0 55.6 6.82
1 -9 0 59.32 7.1
-1 9 -1 5.17 1.73
1 -9 1 6.76 2.21
-1 9 -2 2.5 1.54
1 -9 2 3.49 1.6
-1 9 -3 6.12 2.83
1 -9 3 2.09 1.39
-1 9 -4 43.07 5.64
1 -9 4 46.17 5.04
-1 9 -5 83.48 8.56
1 -9 5 77.49 7.74
-1 9 -6 6.02 2.43
1 -9 6 5.39 2.1
-1 9 -7 138.76 10.02
1 -9 7 156.83 10.63
-1 8 9 16.22 2.72
1 -8 -9 11.37 3.05
-1 8 8 24.21 4.02
1 -8 -8 24.94 7.1
-1 8 7 11.22 1.73
1 -8 -7 13.83 2.04
-1 8 6 206.39 13.26
1 -8 -6 209.54 13.47
-1 8 5 5.56 1.78
-1 8 4 1.49 1.04
1 -8 -4 2.61 1.31
-1 8 3 61.79 8.61
1 -8 -3 67.7 9.31
-1 8 2 2.69 1.3
1 -8 -2 5.96 1.81
-1 8 1 31.96 4.3
1 -8 -1 40.12 5.07
-1 8 0 178.47 8.17
1 -8 0 204.68 8.99
-1 8 -1 10.91 2.08
1 -8 1 8.84 1.67
-1 8 -2 221.98 10.66
1 -8 2 245.32 11.29
-1 8 -3 48.34 7.41
1 -8 3 44.14 6.35
-1 8 -4 155.31 8.04
1 -8 4 154.8 7.75
-1 8 -5 112.3 5.82
1 -8 5 120.73 5.94
-1 8 -6 96.72 7.05
1 -8 6 73.83 5.63
-1 8 -7 27.72 3.23
1 -8 7 27.95 2.98
-1 8 -7 23 2.49
-1 8 -8 6.1 2.06
1 -8 8 1.56 1.26
-1 8 -8 1.31 1.24
-1 8 -9 61.12 37.1
1 -8 9 46.26 28.18
-1 8 -9 44.72 27.73
1 -7 -11 16.89 3
1 -7 -10 6.43 2.88
1 -7 -10 4.62 2.19
-1 7 9 2.87 1.2
1 -7 -9 5.54 1.81
-1 7 8 60 3.59
1 -7 -8 52.92 8.25
-1 7 7 6.05 1.69
1 -7 -7 4 1.28
-1 7 6 160.78 7.29
1 -7 -6 156.6 7.21
-1 7 5 24.11 3.38
1 -7 -5 36.3 4.41
-1 7 4 4.56 0.98
1 -7 -4 9.86 1.77
-1 7 3 0.77 0.86
1 -7 -3 3.57 1.68
-1 7 2 106.1 5.42
1 -7 -2 88.11 4.63
-1 7 1 245.62 10.03
1 -7 -1 210.49 8.69
-1 7 0 114.14 5.43
1 -7 0 112.54 5.23
-1 7 -1 684.21 25.17
1 -7 1 696.21 25.41
-1 7 -2 163.91 7.28
1 -7 2 174.11 7.59
-1 7 -3 90.24 5.23
1 -7 3 78.66 4.24
-1 7 -4 4.8 1.46
1 -7 4 2.54 1.11
-1 7 -5 259 17.3
1 -7 5 265.56 17.57
-1 7 -6 30.81 4.24
1 -7 6 25.86 3.66
-1 7 -6 27.13 4.06
-1 7 -7 10.15 2.58
1 -7 7 11.47 2.97
-1 7 -7 10.69 3.13
-1 7 -8 34.69 4.67
1 -7 8 44.12 5.77
-1 7 -8 43.89 7.12
-1 7 -9 54.84 14.41
1 -7 9 58.46 15.33
-1 7 -9 46.69 9.27
-1 7 -10 33.26 5.45
1 -7 10 48.22 5.18
-1 7 -10 32.73 6.57
-1 7 -11 38.24 23.28
1 -7 11 56.7 34.44
-1 7 -11 44.9 28.62
1 -6 -12 105.15 65.05
1 -6 -12 114.25 69.17
1 -6 -11 8.16 1.8
1 -6 -11 8.31 1.5
1 -6 -10 1.18 0.68
1 -6 -10 -0.12 1.01
-1 6 9 5.93 1.58
1 -6 -9 6.05 1.83
-1 6 8 15.12 2.25
1 -6 -8 14.19 2.87
-1 6 7 33.03 2.37
1 -6 -7 36 4.66
-1 6 6 192.07 7.87
1 -6 -6 192.42 5.88
-1 6 5 43.77 3.62
1 -6 -5 36.88 3.63
-1 6 4 854.46 30.13
1 -6 -4 886.12 31.25
-1 6 3 130.6 5.96
1 -6 -3 151.23 6.7
-1 6 2 251.66 10.3
1 -6 -2 268.45 10.82
-1 6 1 471.4 16.17
1 -6 -1 461.32 15.73
-1 6 0 102.87 4.7
1 -6 0 109.62 4.68
-1 6 -1 19.01 1.91
1 -6 1 25.21 2.4
-1 6 -2 11.46 1.85
1 -6 2 9.96 1.78
-1 6 -3 82.29 6.26
1 -6 3 71.46 7.17
-1 6 -4 83.75 6.39
1 -6 4 69.96 5.39
-1 6 -4 79.42 5.92
1 -6 5 1104.87 38.62
-1 6 -5 1020.55 35.87
-1 6 -6 71.41 6.46
1 -6 6 66.48 5.97
-1 6 -6 77.02 10.47
-1 6 -7 868.36 19.03
1 -6 7 889.98 19.69
-1 6 -7 872.3 19
-1 6 -8 115.25 12.7
1 -6 8 118.23 13.73
-1 6 -8 94.29 12.71
-1 6 -9 2.32 1.45
1 -6 9 1.85 1.26
-1 6 -9 1.9 0.98
-1 6 -10 5.16 1.85
1 -6 10 6.13 1.84
-1 6 -10 2.95 1.58
-1 6 -11 11.45 2
1 -6 11 15.82 2.13
-1 6 -11 23.46 5.27
-1 6 -12 139.21 84.23
1 -6 12 161.49 97.72
-1 6 -12 145.03 88.32
1 -5 -13 1.47 1.35
1 -5 -13 4.58 2.03
1 -5 -12 93.53 13.13
1 -5 -12 96.15 11.12
1 -5 -11 21.69 4.32
1 -5 -11 24.18 3.41
-1 5 10 5.7 2
1 -5 -10 7.69 2.52
1 -5 -10 9.15 2.36
-1 5 9 19.73 4.59
1 -5 -9 28.38 5.34
1 -5 -9 21.46 2.9
-1 5 8 96.63 9.99
1 -5 -8 109.9 10.14
-1 5 7 98.73 8.29
1 -5 -7 104.52 11.42
-1 5 6 728.56 27.22
1 -5 -6 670.55 25.34
-1 5 5 540.14 18.04
1 -5 -5 493.96 16.72
-1 5 4 167.15 7
1 -5 -4 176.19 7.32
-1 5 3 351.43 13.57
1 -5 -3 346.09 13.37
-1 5 2 2.06 0.78
1 -5 -2 1.26 0.53
-1 5 1 737.31 25.51
1 -5 -1 811.35 27.85
-1 5 0 226.92 8.66
1 -5 0 227.09 8.52
-1 5 -1 5.4 1.16
1 -5 1 11.1 1.35
-1 5 -2 872.5 30.11
1 -5 2 784.81 27
-1 5 -3 385.05 14
1 -5 3 356.06 12.86
-1 5 -3 379.8 13.63
-1 5 -4 53.23 4.63
1 -5 4 59.62 5.05
-1 5 -4 60.1 6.74
1 -5 5 66.02 3.59
-1 5 -5 56.3 6.52
-1 5 -6 743.81 28.02
1 -5 6 708.82 26.82
-1 5 -6 769.19 29.02
-1 5 -7 303.37 11.55
1 -5 7 304.07 11.73
-1 5 -7 266.83 10.96
-1 5 -8 336.33 12.89
1 -5 8 335.29 13.18
-1 5 -8 316.59 12.34
-1 5 -9 135.3 4.56
1 -5 9 179.67 6.49
-1 5 -9 132.78 11.16
-1 5 -10 35.52 4.47
1 -5 10 45.01 5.73
-1 5 -10 62.68 6.91
-1 5 -11 49.27 6.15
1 -5 11 55.07 7.03
-1 5 -11 33.09 7.99
-1 5 -12 54.88 14.26
1 -5 12 64.82 5.04
-1 5 -12 70.52 9.36
1 -5 13 1.79 1.6
-1 5 -13 1.39 0.6
1 -5 14 170.54 11.54
-1 5 -14 125.57 13.44
1 -4 -14 1.32 1.8
1 -4 -14 6.49 2.26
1 -4 -13 8.28 2.85
1 -4 -13 16.02 2.32
1 -4 -12 58.05 10.85
1 -4 -12 77.32 4.48
1 -4 -11 225.16 13.07
1 -4 -11 154.51 7.3
-1 4 10 446.25 28.6
1 -4 -10 563.76 41.03
1 -4 -10 536.52 34.35
-1 4 9 118.63 7.24
1 -4 -9 120.21 11.38
1 -4 -9 124.69 5.67
-1 4 8 173.32 11.3
1 -4 -8 158.92 10.11
-1 4 7 376.57 12.67
1 -4 -7 385.76 13.33
-1 4 6 263.23 10.2
1 -4 -6 277.67 12.6
-1 4 5 49.22 3.98
1 -4 -5 53.01 4.3
-1 4 4 11.73 1.18
1 -4 -4 11.29 1.14
-1 4 3 68.64 3.69
1 -4 -3 67.79 3.65
-1 4 2 34.23 2.18
1 -4 -2 39.77 2.36
-1 4 1 2015.88 34.3
1 -4 -1 1962.6 33.21
-1 4 -1 4467.04 74.09
1 -4 1 3969.6 65.69
-1 4 -2 31.86 2.17
1 -4 2 35.86 2.2
-1 4 -3 236.13 11.22
1 -4 3 235.31 11.06
-1 4 -3 248.46 14.58
-1 4 -4 5.21 0.88
1 -4 4 4.21 0.86
-1 4 -4 6.23 1.13
1 -4 5 295.98 10.84
-1 4 -5 340.3 12.38
-1 4 -6 571.33 21.39
1 -4 6 607.42 22.96
-1 4 -6 565.4 21.46
-1 4 -7 176.14 6.62
1 -4 7 180 7.03
-1 4 -7 166.36 9.64
-1 4 -8 146.74 6.3
1 -4 8 158.98 7.08
-1 4 -8 127.23 5.77
-1 4 -9 390.93 14.54
1 -4 9 424.59 16.15
-1 4 -9 370.5 14.21
-1 4 -10 33.81 2.61
1 -4 10 31.32 2.48
-1 4 -10 32.42 3.97
-1 4 -11 6.36 1.54
1 -4 11 3.99 1.28
-1 4 -11 12.68 2.88
-1 4 -12 185.72 7.48
1 -4 12 231.78 9.82
-1 4 -12 208.08 18.13
1 -4 13 58.55 7.06
-1 4 -13 40.01 5.35
1 -4 14 16.52 3.19
-1 4 -14 19.93 3.78
-1 3 15 66.66 5.57
1 -3 -15 61.4 5.42
1 -3 -14 79.05 10.19
1 -3 -14 91.66 8.77
1 -3 -13 12.17 2.7
1 -3 -13 10.16 3.14
1 -3 -12 289.99 14.78
1 -3 -12 319.24 14.35
1 -3 -11 238.96 19.36
1 -3 -11 245.57 16.31
-1 3 10 21.78 3.58
1 -3 -10 53.07 10.2
1 -3 -10 34.42 3.46
-1 3 9 252.38 9.89
1 -3 -9 233.43 9.96
1 -3 -9 231.01 9.63
-1 3 8 9.34 1.36
1 -3 -8 6.83 0.76
1 -3 -8 6.79 1.07
1 -3 -8 13.04 1.48
-1 3 7 234.18 10.87
1 -3 -7 202.14 7.78
1 -3 -7 218.53 10.7
-1 3 6 207.71 10.15
1 -3 -6 210.3 7.7
1 -3 -6 196.34 12.13
-1 3 5 120.47 5.86
1 -3 -5 124.47 6.1
1 -3 -5 137.88 11.58
-1 3 4 2381.12 39.81
1 -3 -4 2424.12 40.62
-1 3 3 8.1 0.8
1 -3 -3 7.87 0.72
1 -3 -3 7.41 0.7
-1 3 3 7.56 0.68
-1 3 2 155.03 3.49
1 -3 -2 156.44 3.44
1 -3 -2 160.75 3.51
-1 3 1 263.3 5.07
1 -3 -1 262.18 4.95
1 -3 -1 257.8 4.79
-1 3 1 265.2 4.86
-1 3 0 2150.01 31.66
1 -3 0 2121.26 31.18
-1 3 0 2106.95 30.73
1 -3 0 2223.69 32.83
-1 3 -1 1329.69 20.25
1 -3 1 1279.31 19.36
-1 3 -1 1306.04 19.55
1 -3 1 1357.72 20.83
-1 3 -2 968.09 15.2
1 -3 2 966.09 15.03
-1 3 -2 966.67 14.95
-1 3 -2 1023.44 16.04
1 -3 2 1042.91 16.02
-1 3 -3 157.06 3.65
1 -3 3 144.51 3.3
1 -3 3 159.83 3.6
-1 3 -3 147.99 3.39
-1 3 -3 162.13 5.26
-1 3 -4 57.12 2.08
1 -3 4 48.13 1.82
1 -3 4 58.39 2.19
-1 3 -4 52.4 3.45
-1 3 -5 130.1 6.37
1 -3 5 127.46 6.35
-1 3 -5 129.55 11.78
-1 3 -6 42.9 2.51
1 -3 6 47.55 2.89
-1 3 -6 46.38 5.22
-1 3 -7 112.13 8.53
1 -3 7 122.72 9.76
-1 3 -7 118.1 9.33
-1 3 -8 952.92 30.69
1 -3 8 998.65 32.65
-1 3 -8 973.89 31.79
-1 3 -9 3.22 1.12
1 -3 9 6.02 1.62
-1 3 -9 2.26 1.06
-1 3 -10 250.43 9.41
1 -3 10 284.98 11.38
-1 3 -10 248.37 9.98
1 -3 11 109.3 5.72
-1 3 -11 96.82 7.98
1 -3 12 255.84 11.15
-1 3 -12 250.55 10.87
1 -3 13 0.59 1.26
-1 3 -13 4.3 1.45
1 -3 14 1.62 1.56
-1 3 -14 1 1.26
1 -3 15 3.09 1.59
-1 3 -15 5.83 1.72
-1 2 15 7.53 1.75
1 -2 -15 19.97 3.45
-1 2 14 71.5 8.67
1 -2 -14 68.08 8.5
-1 2 13 91.91 5.07
1 -2 -13 94.2 5.14
1 -2 -12 129.61 9.79
1 -2 -12 113.64 6.17
1 -2 -11 5.43 0.69
1 -2 -11 5.28 1.14
1 -2 -11 9.5 2
1 -2 -10 2.11 0.49
1 -2 -10 7.1 0.71
1 -2 -10 9.13 2.17
1 -2 -9 59.19 3.47
1 -2 -9 52.88 3.02
1 -2 -9 56.63 5.02
1 -2 -9 55.63 3.82
-1 2 8 1.25 0.62
1 -2 -8 0.95 0.45
1 -2 -8 1.54 0.82
1 -2 -8 1.91 1.16
-1 2 7 885.82 30
1 -2 -7 931.31 31.32
1 -2 -7 1066.79 36.46
1 -2 -7 1066.21 36.37
-1 2 6 484.51 10.87
1 -2 -6 465.01 10.24
1 -2 -6 521.1 16.02
-1 2 5 6267.27 277.39
1 -2 -5 6319.37 279.61
1 -2 -5 6358.48 281.5
-1 2 5 5465.78 242.13
-1 2 4 227.9 4.36
1 -2 -4 225.1 4.13
1 -2 -4 214.45 4.24
-1 2 4 214.6 4.17
-1 2 3 423.28 4.47
1 -2 -3 435.94 4.41
1 -2 -3 383.88 4.22
-1 2 3 411.94 4.31
1 -2 -2 38.6 1.18
1 -2 -2 33.16 1.13
-1 2 2 37.5 1.09
-1 2 1 1201.83 9.21
-1 2 0 23.16 1.02
1 -2 0 24.22 1.02
-1 2 0 20.49 0.78
1 -2 1 602.88 5.86
-1 2 -1 593.94 5.37
1 -2 1 563.29 5.21
-1 2 -2 1565.27 11.43
-1 2 -2 1551.27 11.02
-1 2 -2 1475.71 10.84
1 -2 2 1510.07 10.95
-1 2 -3 3901.48 24.94
1 -2 3 3895.54 24.54
1 -2 3 3919.65 25.01
-1 2 -3 3792.5 24.29
1 -2 3 3786.21 24.31
-1 2 -4 558.12 9.05
1 -2 4 573.14 9.12
1 -2 4 531.11 8.95
-1 2 -4 542.47 10.01
-1 2 -4 528.1 8.85
1 -2 4 581.47 9.63
-1 2 -5 12.29 0.82
1 -2 5 10.14 0.77
1 -2 5 9.67 1.09
-1 2 -5 8.81 1.42
-1 2 -6 794.34 14.02
1 -2 6 801.9 14.03
1 -2 6 769.13 14.26
-1 2 -6 767.04 14.57
-1 2 -7 331.97 7.71
1 -2 7 334.33 7.65
1 -2 7 361.53 9.04
-1 2 -7 354.41 8.85
-1 2 -8 22.33 1.94
1 -2 8 21.68 1.86
1 -2 8 22.25 2.25
-1 2 -8 28.92 3.51
-1 2 -9 70.18 2.78
1 -2 9 69.19 2.79
1 -2 9 79.98 3.94
-1 2 -9 72.23 6.48
-1 2 -10 1.94 0.61
1 -2 10 0.85 0.64
1 -2 10 2.9 1.17
-1 2 -10 1.33 0.76
-1 2 -11 1.33 0.46
1 -2 11 4.46 1.45
-1 2 -11 1.49 0.75
1 -2 12 20.78 3.08
-1 2 -12 38.81 7.01
1 -2 13 61.3 8.58
-1 2 -13 73.37 11.86
1 -2 14 48.83 13.07
-1 2 -14 70.62 10.73
1 -2 15 9.67 2.95
-1 2 -15 0.96 1.25
-1 1 15 57.02 5.98
1 -1 -15 66.48 6.72
-1 1 14 2.75 1.89
1 -1 -14 2.47 1.46
-1 1 13 19.29 4.56
1 -1 -13 10.51 2.57
-1 1 12 140.6 9.81
1 -1 -12 135.73 9.68
-1 1 11 660.81 24.24
1 -1 -11 813.5 29.77
1 -1 -10 937.36 34.05
1 -1 -10 1074.69 40.15
1 -1 -9 4.05 0.47
1 -1 -9 6.96 0.63
1 -1 -9 9.3 1.45
1 -1 -9 10.05 1.59
1 -1 -8 248.05 8.65
1 -1 -8 262.76 9.1
1 -1 -8 256.37 10.02
1 -1 -8 250.6 9.48
1 -1 -7 415.84 9.14
1 -1 -7 445.48 9.78
1 -1 -7 410.06 9.86
1 -1 -7 447.6 10.74
-1 1 6 404.85 7.53
1 -1 -6 436.07 7.85
1 -1 -6 390.57 7.86
1 -1 -6 430.09 8.67
-1 1 5 103.31 3.18
1 -1 -5 122.79 3.46
-1 1 5 100.93 2.73
1 -1 -5 100.78 2.68
1 -1 -4 534.71 4.76
1 -1 -4 523.88 5.16
-1 1 3 2.97 0.63
1 -1 -3 1.44 0.3
1 -1 -3 2.9 0.47
-1 1 3 1.84 0.29
1 -1 -2 136.95 1.95
-1 1 2 125.79 1.67
1 -1 -1 2542.13 16.07
-1 1 1 2491.76 15.09
-1 1 0 91.82 1.55
1 -1 0 84.79 1.47
-1 1 0 92.79 1.2
-1 1 -1 769.61 5.93
1 -1 1 793.22 5.94
1 -1 1 795.21 5.73
-1 1 -1 804.32 5.74
1 -1 1 799.58 5.99
-1 1 -2 4530.16 27.21
1 -1 2 4718.7 28.44
-1 1 -2 4816.35 28.92
-1 1 -2 4652.18 28.17
1 -1 2 4720.79 28.45
-1 1 -3 21.72 0.75
1 -1 3 22.5 0.73
1 -1 3 25.75 1.05
-1 1 -3 21.95 0.91
-1 1 -3 24.44 2.82
1 -1 3 26.99 2.04
-1 1 -4 1584.9 10.65
1 -1 4 1559.57 10.42
1 -1 4 1543.32 11.75
-1 1 -4 1567.77 11.69
-1 1 -4 1483.81 11.45
1 -1 4 1554.01 11.46
-1 1 -5 934.18 13.83
1 -1 5 964.33 14.22
1 -1 5 890.66 14.66
1 -1 5 961.74 15.12
-1 1 -5 887.87 13.97
1 -1 5 959.29 14.84
-1 1 -6 943.25 15.92
1 -1 6 971.43 16.33
1 -1 6 994.77 17.99
-1 1 -6 1060.86 19.11
-1 1 -7 34.85 1.82
1 -1 7 34.87 1.8
1 -1 7 29.7 2.28
-1 1 -7 36.63 2.35
-1 1 -8 13.57 1.18
1 -1 8 13.89 1.19
1 -1 8 14.08 1.84
-1 1 -8 20.67 2.92
-1 1 -9 0.68 0.26
1 -1 9 1.75 0.51
1 -1 9 2.33 0.87
-1 1 -9 0.55 0.98
-1 1 -10 272.28 10.06
1 -1 10 268.49 9.91
1 -1 10 271.69 11.06
-1 1 -10 327.47 13.26
1 -1 11 44.57 3.77
-1 1 -11 62.26 8.41
1 -1 12 16.87 2.46
-1 1 -12 28.38 2.74
1 -1 13 190.85 8.85
-1 1 -13 215.2 9.64
1 -1 14 5.17 2.06
1 -1 15 30.44 5.12
-1 1 -15 42.74 5.59
1 -1 16 5.13 1.71
-1 1 -16 5.49 1.78
-1 0 15 65.28 6.69
1 0 -15 71.7 7.22
-1 0 14 5.73 2.7
1 0 -14 3.5 2.12
-1 0 13 112.69 6.2
1 0 -13 124.61 6.66
-1 0 12 54.35 6.4
1 0 -12 55.05 6.55
1 0 -11 1135.8 40.83
1 0 -10 0.1 0.14
-1 0 10 16.49 2.36
1 0 -9 322.26 12.26
1 0 -9 344.94 12.67
-1 0 9 330.47 12.88
1 0 -9 381.44 14.9
1 0 -8 140.49 5.29
1 0 -8 137.03 4.97
-1 0 8 142 5.71
1 0 -8 132.35 5.56
1 0 -7 437.61 9.65
1 0 -7 498.56 10.92
-1 0 7 448.67 10.53
1 0 -7 462.65 11.04
1 0 -6 30.83 1.52
1 0 -6 29.57 1.11
-1 0 6 25.68 1.29
1 0 -6 30.95 1.59
1 0 -5 17.27 2.3
1 0 -5 13.74 0.71
-1 0 5 16.27 2.22
-1 0 5 15.61 0.95
1 0 -5 20.4 1.14
1 0 -4 5078.23 30.46
-1 0 2 460.27 4.14
1 0 -2 465.22 4
-1 0 1 32.2 1.1
1 0 -1 32.93 1.03
-1 0 1 29.81 0.52
-1 0 0 331.44 2.93
1 0 0 294.02 2.63
-1 0 -1 496.76 3.87
-1 0 -1 513.3 3.69
-1 0 -2 2869.73 17.19
-1 0 -3 4.11 0.55
1 0 3 2.85 0.24
-1 0 -3 2.71 0.48
1 0 3 8.16 1.49
-1 0 -3 4.67 0.65
1 0 3 4.98 0.5
-1 0 -4 14.59 0.61
1 0 4 17.81 0.47
-1 0 -4 15.68 2.48
1 0 4 15.26 2.05
-1 0 -4 16.81 0.86
-1 0 -5 263.35 4.03
1 0 5 269.6 4.03
-1 0 -5 274.51 6.11
-1 0 -5 263 4.91
1 0 5 287.88 5.35
-1 0 -6 147.7 2.3
1 0 6 138.51 2.12
1 0 6 132.57 3.27
-1 0 -6 137.79 3.26
1 0 6 143.86 3.34
1 0 7 606.17 11.62
-1 0 -7 626.21 11.8
1 0 8 200.66 9.7
-1 0 -8 194.34 9.36
1 0 9 2.91 0.91
-1 0 -9 6.99 1.21
1 0 10 5.36 1.01
-1 0 -10 8.06 1.44
1 0 11 23.54 2.63
1 0 12 50.27 3.55
1 0 13 11.23 2.44
-1 0 -13 11.7 2.27
1 0 14 3.35 2.27
-1 0 -14 4.87 2.24
1 0 15 2.89 2.53
-1 0 -15 1.55 1.39
1 0 16 5.13 1.82
-1 0 -16 4.67 2.21
-1 -1 15 6.12 2.63
1 1 -15 3.45 1.96
-1 -1 14 14.82 2.61
1 1 -14 21.42 3.45
-1 -1 13 18.06 4.25
1 1 -13 14.72 3.62
1 1 -12 301.4 19.85
1 1 -11 8.03 0.92
-1 -1 11 5.19 1.24
1 1 -11 7.9 1.55
1 1 -10 9.16 1.7
1 1 -10 12.67 1.43
-1 -1 10 15.52 2.2
1 1 -10 8.14 1.4
1 1 -9 672.29 24.65
1 1 -9 687.17 24.99
-1 -1 9 734.75 28.24
1 1 -9 711.68 26.62
1 1 -8 0.68 0.39
1 1 -8 1.6 0.52
-1 -1 8 2.28 0.92
1 1 -8 3.41 1.27
1 1 -7 201.67 9.32
-1 -1 7 202.76 9.34
-1 -1 7 188.9 9.11
1 1 -7 208.49 10.03
1 1 -6 88.47 2.28
-1 -1 6 83.68 2.19
-1 -1 6 89.58 2.9
1 1 -6 92.18 2.97
1 1 -5 263.43 4.73
-1 -1 5 248.8 4.46
-1 -1 5 225.13 4.64
-1 -1 5 251.75 4.96
1 1 -5 253.77 5.2
-1 -1 5 251.47 4.97
1 1 -4 1359.08 9.87
-1 -1 4 1419.05 10.09
-1 -1 4 1395.5 10.69
1 1 -4 1486.49 11.02
1 1 -4 1376.61 10.94
-1 -1 4 1490.21 11.23
1 1 -3 166.98 2.32
-1 -1 3 175.29 2.31
1 1 -3 174.99 2.7
-1 -1 3 171.78 2.55
1 1 -2 910.63 6.95
-1 -1 2 897.74 6.64
1 1 -2 844.54 6.54
-1 -1 2 824.15 6.3
-1 -1 1 3077.25 19.09
-1 -1 1 2994.84 18.05
1 1 -1 3003.66 18.22
-1 -1 0 1032.46 6.95
1 1 1 4.25 0.4
-1 -1 -1 3.48 0.42
-1 -1 -1 2.95 0.32
1 1 1 1.86 0.25
-1 -1 -2 1190.47 7.81
1 1 2 1230.62 8.49
1 1 2 1265.41 8.04
1 1 3 51.68 0.81
-1 -1 -3 48.52 1.78
1 1 3 54.61 3.39
-1 -1 -3 52.98 1.14
1 1 3 52.09 1.11
1 1 4 1634.14 9.81
-1 -1 -4 1681.27 12.28
1 1 4 1646.31 12.05
-1 -1 -4 1564.5 10.99
1 1 4 1549.3 10.83
-1 -1 -5 177.68 4.11
1 1 5 168.93 7.68
-1 -1 -5 174.54 3.56
1 1 5 179.25 3.58
-1 -1 -6 4.86 1.19
-1 -1 -6 3.11 0.46
1 1 6 2.12 0.43
-1 -1 -7 782.76 17.46
-1 -1 -8 5.19 0.9
-1 -1 -9 258 16.67
-1 -1 -9 205.29 8.3
-1 -1 -10 155.37 14.46
-1 -1 -10 125.13 5.61
1 1 11 45.67 3.91
-1 -1 -11 52.75 4.26
1 1 12 468.79 11.79
-1 -1 -12 445.67 10.94
1 1 13 113.04 5.99
-1 -1 -13 128.84 6.35
1 1 14 3.89 2.31
-1 -1 -14 3.68 1.63
1 1 15 7.09 2.19
-1 -1 -15 5.55 2.06
1 1 16 8.01 2.56
-1 -1 -16 9.16 2.95
-1 -2 15 95.51 57.87
1 2 -15 105.74 64.09
-1 -2 14 2.94 1.55
1 2 -14 2.18 1.75
1 2 -13 4.67 1.79
1 2 -12 0.85 0.53
-1 -2 12 2.91 1.7
1 2 -12 0.63 1.29
1 2 -11 7.5 1.06
-1 -2 11 11.1 1.94
1 2 -11 6.89 1.94
1 2 -10 641.47 22.33
-1 -2 10 671.09 24.1
1 2 -10 692.4 24.84
1 2 -9 606.8 19.75
-1 -2 9 574.41 19.42
1 2 -9 537.99 18.26
1 2 -8 317.8 12.03
-1 -2 8 293.98 11.62
1 2 -8 288.56 11.45
1 2 -7 225.25 10.49
-1 -2 7 205.13 9.54
-1 -2 7 208.31 10
1 2 -7 211.1 10.13
1 2 -6 1053.48 18.3
-1 -2 6 1078.18 18.69
-1 -2 6 1058.74 18.95
1 2 -6 1035 18.48
1 2 -5 35.4 1.41
-1 -2 5 32.45 1.34
-1 -2 5 34.18 1.55
1 2 -5 31.95 1.46
1 2 -4 994.54 15.28
-1 -2 4 1025.84 15.61
-1 -2 4 901.46 14.07
-1 -2 4 1042.45 15.96
1 2 -3 60.99 1.67
-1 -2 3 61.2 1.54
-1 -2 3 61.09 1.61
-1 -2 3 61.72 1.54
1 2 -2 271.32 3.5
-1 -2 2 290.86 3.66
-1 -2 2 276.91 3.33
1 2 -2 265.62 3.16
1 2 -2 278.8 3.1
-1 -2 2 256.74 2.98
1 2 -1 664.6 6.01
-1 -2 1 678.09 6.01
-1 -2 1 680.69 5.66
1 2 -1 691.78 5.24
-1 -2 1 688.06 5.16
1 2 0 311.63 2.63
1 2 1 1240.58 9
-1 -2 -1 1241.33 9
-1 -2 -1 1142.31 8.43
1 2 1 1174.48 8.56
1 2 2 370.91 3.68
-1 -2 -2 392.72 3.81
-1 -2 -2 381.3 4.06
1 2 2 408.84 4.1
1 2 3 103.05 1.65
-1 -2 -3 92.06 1.55
-1 -2 -3 102.96 2.02
1 2 3 101.19 2.01
-1 -2 -3 91.46 1.46
1 2 4 410.78 6.4
-1 -2 -4 396.8 6.27
-1 -2 -4 399.04 6.94
1 2 4 394.69 6.77
-1 -2 -4 403.7 6.58
-1 -2 -5 570.18 9.68
-1 -2 -6 15.78 1.79
1 2 7 646.24 13.41
-1 -2 -7 616.36 12.76
-1 -2 -7 612.44 14.22
-1 -2 -7 625.32 14.12
-1 -2 -8 13.76 2.68
-1 -2 -8 15.03 1.69
-1 -2 -9 24.56 4.32
-1 -2 -9 18.22 1.93
-1 -2 -10 18.05 3.29
-1 -2 -10 12.51 1.67
-1 -2 -11 75.35 11.22
-1 -2 -11 80.86 4.13
-1 -2 -12 146.43 11.56
-1 -2 -12 134.39 9.23
-1 -2 -13 2.6 1.55
-1 -2 -13 1.71 1.03
1 2 14 5.97 2.77
-1 -2 -14 5.54 2.07
1 2 15 3.46 2.64
-1 -2 -15 3.25 1.65
1 2 16 33.76 3.42
-1 -2 -16 46.98 4.42
-1 -3 15 138.32 9.66
1 3 -15 144.74 16
1 3 -14 3.78 1.68
-1 -3 13 29.6 4.15
1 3 -13 35.08 5.54
1 3 -12 104.9 4.67
-1 -3 12 113.1 5.85
1 3 -12 142.49 7.9
1 3 -11 77.42 3.88
-1 -3 11 84.22 4.84
1 3 -11 115.63 6.53
1 3 -10 235.63 9.1
-1 -3 10 265 10.68
1 3 -10 277.29 11.42
1 3 -9 146.93 6.18
-1 -3 9 149.67 6.76
1 3 -9 167.2 7.55
1 3 -8 1.48 0.68
-1 -3 8 2.94 0.89
1 3 -8 3.97 1.59
1 3 -7 10.76 1.31
-1 -3 7 7.14 1.09
1 3 -7 9.2 1.34
1 3 -6 234.72 11.03
-1 -3 6 219.73 10.5
1 3 -6 272.38 7.51
-1 -3 5 234.76 5.41
1 3 -5 285.37 8.16
1 3 -4 1152.78 20.27
-1 -3 4 1127.41 19.66
1 3 -4 1147.64 19.98
-1 -3 4 1139.68 19.78
1 3 -3 122.7 3.13
-1 -3 3 121.93 2.95
-1 -3 3 101.3 2.7
1 3 -3 124.37 2.97
1 3 -3 116.56 3.31
-1 -3 3 112.12 2.64
1 3 -2 1210.56 18.63
-1 -3 2 1221.65 18.51
-1 -3 2 1195.76 18.13
1 3 -2 1208.3 18.31
1 3 -2 1186.1 17.68
-1 -3 2 1187.69 17.59
1 3 -1 30.48 1.26
-1 -3 1 40.93 1.45
-1 -3 1 39.95 1.4
1 3 -1 37.09 1.35
1 3 -1 39.14 3.23
-1 -3 1 44.09 1.28
1 3 0 43.64 1.5
-1 -3 0 44.96 1.45
-1 -3 0 56.73 1.69
1 3 0 43.72 1.37
1 3 0 45.53 1.6
-1 -3 0 47.23 1.3
1 3 1 536.84 5.55
-1 -3 -1 530.52 5.54
-1 -3 -1 502.3 5.26
1 3 1 552.59 5.54
-1 -3 -1 550.93 4.32
1 3 2 482.49 8.01
-1 -3 -2 516.61 8.51
-1 -3 -2 496.92 8.35
1 3 3 352.56 6.08
-1 -3 -3 388.29 6.63
-1 -3 -3 372.41 6.64
1 3 3 378.02 6.66
1 3 4 80.72 2.05
-1 -3 -4 67.19 1.85
-1 -3 -4 61.67 2.06
1 3 5 198.72 4.06
-1 -3 -5 250.9 9.99
-1 -3 -5 201.27 4.31
1 3 6 1248.89 26.16
-1 -3 -6 1208.59 25.38
-1 -3 -6 1193.1 26.03
-1 -3 -6 1214.12 25.87
1 3 7 227.21 7.91
-1 -3 -7 224.76 7.85
-1 -3 -7 222.94 9.51
-1 -3 -7 220.89 8.17
1 3 8 109.72 5.54
-1 -3 -8 95.62 5.34
-1 -3 -8 86.59 3.97
1 3 9 79.5 2.71
-1 -3 -9 71.19 2.43
-1 -3 -9 97.24 8.83
-1 -3 -9 80.21 3.61
-1 -3 -10 132.82 13.88
-1 -3 -10 76.86 5.7
-1 -3 -11 35.02 5.14
-1 -3 -11 30.21 2.25
-1 -3 -12 102.16 11.14
-1 -3 -12 85.89 4.46
-1 -3 -13 39.43 8.59
-1 -3 -13 41.25 5.42
-1 -3 -14 340.46 37.91
-1 -3 -14 286.5 31.51
-1 -3 -15 1.11 1.28
-1 -3 -15 2.93 1.57
-1 -4 14 78.72 47.74
1 4 -14 114.89 69.89
-1 -4 13 75.45 8.98
1 4 -13 58.63 8.6
1 4 -12 103.75 4.77
-1 -4 12 114.05 5.74
1 4 -12 122.41 12.76
1 4 -11 2.51 1.91
-1 -4 11 2.59 1.85
1 4 -11 2.37 1.09
1 4 -10 139.56 4.56
-1 -4 10 163.26 5.65
1 4 -10 144.67 9.28
1 4 -9 1.84 1.13
1 4 -9 1.45 1.08
1 4 -8 81.63 5.99
-1 -4 8 77.04 7.78
1 4 -8 79.49 9.86
1 4 -7 117.6 4.83
-1 -4 7 120.16 5.21
1 4 -7 127.64 11.6
1 4 -6 10.59 1.5
-1 -4 6 9.89 1.42
1 4 -6 11.24 1.5
1 4 -5 21.75 2.09
-1 -4 5 26.69 2.51
1 4 -5 23.72 3.13
1 4 -4 291.18 7.49
-1 -4 4 291.9 7.44
1 4 -4 309.25 7.64
1 4 -3 254.1 5.88
-1 -4 3 274.36 6.05
1 4 -3 253.89 5.39
-1 -4 3 232.05 4.91
1 4 -2 206.44 4.94
-1 -4 2 192.25 4.54
1 4 -2 221.21 4.72
-1 -4 2 198.7 4.24
1 4 -1 1393.87 24.28
-1 -4 1 1296.17 22.43
1 4 -1 1460.65 24.63
-1 -4 1 1389.75 23.4
1 4 0 2.44 0.64
-1 -4 0 2.15 0.57
-1 -4 0 2.66 0.49
-1 -4 -1 593.04 11.04
-1 -4 -1 634.1 10.97
1 4 2 1.54 0.43
-1 -4 -2 1.53 0.5
-1 -4 -2 2.31 0.33
1 4 3 85.27 2.53
-1 -4 -3 81.01 2.51
-1 -4 -3 95.43 2.91
1 4 4 7.71 0.89
-1 -4 -4 7.26 0.77
-1 -4 -4 8.23 1.03
1 4 5 817.67 17.81
-1 -4 -5 699.8 15.41
-1 -4 -5 826.42 18.45
1 4 6 113.4 8.5
-1 -4 -6 105.3 7.92
-1 -4 -6 129.94 10.99
-1 -4 -6 112.13 8.44
1 4 7 54.69 4.37
-1 -4 -7 48.83 3.96
-1 -4 -7 62.5 9.88
-1 -4 -7 63.15 5.16
1 4 8 209.06 7.15
-1 -4 -8 170.29 5.91
-1 -4 -8 199.35 7.61
-1 -4 -8 198.48 7.26
1 4 9 163.17 6.02
-1 -4 -9 194.51 14.53
-1 -4 -9 164.7 6.67
1 4 10 87.88 3.5
-1 -4 -10 99.74 7.19
-1 -4 -10 94.26 4.51
-1 -4 -11 8.83 2.19
-1 -4 -11 2.45 1.09
-1 -4 -12 67.52 11.53
-1 -4 -12 29.38 4.45
-1 -4 -13 223.9 20.26
-1 -4 -13 177.29 11.43
-1 -4 -14 1.48 0.97
-1 -4 -14 4.74 1.95
-1 -4 -15 45.14 9.44
-1 -4 -15 53.15 4.35
-1 -5 14 1.65 1.47
1 5 -14 0.94 0.88
-1 -5 13 8.65 3.06
1 5 -13 11.41 3.56
1 5 -12 1.01 1.47
-1 -5 12 7.51 2.48
1 5 -12 6.45 2.57
1 5 -11 59.5 8.16
-1 -5 11 67.76 9.48
1 5 -11 72.32 10.79
1 5 -10 319.51 12.94
-1 -5 10 454.45 18.57
1 5 -10 342.11 14.44
1 5 -9 1.29 1.05
-1 -5 9 6.91 1.94
1 5 -9 3.29 1.45
1 5 -8 97.86 4.75
-1 -5 8 88.36 4.59
1 5 -8 99.52 11.47
1 5 -7 10.95 1.49
-1 -5 7 8.57 1.35
1 5 -7 5.5 1.2
1 5 -6 87.85 4.04
-1 -5 6 96.83 4.45
1 5 -6 78.3 9.15
1 5 -5 2.1 1.35
-1 -5 5 1.28 1.01
1 5 -5 7.97 1.5
1 5 -4 28.61 2.79
-1 -5 4 31.15 2.96
1 5 -4 40.38 5.19
1 5 -3 293.66 10.93
-1 -5 3 293.83 10.78
1 5 -3 286.92 10.44
1 5 -2 4.87 1.2
-1 -5 2 3.55 0.79
1 5 -2 4.3 0.79
1 5 -1 1.19 0.77
-1 -5 1 1.9 0.6
1 5 -1 1.25 0.43
-1 -5 1 0.95 0.5
1 5 0 1971.09 41.93
-1 -5 0 1895.02 40.25
-1 -5 0 1908.59 39.8
1 5 1 165.38 8.74
-1 -5 -1 147.03 7.26
-1 -5 -1 158.34 7.89
1 5 2 341.51 8.45
-1 -5 -2 389.21 9.49
-1 -5 -2 355.57 8.03
1 5 3 3.48 0.88
-1 -5 -3 1.92 0.78
1 5 4 9.61 1.13
-1 -5 -4 11.17 1.6
-1 -5 -5 33.01 3.12
1 5 6 86.15 3.77
-1 -5 -6 83.37 3.88
1 5 7 92.12 6.48
-1 -5 -7 130.03 11.58
-1 -5 -7 97.14 4.29
1 5 8 758.78 26.37
-1 -5 -8 717.86 25.91
-1 -5 -8 703.33 24.73
1 5 9 36.58 2.06
-1 -5 -9 33.27 5.98
-1 -5 -9 25.13 2.06
-1 -5 -10 192.44 15.32
-1 -5 -10 172.98 11.57
-1 -5 -11 269.56 12.58
-1 -5 -11 236.2 10.6
-1 -5 -12 247.8 15.81
-1 -5 -12 270.56 16.92
-1 -5 -13 37.01 19.84
-1 -5 -14 7.96 1.93
-1 -5 -14 4.37 1.97
-1 -6 13 20.44 3.18
1 6 -13 19.98 4.81
1 6 -12 5.75 2.33
-1 -6 12 1.76 1.71
1 6 -12 10.91 2.51
1 6 -11 3.29 1.91
-1 -6 11 6.27 2.88
1 6 -11 5.41 2
1 6 -10 53.04 6.65
-1 -6 10 75.11 4.59
1 6 -10 48.23 8.54
1 6 -9 77.27 4.35
-1 -6 9 75.1 10.51
1 6 -9 54.65 6.92
1 6 -8 28.18 3.7
-1 -6 8 30.15 4.28
1 6 -8 33.86 5.18
1 6 -7 203.3 6.1
-1 -6 7 194.49 6.33
1 6 -7 226.49 14.59
1 6 -6 87.97 4.48
-1 -6 6 76.03 6.79
1 6 -6 88.52 7.4
1 6 -5 429.23 16
-1 -6 5 381.25 14.23
1 6 -5 402.4 14.91
1 6 -4 3.67 1.07
-1 -6 4 4.51 1.1
1 6 -4 6.86 1.19
1 6 -3 43.68 3.25
-1 -6 3 37.3 2.8
1 6 -3 33.52 5.51
1 6 -2 67.8 3.57
-1 -6 2 49.96 3.38
1 6 -2 72.53 4.58
1 6 -1 58.75 5.06
-1 -6 1 57.16 5.03
1 6 0 75.52 4.78
-1 -6 0 83.92 4.09
1 6 1 138.16 6.12
-1 -6 -1 132.94 5.92
-1 -6 -1 127.31 5.65
1 6 2 358.74 12.54
-1 -6 -2 368.09 12.8
-1 -6 -2 321.66 11.22
1 6 3 137.87 5.45
-1 -6 -3 141.44 5.8
-1 -6 -3 104.96 3.94
1 6 4 342.3 13.6
-1 -6 -4 309.22 12.44
1 6 5 1.34 1.03
-1 -6 -5 1.06 0.79
1 6 6 282.58 10.63
-1 -6 -6 247.9 9.84
1 6 7 764.2 27.26
-1 -6 -7 831.33 30.11
-1 -6 -7 732.02 26.07
1 6 8 33.12 2.18
-1 -6 -8 32.96 4.35
-1 -6 -8 20.5 2.85
1 6 9 56.35 3.01
-1 -6 -9 59.09 8.08
-1 -6 -9 53.95 3.24
-1 -6 -10 4.36 1.42
-1 -6 -10 2.05 1.53
-1 -6 -11 95.17 10.24
-1 -6 -11 68.35 5.08
-1 -6 -12 33.09 7.13
-1 -6 -13 30.14 7.21
1 7 -11 25.04 4.34
-1 -7 11 29.29 4.73
1 7 -11 26.1 6.23
1 7 -10 3.57 1.6
-1 -7 10 6.22 3.08
1 7 -10 8.24 2.21
1 7 -9 28.65 3.99
-1 -7 9 25.54 4.1
1 7 -9 14.06 3.81
1 7 -8 3.43 1.45
-1 -7 8 4.16 1.89
1 7 -8 1.6 1.15
1 7 -7 10.33 1.96
-1 -7 7 9.82 2.29
1 7 -7 6.75 2.07
1 7 -6 518.5 33.5
-1 -7 6 483.51 31.18
1 7 -6 509.76 37.44
1 7 -5 14.56 2.3
-1 -7 5 16.04 2.52
1 7 -5 13.43 2.4
1 7 -4 6.37 1.4
-1 -7 4 6.91 1.49
1 7 -4 6.4 1.33
1 7 -3 35.83 3.64
-1 -7 3 23.56 2.55
1 7 -3 29.75 2.87
1 7 -2 21.11 2.33
-1 -7 2 13.06 1.63
1 7 -1 4.31 1.03
-1 -7 1 2.73 0.91
1 7 0 0.89 0.99
-1 -7 0 4.22 1
1 7 1 272.56 10.58
-1 -7 -1 275.16 10.7
1 7 2 910.88 32.1
-1 -7 -2 863.34 30.55
1 7 3 128.04 6.03
-1 -7 -3 118.16 5.56
1 7 4 472.83 18.12
-1 -7 -4 368 14.19
1 7 5 363 9.02
-1 -7 -5 373.55 9.57
1 7 6 177.23 11.81
-1 -7 -6 192.45 13.05
1 7 7 4.14 1.05
-1 -7 -7 6.32 1.47
1 7 8 60.71 8.26
-1 -7 -8 77.69 13.48
-1 -7 -8 39.44 5.57
1 7 9 48.89 6
-1 -7 -9 52.59 8.21
-1 -7 -9 45.3 5.68
-1 -7 -10 7.52 3.15
-1 -7 -10 11.83 1.73
-1 -7 -11 51.83 9.62
-1 -7 -12 2.33 1.29
1 8 -10 6.91 3.16
-1 -8 10 2 1.76
1 8 -10 3.9 1.51
1 8 -9 2.75 1.45
-1 -8 9 1.21 1.41
1 8 -9 -0.05 1
1 8 -8 25.56 2.88
-1 -8 8 22.33 2.84
1 8 -8 19.01 3.46
1 8 -7 2.75 1.94
-1 -8 7 2.87 1.86
1 8 -7 1.59 1.33
1 8 -6 1.25 1.34
-1 -8 6 4.7 2.31
1 8 -6 1.44 0.61
1 8 -5 1.87 1.31
-1 -8 5 2.32 1.4
1 8 -5 1 0.78
1 8 -4 381.58 16.89
-1 -8 4 361.82 15.94
1 8 -3 36.97 5.1
-1 -8 3 55.53 3.64
1 8 -2 140.84 9.91
-1 -8 2 180.72 12.39
1 8 -1 38.61 4.82
-1 -8 1 36.99 4.53
1 8 0 388.28 25.28
-1 -8 0 385.11 25
1 8 1 227.72 15.35
-1 -8 -1 209.79 14.1
1 8 2 86.07 11.24
-1 -8 -2 18.95 3.29
1 8 3 18.68 2.78
-1 -8 -3 18.27 3.04
1 8 4 2.68 1.44
-1 -8 -4 1.5 1.16
1 8 5 75.15 10.25
-1 -8 -5 62.04 11.34
1 8 6 34.92 4.5
-1 -8 -6 47.61 6.15
1 8 7 179.59 11.54
-1 -8 -7 184.28 12.11
1 8 8 132.62 14.86
-1 -8 -8 147.46 19.94
-1 -8 -9 48.84 9
-1 -8 -10 93.77 57.33
1 9 -7 5.65 2.59
-1 -9 7 10.58 2.35
1 9 -7 3.78 1.82
1 9 -6 6.3 2.76
-1 -9 6 4.99 1.98
1 9 -5 67.48 8.57
-1 -9 5 71.26 8.66
1 9 -4 348.79 38.54
-1 -9 4 403.53 100.33
1 9 -3 87.26 7.2
-1 -9 3 86.47 6.4
1 9 -2 31.46 4.72
-1 -9 2 26.69 3.68
1 9 -1 220.47 11.52
-1 -9 1 134.64 6.71
-1 -9 0 136.73 6.54
1 9 1 75.09 5.03
-1 -9 -1 49.94 6.36
1 9 2 154.92 10.4
-1 -9 -2 165.88 11
1 9 3 68.67 6.19
-1 -9 -3 85.73 6.33
1 9 4 10.93 2.51
-1 -9 -4 20.46 2.43
1 9 5 117.86 13.38
-1 -9 -5 106.1 12.18
1 9 6 7.7 2.38
-1 -9 -6 7.96 2.28
1 9 7 332.19 200.84
-1 -9 -7 372.9 225.46
1 9 8 4.61 2.19
-1 -9 -8 2.55 1.35
1 10 -4 28.44 3.77
-1 -10 4 24.83 3.08
1 10 -3 11.08 2.81
-1 -10 3 24.05 2.89
1 10 -2 20.55 3.6
-1 -10 2 21.12 3.34
1 10 -1 52.53 31.92
-1 -10 1 52.21 31.73
1 10 0 4.9 2.33
-1 -10 0 8.55 1.95
1 10 1 85.58 51.88
-1 -10 -1 87.81 53.21
1 10 2 197.59 119.53
-1 -10 -2 268.53 162.4
1 10 3 2.15 1.53
-1 -10 -3 1.81 1.3
1 10 4 80.48 6.08
-1 -10 -4 68.06 5.42
-2 9 5 20.48 2.56
2 -9 -5 21.73 2.61
-2 9 4 135.47 82
2 -9 -4 132.19 80.39
-2 9 3 25.4 4.04
2 -9 -3 30.82 4.58
-2 9 2 90.05 8.77
2 -9 -2 72.21 7.09
-2 9 1 15.52 3.32
2 -9 -1 12.35 2.57
-2 9 0 99.83 9.46
2 -9 0 97.41 9.15
-2 9 -1 94.24 9.02
2 -9 1 78.99 7.63
-2 9 -2 5.36 2.27
2 -9 2 2.79 1.53
-2 9 -3 37.11 6.21
2 -9 3 37.36 6.14
-2 9 -4 97.43 59.09
2 -9 4 126.86 76.85
-2 9 -5 31.12 5.12
2 -9 5 36.23 22.09
-2 9 -6 24.05 3.7
2 -9 6 26.69 3.07
-2 8 8 6.78 2.05
2 -8 -8 8.84 2.46
-2 8 7 27.86 4.73
2 -8 -7 30.88 5.99
-2 8 6 68.66 6.81
2 -8 -6 60.71 6.01
-2 8 5 57.12 7.04
2 -8 -5 55.97 6.72
-2 8 4 5.97 1.96
2 -8 -4 5.65 1.89
-2 8 3 0.7 1.05
2 -8 -3 2.95 1.57
-2 8 2 46.56 6.21
2 -8 -2 64.39 3.99
-2 8 1 8.5 2.78
2 -8 -1 1.04 1.02
-2 8 0 547.76 23.63
2 -8 0 483.61 20.77
-2 8 -1 3.7 1.93
2 -8 1 7.48 1.98
-2 8 -2 372.46 14.99
2 -8 2 376.7 14.61
-2 8 -3 72.65 4.59
2 -8 3 72.82 4.4
-2 8 -4 23.51 3.62
2 -8 4 27.92 3.93
-2 8 -5 5.14 1.98
2 -8 5 4.48 1.49
-2 8 -6 12.21 2.12
2 -8 6 10.55 1.6
-2 8 -7 237.25 21.03
2 -8 7 248.67 21.97
-2 8 -8 34.91 21.3
2 -8 8 45.22 27.49
-2 8 -9 13 3.2
2 -8 9 17.36 2.21
2 -7 -10 137.21 83.54
-2 7 9 1.16 0.74
2 -7 -9 0.66 0.84
-2 7 8 19.06 4.37
2 -7 -8 30.89 3.95
-2 7 7 13.36 2.19
2 -7 -7 9.12 3.67
-2 7 6 230.66 10.71
2 -7 -6 186.15 8.93
-2 7 5 167.26 8.2
2 -7 -5 141.6 7.11
-2 7 4 3.34 1.18
2 -7 -4 3.53 1.35
-2 7 3 486.75 31.43
2 -7 -3 439.68 28.35
-2 7 2 254.66 16.91
2 -7 -2 241.66 15.98
-2 7 1 8.21 1.48
2 -7 -1 12.61 1.88
-2 7 0 75.41 4.76
2 -7 0 60.99 3.57
-2 7 -1 744.52 16.96
2 -7 1 691.86 15.43
-2 7 -2 129.37 18.07
2 -7 2 207.57 7.24
-2 7 -3 138.15 9.86
2 -7 3 127.78 14.67
-2 7 -4 57.03 6.96
2 -7 4 47.76 5.58
2 -7 5 17.35 2.64
-2 7 -6 3.44 1.79
2 -7 6 4.33 1.55
2 -7 7 79.56 4.42
-2 7 -7 84.23 4.58
-2 7 -8 12.36 2.3
2 -7 8 10.32 3.22
-2 7 -8 14.93 3.04
-2 7 -9 255.49 28.31
2 -7 9 250.36 27.77
-2 7 -9 219.22 30.09
-2 7 -10 1.25 1.75
2 -7 10 1.24 1.63
-2 7 -10 0.93 1.34
2 -7 11 76.64 6.33
-2 7 -11 47.9 9.86
2 -6 -11 27.41 5.73
2 -6 -11 43.25 26.3
2 -6 -10 19.7 2.88
2 -6 -10 14.29 1.97
-2 6 9 1.03 0.59
2 -6 -9 2.15 0.98
-2 6 8 125.82 14.5
2 -6 -8 145.96 9.39
-2 6 7 6.74 1.86
2 -6 -7 7.68 2.15
-2 6 6 370.11 23.93
2 -6 -6 383.57 24.79
-2 6 5 2.71 1.39
2 -6 -5 1.9 1.01
-2 6 4 808.47 29.23
2 -6 -4 858.2 30.79
-2 6 3 12.05 1.8
2 -6 -3 14.07 1.64
-2 6 2 254.27 10.05
2 -6 -2 257.4 9.91
-2 6 1 1.32 0.94
2 -6 -1 2.39 1.15
-2 6 0 224.99 9.56
2 -6 0 198.11 8.21
-2 6 -1 549.54 21.26
2 -6 1 639.39 24.41
-2 6 -2 457.49 17.09
2 -6 2 507.99 18.54
-2 6 -3 185.96 7.91
2 -6 3 169.27 7.03
-2 6 -4 245.98 10.07
2 -6 4 232.09 9.31
2 -6 5 4.22 1.1
-2 6 -6 4.4 1.21
2 -6 6 3.68 1.48
-2 6 -6 5.64 1.43
-2 6 -7 198.54 13.39
2 -6 7 218.7 14.66
-2 6 -7 210.36 15.31
-2 6 -8 116.15 5.97
2 -6 8 115.3 5.98
-2 6 -8 111.85 13.17
-2 6 -9 39.99 5.17
2 -6 9 34.93 4.68
-2 6 -9 49.33 8.21
-2 6 -10 12.5 2.18
2 -6 10 13.15 2.37
-2 6 -10 11.78 3.25
2 -6 11 4.49 2.33
-2 6 -11 3.85 1.52
-2 6 -12 19.53 3.53
2 -6 12 28.68 4.41
-2 6 -12 21.56 4.1
2 -5 -13 1.13 1.29
2 -5 -13 7.38 2.35
2 -5 -12 43.76 7.52
2 -5 -12 33.61 5.75
2 -5 -11 87.06 14.61
2 -5 -11 105.76 12.19
-2 5 10 70.04 5.27
2 -5 -10 76.71 11.75
2 -5 -10 87.07 4.75
-2 5 9 314.86 12.79
2 -5 -9 316.53 13.78
-2 5 8 156.47 12.2
2 -5 -8 134.15 11.39
-2 5 7 177.48 11.22
2 -5 -7 192.24 10.04
-2 5 6 17.86 1.9
2 -5 -6 18.18 2.79
-2 5 5 762.58 28.67
2 -5 -5 796.5 29.81
-2 5 4 402.67 15.68
2 -5 -4 426.25 16.4
-2 5 3 126.4 5.23
2 -5 -3 134.91 5.32
-2 5 2 55.92 4.82
2 -5 -2 48.91 4.15
-2 5 1 22.53 2.36
2 -5 -1 22.49 2.2
-2 5 0 2.37 1.35
2 -5 0 2.48 0.62
-2 5 -1 1.91 0.89
2 -5 1 3.36 0.9
-2 5 -2 38.47 3.61
2 -5 2 36.2 3.22
-2 5 -3 1168.35 38.01
2 -5 3 1129.99 36.44
-2 5 -4 106.99 4.82
2 -5 4 86.81 3.82
2 -5 5 491.15 18.9
-2 5 -5 520.72 20.05
-2 5 -6 138.72 6.12
2 -5 6 138.3 6
-2 5 -6 135.9 6.01
-2 5 -7 324.19 12.58
2 -5 7 340.79 13.19
-2 5 -7 310.06 12.18
-2 5 -8 3.95 0.99
2 -5 8 5.2 1.24
-2 5 -8 4.81 1.32
-2 5 -9 24.2 3.31
2 -5 9 37.5 4.64
-2 5 -9 33.29 4.76
-2 5 -10 4.76 1.78
2 -5 10 1.84 1.43
-2 5 -10 1.41 0.85
2 -5 11 55.89 7.23
-2 5 -11 45.34 9.17
-2 5 -12 0.45 1.05
2 -5 12 1.87 1.39
-2 5 -12 1.35 1.35
2 -5 13 2.83 1.51
-2 5 -13 1.63 0.89
2 -4 -13 1.21 1.13
2 -4 -13 4.12 2.38
2 -4 -12 130.39 12.12
2 -4 -12 145.27 9.88
2 -4 -11 12.01 3.16
2 -4 -11 10.2 2.64
-2 4 10 807.72 30.36
2 -4 -10 862.4 176.44
2 -4 -10 868.02 174.89
-2 4 9 6.97 1.56
2 -4 -9 9.88 1.95
-2 4 8 123 6.77
2 -4 -8 109.19 7.21
-2 4 7 23.38 4.08
2 -4 -7 22.65 3.53
-2 4 6 88.48 4.63
2 -4 -6 101.4 4.67
-2 4 5 193.71 9.2
2 -4 -5 206.08 8.38
-2 4 4 128.86 10.11
2 -4 -4 131.02 5.26
-2 4 3 650.08 22.55
2 -4 -3 707.75 24.32
-2 4 2 964.39 21.35
2 -4 -2 1012.91 21.97
-2 4 1 181.57 8.83
2 -4 -1 182.78 8.68
-2 4 0 36.71 2.5
2 -4 0 32.73 2.04
-2 4 -1 749.81 17
2 -4 1 754.9 16.62
-2 4 -2 550.41 12.95
2 -4 2 529.9 12.09
-2 4 -3 3.2 1.09
2 -4 3 1.78 0.76
-2 4 -4 12.24 1.47
2 -4 4 8.33 1.16
-2 4 -4 6.79 1.57
-2 4 -5 40.44 3.69
2 -4 5 35.96 3.2
-2 4 -5 37.93 4
-2 4 -6 22.44 1.95
2 -4 6 19.48 2
-2 4 -6 24.68 3.11
-2 4 -7 10.64 1.54
2 -4 7 9 1.5
-2 4 -7 12.32 2.11
-2 4 -8 202.72 8
2 -4 8 202.87 8.28
-2 4 -8 225.97 16.15
-2 4 -9 89.48 4.3
2 -4 9 105.26 5.16
-2 4 -9 94.54 7.47
-2 4 -10 -0.83 1.22
2 -4 10 1.69 1.11
-2 4 -10 2.93 1.37
2 -4 11 38.27 5.57
-2 4 -11 28.98 5.24
-2 4 -12 3.69 1.26
2 -4 12 1.43 1.16
-2 4 -12 4.84 1.52
2 -4 13 29.11 3.13
-2 4 -13 15.14 3.39
2 -4 14 5.4 2
-2 4 -14 1.65 1.22
-2 3 14 22.9 3.68
2 -3 -14 19.66 3.6
2 -3 -13 49.69 10.61
2 -3 -13 66.31 8.04
2 -3 -12 7.21 2.79
2 -3 -12 11.22 2.06
2 -3 -11 169.67 6.93
2 -3 -11 201.86 11.53
2 -3 -11 201.01 9.1
-2 3 10 34.08 3.04
2 -3 -10 33.22 5.84
-2 3 9 17.44 2.56
2 -3 -9 54.06 9.02
-2 3 8 273.06 11.47
2 -3 -8 277.77 16.61
-2 3 7 12.42 1.83
2 -3 -7 12.52 1.7
-2 3 6 1.68 0.67
2 -3 -6 0.68 0.63
-2 3 5 60.03 5.44
2 -3 -5 45.84 4.93
-2 3 4 253.37 18.71
2 -3 -4 258.55 6.37
-2 3 3 1114.97 24.04
2 -3 -3 1068.83 22.86
-2 3 2 79.77 2.56
2 -3 -2 77.24 2.28
-2 3 2 68.28 2.01
-2 3 1 812.52 14.74
2 -3 -1 786.77 13.86
-2 3 1 765.87 13.43
-2 3 0 960.13 17.25
-2 3 0 944.95 16.39
-2 3 -1 558.51 10.71
2 -3 1 593.23 10.86
-2 3 -1 590.54 10.74
-2 3 -2 18.06 1.19
2 -3 2 14.54 0.9
-2 3 -2 16.94 0.95
-2 3 -3 45.87 1.92
2 -3 3 45.56 1.76
-2 3 -3 47.41 4
-2 3 -4 79.96 4.22
2 -3 4 85.48 4.48
-2 3 -4 92.26 9.08
-2 3 -5 836.84 18.52
2 -3 5 761.86 17.01
-2 3 -5 879.51 20.18
-2 3 -6 2.81 0.84
2 -3 6 1.39 0.9
-2 3 -6 3.02 0.82
-2 3 -7 21.06 2.1
2 -3 7 23.6 2.34
-2 3 -7 18.9 2.8
-2 3 -8 512.53 17.03
2 -3 8 539.04 18.35
-2 3 -8 500.84 17.13
-2 3 -9 6.78 0.94
2 -3 9 14.16 2.09
-2 3 -9 3.83 1.37
-2 3 -10 98.86 4.38
2 -3 10 109.21 5.35
-2 3 -10 98.18 9.23
-2 3 -11 152.74 10.09
2 -3 11 177.01 12.1
-2 3 -11 160.23 16.81
2 -3 12 49.87 7.13
-2 3 -12 42.42 7.09
2 -3 13 128.73 8.86
-2 3 -13 88.86 12.09
2 -3 14 21.69 3.79
-2 3 -14 16.21 4.3
2 -3 15 0.46 1.28
-2 3 -15 0.47 0.79
-2 2 15 1.47 1.37
2 -2 -15 4.01 2.64
2 -2 -14 9.43 2.81
-2 2 13 21.84 3.09
-2 2 12 59.75 8.24
2 -2 -12 71.5 9.94
2 -2 -11 46.59 8.22
2 -2 -11 47.61 5.68
2 -2 -10 1.19 0.63
2 -2 -10 1.48 0.99
2 -2 -10 4.44 1.51
-2 2 9 665.58 24.7
2 -2 -9 679.11 25.91
2 -2 -9 706.25 26.84
-2 2 8 1290.63 41.41
2 -2 -8 1206.07 38.45
2 -2 -8 1207.27 39
2 -2 -8 1349.34 43.7
-2 2 7 149.56 7.97
2 -2 -7 145.01 5.86
2 -2 -7 231.66 11.59
-2 2 6 23.87 3.67
2 -2 -6 21.56 1.49
2 -2 -6 28.56 2.85
-2 2 5 1049.39 23.08
2 -2 -5 941.83 20.31
-2 2 5 909.05 19.58
-2 2 4 122.22 7.65
2 -2 -4 113.78 3.01
2 -2 -4 100.37 3.99
-2 2 4 116.41 2.87
-2 2 3 66.45 4.88
2 -2 -3 65.97 2.02
2 -2 -3 62.05 2.06
-2 2 3 56.51 1.57
-2 2 2 2.66 0.55
2 -2 -2 2.06 0.83
2 -2 -2 0.57 0.34
-2 2 2 1.97 0.4
-2 2 1 189.24 3.98
2 -2 -1 186.77 3.84
2 -2 -1 179.83 3.36
-2 2 1 174.94 3.22
-2 2 0 394.83 4.8
-2 2 0 380.02 3.71
-2 2 -1 59.73 1.9
2 -2 1 53.58 1.7
2 -2 1 52.99 1.46
-2 2 -1 54.56 1.49
2 -2 1 53.9 3.38
-2 2 -2 889.76 13.91
2 -2 2 890.4 13.51
-2 2 -2 893.67 13.58
2 -2 2 898.51 13.92
-2 2 -3 336.73 6.16
2 -2 3 328.85 5.83
2 -2 3 326.6 5.81
-2 2 -3 339.38 5.95
-2 2 -3 323.02 6.02
2 -2 3 340.3 6.12
-2 2 -4 22.93 1.23
2 -2 4 29.18 1.36
-2 2 -4 29.35 1.31
-2 2 -4 37.56 3.83
-2 2 -5 103.01 2.81
2 -2 5 94.15 2.51
2 -2 5 98.51 3.05
-2 2 -5 94.75 4.55
-2 2 -6 194.05 9.12
2 -2 6 185.19 8.64
2 -2 6 197.49 9.46
-2 2 -6 210.55 13.37
-2 2 -7 4.81 0.77
2 -2 7 5.52 0.71
2 -2 7 4.6 0.88
-2 2 -7 6.8 1.34
-2 2 -8 1.7 0.6
2 -2 8 1.34 0.64
2 -2 8 2 1.11
-2 2 -8 2.68 1.09
-2 2 -9 41.6 2.6
2 -2 9 44.71 2.8
2 -2 9 43.11 3.16
-2 2 -9 36.12 6.33
-2 2 -10 6.7 0.77
2 -2 10 5.56 1.2
-2 2 -10 5.99 1.52
-2 2 -11 37.53 2.59
2 -2 11 43.52 3.02
-2 2 -11 38.27 4.76
2 -2 12 50.39 6.01
-2 2 -12 48.54 10.05
2 -2 13 392.98 17.3
-2 2 -13 352.15 15.73
2 -2 14 3.41 1.46
-2 2 -14 0.54 1.34
2 -2 15 2.76 1.47
-2 2 -15 4.38 1.56
-2 1 15 27.67 4.32
2 -1 -15 32.7 5.27
-2 1 14 191.27 21.36
2 -1 -14 195.06 21.96
-2 1 13 4.84 1.54
2 -1 -13 8.49 2.28
-2 1 12 5.22 1.4
2 -1 -12 1.84 1.28
-2 1 11 12.47 1.79
2 -1 -11 9.8 1.84
2 -1 -10 31.11 2.41
-2 1 10 32.48 2.88
2 -1 -10 31.93 2.95
2 -1 -9 165.19 6.6
2 -1 -9 174.2 7.18
-2 1 9 180.38 7.52
2 -1 -9 192.18 8.28
2 -1 -8 151.42 6.05
2 -1 -8 179.46 7.04
2 -1 -8 178.9 7.8
2 -1 -8 183.21 7.8
2 -1 -7 11.22 1.19
2 -1 -7 17.12 2.8
2 -1 -7 10.61 1.35
-2 1 6 355.83 12.04
2 -1 -6 360.38 8.61
2 -1 -6 309.12 7.69
2 -1 -6 310.49 7.82
-2 1 5 1154.75 19.94
2 -1 -5 1175.38 20.42
2 -1 -5 1237.13 21.29
-2 1 5 1194.28 20.81
-2 1 4 443.61 7.84
2 -1 -4 423.96 7.87
2 -1 -4 471.82 7.83
-2 1 4 414.98 6.8
-2 1 3 41.58 1.78
2 -1 -3 39.6 4.48
2 -1 -3 45.41 2.51
-2 1 3 36.17 1.08
-2 1 2 61.93 2.26
2 -1 -2 73.11 4.59
2 -1 -2 55.6 2.34
-2 1 2 58.69 1.08
-2 1 0 18.9 2.4
-2 1 -1 9.53 1.99
2 -1 1 8.85 0.67
2 -1 1 9.46 0.47
-2 1 -1 10.19 0.48
2 -1 1 9.18 0.7
-2 1 -2 2514.14 16.91
2 -1 2 2502.84 15.94
-2 1 -2 2564.82 16.49
2 -1 2 2543.46 17.38
-2 1 -3 8.03 1.05
2 -1 3 8.09 0.59
2 -1 3 10.22 0.77
-2 1 -3 8.28 0.64
-2 1 -3 10.71 1.02
2 -1 3 10.67 1.33
-2 1 -4 66.5 1.78
2 -1 4 64.97 1.67
2 -1 4 61.75 2.45
2 -1 4 58.11 1.84
-2 1 -4 76.95 6.13
-2 1 -5 473.88 8.57
2 -1 5 486.81 8.75
2 -1 5 453.6 10.25
2 -1 5 475.32 9.85
-2 1 -5 489.52 9.27
-2 1 -6 364.86 6.8
2 -1 6 365.27 6.71
2 -1 6 386.56 7.9
-2 1 -6 336.51 8.12
-2 1 -7 2322.07 167.75
2 -1 7 2201.14 45.56
2 -1 7 2174.02 46.01
-2 1 -7 2285.18 165.35
-2 1 -8 304.19 10.67
2 -1 8 322.22 11.09
2 -1 8 284.83 10.61
-2 1 -8 280.97 10.62
-2 1 -9 0.62 0.22
2 -1 9 0.67 0.38
2 -1 9 1.56 0.81
-2 1 -9 3.24 1.01
-2 1 -10 35.7 4.58
2 -1 10 39.12 3.78
2 -1 10 37.09 4.02
-2 1 -10 40.24 5.58
-2 1 -11 3.98 0.78
2 -1 11 8.87 1.48
-2 1 -11 9.63 1.7
2 -1 12 12.84 2.33
2 -1 13 151.97 7.69
-2 1 -13 153.77 18.21
2 -1 14 34.03 4.71
-2 1 -14 17.48 4.09
2 -1 15 138.66 12.64
-2 1 -15 104.8 17.9
2 -1 16 15.09 3.32
-2 1 -16 4.14 2.61
-2 0 15 139.79 84.62
2 0 -15 111.75 67.69
-2 0 14 141.74 15.99
2 0 -14 153.5 17.43
-2 0 13 98.57 5.06
2 0 -13 113.43 5.92
-2 0 12 2.55 1.39
2 0 -12 3.49 1.78
2 0 -11 396.53 8.56
-2 0 11 373.88 9.33
2 0 -11 450.78 11.51
2 0 -10 27.31 2.16
-2 0 10 41.75 3.58
2 0 -10 32.02 2.98
2 0 -9 74.62 3.17
2 0 -9 86.69 3.42
-2 0 9 104.69 4.55
2 0 -9 99.38 4.57
2 0 -8 31.58 4.61
2 0 -8 53.8 4.37
-2 0 8 49.74 4.23
2 0 -8 47.24 4.27
2 0 -7 208.3 10.25
2 0 -7 188.79 8.83
-2 0 7 205.69 9.76
2 0 -7 206.77 10.01
2 0 -6 639.29 14.07
2 0 -6 665.69 14.59
-2 0 6 621.87 14.97
-2 0 6 701.17 15.45
2 0 -6 708.99 15.96
2 0 -5 4.42 0.88
2 0 -5 6.25 0.71
-2 0 5 4.66 0.8
-2 0 5 6.53 0.65
2 0 -5 3.22 0.53
2 0 -4 292.63 5.5
2 0 -4 312.82 5.55
-2 0 4 295.76 5.17
-2 0 4 283.68 4.98
-2 0 3 516.42 5.15
2 0 -3 524.56 5.31
-2 0 3 499.98 4.74
-2 0 3 514.29 4.53
-2 0 2 370.24 5.79
2 0 -2 392.66 4.4
-2 0 1 13.45 2.15
2 0 -1 10.14 1.3
-2 0 1 10.94 0.53
-2 0 1 10.93 0.28
-2 0 0 932.52 7.5
2 0 0 920.78 7.35
-2 0 -1 7.49 1.28
2 0 1 7.28 1.01
2 0 1 8.04 0.68
2 0 1 7.76 0.36
-2 0 -2 1106.3 8.31
2 0 2 1107.59 8.23
-2 0 -2 1112.05 7.97
2 0 2 1080.05 7.61
-2 0 -2 1176.31 8.59
2 0 2 1150.18 8.24
-2 0 -3 225.57 3.02
2 0 3 232.55 2.67
-2 0 -3 236.1 3.11
2 0 3 234.77 2.84
-2 0 -3 249.19 3.35
2 0 3 251.52 3.04
-2 0 -4 3.78 0.84
2 0 4 4.67 0.44
-2 0 -4 4.6 0.87
2 0 4 3.36 0.75
-2 0 -4 4.25 0.78
2 0 4 3.47 0.53
-2 0 -5 105.58 2.66
2 0 5 108.8 2.16
2 0 5 103.76 6.26
-2 0 -5 102.76 2.81
2 0 5 114.44 2.69
-2 0 -6 272.94 5.07
2 0 6 272 4.92
-2 0 -6 271.2 5.74
2 0 6 273.43 5.72
-2 0 -7 323.84 7.09
2 0 7 327.44 7.05
2 0 7 328.17 8.17
-2 0 -7 331.08 8.04
2 0 8 48.16 3.56
2 0 8 46.52 3.9
2 0 9 152.51 6.65
2 0 10 8.08 1.34
-2 0 -10 8.31 1.94
2 0 11 63.65 5.76
-2 0 -11 63.76 10.08
2 0 12 138.14 5.3
-2 0 -12 119.55 9.66
2 0 13 20.24 2.98
-2 0 -13 15.04 3.46
2 0 14 289.61 11.91
-2 0 -14 273.51 11.79
2 0 15 64.11 6.38
-2 0 -15 52.29 6.86
2 0 16 67.98 5.75
-2 0 -16 58.62 14.4
-2 -1 15 9.87 2.56
2 1 -15 7.53 2.33
-2 -1 14 1.57 1.2
2 1 -14 -0.61 1.61
2 1 -13 15.89 2.87
2 1 -12 2.31 0.66
-2 -1 12 9.79 1.87
2 1 -12 8.91 2.09
-2 -1 11 51.55 3.18
2 1 -11 58.47 3.65
2 1 -10 185.44 7
-2 -1 10 209.05 8.37
2 1 -10 213.53 8.75
2 1 -9 95.67 3.8
-2 -1 9 94.18 4.17
2 1 -9 95.83 4.47
2 1 -8 7 1.33
2 1 -8 11.44 1.39
-2 -1 8 11.13 1.38
2 1 -8 9.77 1.53
2 1 -7 248.06 8.91
2 1 -7 263.48 9.43
-2 -1 7 266.81 9.78
2 1 -7 257.27 9.67
2 1 -6 2.45 0.64
2 1 -6 2.34 0.68
-2 -1 6 2.62 0.53
2 1 -6 4.68 0.87
2 1 -5 274.09 5.68
2 1 -5 240.57 5.06
-2 -1 5 243.02 8.9
-2 -1 5 270.02 5.62
2 1 -5 266.44 5.81
2 1 -4 167.5 3.53
2 1 -4 178.27 3.74
-2 -1 4 196.95 3.86
2 1 -4 189.2 3.69
2 1 -4 183.21 3.94
2 1 -3 25.19 1.06
-2 -1 3 28.64 1.18
-2 -1 3 27.37 1
2 1 -3 28.2 0.97
2 1 -2 1516.73 11.25
-2 -1 2 1592.22 11.57
-2 -1 2 1502.5 9.99
2 1 -2 1547.61 10.24
2 1 -1 991.88 8.15
-2 -1 1 987.64 7.9
-2 -1 1 1014.78 6.79
2 1 0 73.16 1.69
-2 -1 0 78.83 1.66
-2 -1 0 70.29 1.06
2 1 0 80.57 1.18
2 1 1 4262.92 26.28
2 1 1 4342.6 26.9
-2 -1 -1 4443.1 26.31
2 1 1 4156.69 24.67
2 1 2 465.07 4.44
2 1 2 456.75 4.4
-2 -1 -2 437.06 4.01
2 1 2 438.93 3.91
-2 -1 -2 456.08 3.56
2 1 2 446.69 3.57
2 1 3 319.57 3.33
2 1 3 309.55 3.33
-2 -1 -3 316.27 3.51
2 1 3 296.46 3.43
-2 -1 -3 326.73 3.08
2 1 3 331.28 3.12
2 1 4 562.38 4.75
2 1 4 550.69 8.43
-2 -1 -4 512.94 8.55
2 1 4 554.5 5.6
-2 -1 -4 522.6 8.26
2 1 4 566.16 4.95
2 1 5 75.62 1.62
2 1 5 78.55 1.65
-2 -1 -5 101.2 4.39
2 1 5 68.48 4.46
-2 -1 -5 79.23 1.98
2 1 5 83.48 2.14
2 1 6 311.42 5.42
2 1 6 320.19 5.59
-2 -1 -6 333.43 8.81
-2 -1 -6 334.67 6.63
2 1 6 331.05 6.54
2 1 7 401.15 8.33
2 1 7 383.84 7.97
-2 -1 -7 350.02 8.66
-2 -1 -8 117.22 10.82
-2 -1 -8 144.19 5.98
-2 -1 -9 1869.58 96.99
-2 -1 -9 2358.81 122.16
-2 -1 -10 69.73 8.06
-2 -1 -10 61.6 6.36
2 1 11 185.6 7.85
-2 -1 -11 256.62 10.7
2 1 12 188.96 6.08
-2 -1 -12 197.2 6.46
2 1 13 300.99 12.7
-2 -1 -13 301.14 12.65
2 1 14 13.58 2.34
-2 -1 -14 15.59 3.29
2 1 15 1.24 1.24
-2 -1 -15 3.73 1.5
2 1 16 18.62 2.55
-2 -1 -16 18.99 4.85
-2 -2 15 69.6 5.8
2 2 -15 70.81 6.1
-2 -2 14 6 2.48
2 2 -14 4.03 1.77
-2 -2 13 52.51 6.74
2 2 -13 63.54 3.9
2 2 -12 85.12 4
-2 -2 12 88.18 4.84
2 2 -12 107.42 5.68
2 2 -11 18.23 2.33
-2 -2 11 17.99 2.44
2 2 -11 14.98 2.24
2 2 -10 73.12 6.24
-2 -2 10 68.05 6.03
2 2 -10 82.25 4.24
2 2 -9 72.01 7.07
-2 -2 9 68.4 6.91
2 2 -9 75.88 7.66
2 2 -8 216.7 8.57
-2 -2 8 217.37 8.87
2 2 -8 216.83 8.97
2 2 -7 3.57 0.66
-2 -2 7 2.36 0.58
2 2 -7 4.72 0.89
2 2 -6 517.41 11.85
2 2 -6 545.5 12.74
2 2 -5 1.05 0.54
-2 -2 5 3.39 0.75
-2 -2 5 2.57 0.81
2 2 -5 2.18 0.74
2 2 -4 1028.16 16.07
-2 -2 4 1059.5 16.32
-2 -2 4 1074.22 16.48
2 2 -4 1079.97 16.5
2 2 -4 1083.08 16.89
-2 -2 4 1050.3 16.3
2 2 -3 7.93 0.72
-2 -2 3 9.58 0.83
-2 -2 3 13.93 1
2 2 -3 8.26 0.63
2 2 -3 11.37 0.9
-2 -2 3 10.33 0.74
2 2 -2 2.17 0.38
-2 -2 2 2.43 0.62
-2 -2 2 2.89 0.41
2 2 -2 2.27 0.35
-2 -2 2 2.51 0.41
2 2 -1 222.95 3.28
-2 -2 1 229.96 3.27
2 2 -1 231.42 2.82
2 2 -1 232.7 2.63
2 2 0 527.27 5.37
-2 -2 0 526.21 5.3
-2 -2 0 529.26 4.75
2 2 0 559.63 4.89
2 2 1 1444.21 10.74
-2 -2 -1 1497.8 10.99
-2 -2 -1 1470.91 10.38
2 2 1 1495.18 10.49
2 2 2 44.3 1.29
-2 -2 -2 41.71 1.27
-2 -2 -2 48.5 1.77
2 2 2 43.22 1.21
2 2 3 1124.25 8.64
-2 -2 -3 1074.5 8.22
-2 -2 -3 1072.86 8.57
2 2 3 1069.96 8.56
-2 -2 -3 1079.8 7.03
2 2 3 1085.88 7.11
2 2 4 483.73 7.67
-2 -2 -4 522.2 8.26
-2 -2 -4 498.83 8.7
-2 -2 -4 562.2 8.64
2 2 4 489.02 7.54
2 2 5 170.59 3.44
-2 -2 -5 164.92 3.37
-2 -2 -5 149.49 4.42
-2 -2 -5 163.08 3.43
2 2 5 158.3 3.38
2 2 6 136.23 3
2 2 6 150.67 2.99
-2 -2 -6 155.18 7.7
-2 -2 -6 145.32 3.34
2 2 6 137.64 3.21
2 2 7 72.28 3.39
2 2 7 79.67 3.68
-2 -2 -7 79.02 6.93
-2 -2 -7 75.51 3.86
2 2 7 70.47 3.69
-2 -2 -8 1483.92 50.94
-2 -2 -8 1082.2 36.7
-2 -2 -9 2.14 1.16
-2 -2 -9 1.54 0.73
-2 -2 -10 211.32 14.14
-2 -2 -10 180.33 7.52
-2 -2 -11 1.42 1.12
-2 -2 -11 1.69 1.29
-2 -2 -12 480.74 31.93
-2 -2 -12 438.25 28.18
-2 -2 -13 49.56 9.27
-2 -2 -13 39.48 5.68
2 2 14 5.38 1.92
-2 -2 -14 12.24 3.33
2 2 15 49.44 5.34
-2 -2 -15 67.4 11.54
2 2 16 16.79 2.48
-2 -2 -16 19.79 3.17
-2 -3 14 10.97 2.58
2 3 -14 7.74 2.07
-2 -3 13 1.34 1.39
2 3 -12 19.62 4.26
-2 -3 12 24.11 3.77
2 3 -12 14.99 3.65
2 3 -11 25.15 3.36
-2 -3 11 25.18 3.33
2 3 -11 26.13 3.64
2 3 -10 8.03 1.61
-2 -3 10 3.64 1
2 3 -10 7.76 1.68
2 3 -9 6.35 1.04
-2 -3 9 6.51 1.32
2 3 -9 6.8 1.21
2 3 -8 380.79 12.96
2 3 -8 343.37 12.11
2 3 -7 27.57 2.57
2 3 -7 16.99 2.05
2 3 -6 25.31 2.34
-2 -3 6 23.97 2.25
2 3 -6 20.05 1.94
-2 -3 5 2796.64 202.2
2 3 -5 2297.99 166.18
2 3 -4 67.71 2.36
-2 -3 4 79.65 2.47
2 3 -4 74.79 2.34
-2 -3 4 67.22 2.13
2 3 -3 78.92 2.58
-2 -3 3 101.38 2.81
2 3 -3 89.41 2.53
2 3 -3 86.32 2.37
-2 -3 3 94.85 2.51
2 3 -2 190.88 4.21
-2 -3 2 179.32 3.73
2 3 -2 208.88 4.22
2 3 -2 185.18 3.56
-2 -3 2 196 3.72
2 3 -1 124.85 3.14
-2 -3 1 123.95 3.14
-2 -3 1 102.73 2.5
2 3 -1 121.33 2.81
2 3 -1 101.81 2.14
-2 -3 1 114.59 2.33
-2 -3 0 0.16 0.12
-2 -3 -1 924.51 14.43
-2 -3 -1 972.76 14.93
2 3 1 929.31 14.32
-2 -3 -1 1003.61 14.25
2 3 2 504.5 8.49
-2 -3 -2 485.21 8.18
-2 -3 -2 490 8.3
2 3 2 474.17 7.91
2 3 3 2751.34 39.84
-2 -3 -3 3082.2 51.11
-2 -3 -3 2782.73 46.31
-2 -3 -3 2746.43 38.72
2 3 4 333.4 6.44
-2 -3 -4 331.56 6.54
-2 -3 -4 322.87 6.66
-2 -3 -4 341.47 6.08
2 3 5 730.82 12.84
-2 -3 -5 817.13 16.17
-2 -3 -5 711.7 12.37
2 3 6 1426.51 29.85
-2 -3 -6 1399.69 29.34
-2 -3 -6 1340.11 28.96
-2 -3 -6 1378.24 28.99
2 3 7 1038.34 34.77
-2 -3 -7 1002.65 33.6
-2 -3 -7 988.03 34.18
-2 -3 -7 1036.21 35.03
2 3 8 62.99 4.86
-2 -3 -8 72.13 6.08
-2 -3 -8 68.7 5.55
2 3 9 46.72 4.45
2 3 9 55.51 5.22
-2 -3 -9 58.21 7.57
-2 -3 -9 47.76 4.85
-2 -3 -10 215.33 16.37
-2 -3 -10 116.17 4.98
-2 -3 -11 111.89 6.89
-2 -3 -11 92.89 4.59
-2 -3 -12 121.44 8.66
-2 -3 -12 150.1 6.86
-2 -3 -13 3.1 1.23
-2 -3 -13 2.35 1.33
-2 -3 -14 365.76 40.35
-2 -3 -14 270.59 29.76
-2 -3 -15 36.53 22.67
-2 -3 -15 31.16 4.69
-2 -4 14 8.06 2.1
2 4 -14 22.7 4.47
-2 -4 13 8.52 2.22
2 4 -13 11.42 2.63
2 4 -12 77.34 4.13
-2 -4 12 92.41 5.26
2 4 -12 83.1 12.19
2 4 -11 58.2 8.01
-2 -4 11 81.06 11.2
2 4 -11 98.2 18.93
2 4 -10 351.81 22.74
-2 -4 10 382.49 24.9
2 4 -10 718.32 46.68
2 4 -9 4.29 1.56
2 4 -9 3.09 1.21
2 4 -8 5.47 1.12
-2 -4 8 9.04 1.51
2 4 -8 12.82 2.23
2 4 -7 1.01 0.66
-2 -4 7 4.37 1.25
2 4 -7 2.36 1.43
2 4 -6 10.07 1.36
-2 -4 6 12.19 1.52
2 4 -6 17.76 2.3
2 4 -5 429.01 15.33
-2 -4 5 473.64 16.76
2 4 -5 465.59 16.48
2 4 -4 109.86 5.69
-2 -4 4 115.19 5.87
2 4 -4 104.12 5.55
2 4 -3 379.14 9.36
-2 -4 3 422.46 9.92
2 4 -3 379.97 8.79
-2 -4 3 401.3 9.22
2 4 -2 229.26 5.47
-2 -4 2 253.38 5.69
2 4 -2 229.86 4.72
-2 -4 2 233.49 4.81
2 4 -1 518.47 10.22
-2 -4 1 488.68 9.44
2 4 -1 469.25 8.43
-2 -4 1 510.05 9.09
2 4 0 32.52 1.66
-2 -4 0 30.99 1.5
2 4 0 31.33 1.3
-2 -4 0 37.01 1.09
-2 -4 -1 -0.04 0.13
2 4 2 1456.64 25.24
-2 -4 -2 1450.12 25.07
-2 -4 -2 1387.85 22.77
2 4 3 25.24 1.69
-2 -4 -3 29.21 1.97
-2 -4 -3 15.56 0.99
2 4 4 510.92 11.7
-2 -4 -4 500.69 11.43
-2 -4 -4 533.34 12.34
-2 -4 -4 502.46 10.72
2 4 5 9.89 0.97
-2 -4 -5 6.63 0.67
-2 -4 -5 10.11 1.12
-2 -4 -5 11 0.83
2 4 6 412.29 14.33
-2 -4 -6 381.12 13.3
-2 -4 -6 501.26 17.99
-2 -4 -6 401.59 13.85
2 4 7 95.3 3.97
-2 -4 -7 95.86 4.09
-2 -4 -7 113.98 9.15
-2 -4 -7 110.15 4.62
2 4 8 143.49 5.7
-2 -4 -8 114.4 4.71
-2 -4 -8 130.88 8.05
-2 -4 -8 123.4 5.21
2 4 9 220.73 7.89
-2 -4 -9 224.44 9.25
-2 -4 -9 216.36 8.24
-2 -4 -10 97.92 8.49
-2 -4 -10 90.26 4.54
-2 -4 -11 179.01 12.51
-2 -4 -11 162.31 10.9
-2 -4 -12 9.62 3.39
-2 -4 -12 2.33 0.84
-2 -4 -13 268.12 22.69
-2 -4 -13 252.2 15.81
-2 -4 -14 209.17 21.05
-2 -4 -15 18.77 5.2
-2 -4 -15 19.72 2.39
-2 -5 13 2.44 2.17
2 5 -13 1.58 1.01
2 5 -12 4.01 1.96
-2 -5 12 10.2 2.3
2 5 -12 2.17 1.42
2 5 -11 172.67 7.49
-2 -5 11 215.82 9.71
2 5 -11 196.97 8.68
2 5 -10 74.15 10.12
2 5 -10 76.79 12.21
2 5 -9 29.59 3.77
2 5 -9 34.52 6.86
2 5 -8 33.49 3.36
-2 -5 8 25.83 2.94
2 5 -8 33.03 5.22
2 5 -7 30.38 2.79
-2 -5 7 37.69 3.32
2 5 -7 34.1 4.71
2 5 -6 4.7 1.26
-2 -5 6 4.08 1
2 5 -6 4.36 1.11
2 5 -5 29.78 2.66
-2 -5 5 27.09 2.46
2 5 -5 23.78 2.95
2 5 -4 653.78 24.57
-2 -5 4 630.51 23.5
2 5 -4 623.68 23.01
2 5 -3 2104.73 157.63
-2 -5 3 2024.23 68.12
2 5 -3 1963.06 65.85
2 5 -2 429.74 15.53
-2 -5 2 483.61 17.02
2 5 -2 437.37 15.13
-2 -5 2 430.28 14.87
2 5 -1 383.17 13.89
-2 -5 1 392.47 14.1
2 5 -1 388.6 13.42
-2 -5 1 346.34 11.96
2 5 0 344.15 8.77
-2 -5 0 317.21 7.96
-2 -5 0 317.89 7.14
2 5 1 1100.08 24.18
-2 -5 -1 1014.15 22.28
-2 -5 -1 1120.68 23.43
2 5 2 105.76 8.13
-2 -5 -2 99.08 7.66
-2 -5 -2 47.92 4.54
2 5 3 55.36 4.48
-2 -5 -3 69.74 5.65
2 5 4 368.77 13.15
-2 -5 -4 375.94 13.61
2 5 5 118.78 5.64
-2 -5 -5 117.91 5.37
-2 -5 -5 109.15 4.32
2 5 6 503.75 16.67
-2 -5 -6 486.05 16.6
-2 -5 -6 463.96 15.1
2 5 7 2.24 0.53
-2 -5 -7 2.94 0.62
2 5 8 1198.63 41.15
-2 -5 -8 1273.97 101.08
-2 -5 -8 1142.08 39.28
2 5 9 43.78 2.34
-2 -5 -9 40.86 5.41
-2 -5 -9 38.09 2.45
-2 -5 -10 151.85 13.12
-2 -5 -10 127.64 14.56
-2 -5 -11 5.36 1.94
-2 -5 -12 83.21 9.13
-2 -5 -12 63.46 4.63
-2 -5 -13 6.39 2.7
-2 -5 -13 4.01 1.72
-2 -5 -14 1.96 1.92
2 6 -12 1.51 1.89
-2 -6 12 4.05 1.82
2 6 -12 8.85 2.47
2 6 -11 12.02 2.01
-2 -6 11 10.64 2.13
2 6 -11 14.42 2.42
2 6 -10 -0.24 1
2 6 -10 3.24 1.29
2 6 -9 376.09 16.41
-2 -6 9 360.83 16.08
2 6 -9 341.54 15.05
2 6 -8 97.57 10.88
-2 -6 8 105.69 11.98
2 6 -8 100.38 15.94
2 6 -7 278.02 7.84
-2 -6 7 279.35 7.89
2 6 -7 268.69 7.1
2 6 -6 4.04 1.28
-2 -6 6 3.28 1.42
2 6 -6 3.35 0.89
2 6 -5 428.02 16.05
-2 -6 5 414.8 15.34
2 6 -5 438.24 15.87
2 6 -4 276.64 11.41
-2 -6 4 323.23 13
2 6 -4 299.63 11.69
2 6 -3 3.99 1.5
-2 -6 3 6.05 1.21
2 6 -3 7.14 1.27
2 6 -2 192.47 7.5
-2 -6 2 217.26 8.22
2 6 -2 198.92 7.04
2 6 -1 10.07 1.51
-2 -6 1 12.31 1.69
-2 -6 1 11.42 1.06
2 6 0 265.62 9.76
-2 -6 0 259.28 9.34
-2 -6 0 238.38 8.01
2 6 1 107.16 4.71
-2 -6 -1 116.97 4.96
-2 -6 -1 95.22 4.5
2 6 2 289.66 10.35
-2 -6 -2 268.11 9.73
-2 -6 -2 251.99 8.41
2 6 3 749.69 24.76
-2 -6 -3 868.92 28.61
-2 -6 -3 724.59 23.22
2 6 4 21.24 2.47
-2 -6 -4 25.31 2.93
-2 -6 -4 16.58 2.46
2 6 5 185.95 7.76
-2 -6 -5 203.58 8.62
2 6 6 1.25 0.58
-2 -6 -6 1.04 0.88
-2 -6 -6 0.57 0.3
2 6 7 1283.27 126.65
-2 -6 -7 696.1 25.71
-2 -6 -7 662.49 23.46
2 6 8 234.29 6
-2 -6 -8 252.77 19.58
2 6 9 75.8 3.55
-2 -6 -9 96.19 9.26
-2 -6 -9 81.88 3.99
-2 -6 -10 111.25 14.75
-2 -6 -10 83.6 11.16
-2 -6 -11 -0.52 0.85
-2 -6 -11 3.01 1.25
-2 -6 -12 21.64 4.04
-2 -6 -13 2.7 1.36
2 7 -11 1.82 1.27
2 7 -11 1.95 1.17
2 7 -10 143.96 12.97
-2 -7 10 143.13 13.18
2 7 -10 108.1 13.41
2 7 -9 224.56 14.4
-2 -7 9 245.84 15.84
2 7 -9 211.59 13.65
2 7 -8 21.51 3.27
-2 -7 8 11.1 3.2
2 7 -8 17.22 3.62
2 7 -7 69.22 9.64
-2 -7 7 78.05 10.72
2 7 -7 57.76 9.51
-2 -7 6 157.41 10.87
2 7 -6 137.61 12.55
2 7 -5 303.12 20.03
-2 -7 5 316.82 20.81
2 7 -5 288.2 18.92
2 7 -4 131.39 4.91
-2 -7 4 129.6 17.95
2 7 -4 149.96 6.39
2 7 -3 132.27 6.18
-2 -7 3 146.04 6.55
2 7 -3 129.77 5.83
2 7 -2 253.57 10.31
-2 -7 2 385.58 15.11
2 7 -1 84.94 6.44
-2 -7 1 71.99 5.61
2 7 0 547.69 20.07
-2 -7 0 505.99 18.45
2 7 1 59.5 5.86
-2 -7 -1 66.36 5.28
2 7 2 913.99 32.27
-2 -7 -2 935.33 32.99
2 7 3 74.91 6.65
-2 -7 -3 86.79 4.52
2 7 4 474.79 17.79
-2 -7 -4 545.25 20.36
2 7 5 1.83 1.1
-2 -7 -5 3.92 1.53
2 7 6 21.42 2.96
-2 -7 -6 14.21 2.55
2 7 7 9.06 1.52
-2 -7 -7 6.14 1.56
-2 -7 -7 8.76 1.38
2 7 8 0.58 0.67
-2 -7 -8 3.38 1.86
2 7 9 33.26 4.21
-2 -7 -9 45.76 7.87
-2 -7 -10 62.82 10.65
-2 -7 -11 34.93 6.86
-2 -7 -12 14.44 3.9
2 8 -9 11.96 2.59
-2 -8 9 10.83 2.72
2 8 -9 16.65 3.9
2 8 -8 60.33 6.19
-2 -8 8 65.27 6.71
2 8 -8 50.84 10.68
2 8 -7 55.53 6.94
-2 -8 7 54.08 7.02
2 8 -7 37.31 5.43
-2 -8 6 46.81 6.1
2 8 -6 49.3 9.45
2 8 -5 87.02 11.97
-2 -8 5 89.56 12.19
2 8 -5 91.05 14.4
2 8 -4 165.47 8.39
-2 -8 4 203.85 9.95
2 8 -4 171.23 8.95
2 8 -3 343.95 14.55
-2 -8 3 375.18 15.59
2 8 -2 1.91 1.63
-2 -8 2 2.26 1.83
2 8 -1 40.49 4.94
-2 -8 1 50.7 6.1
2 8 0 12.09 2.37
-2 -8 0 11.54 2.67
2 8 1 305.07 20.05
-2 -8 -1 320.05 21.04
2 8 2 60.25 7.08
-2 -8 -2 66.83 7.85
2 8 3 179.52 7.99
-2 -8 -3 163.46 7.8
2 8 4 137.98 6.48
-2 -8 -4 152.72 7.47
2 8 5 17.04 3.97
-2 -8 -5 11.12 2.7
2 8 6 0.97 0.96
-2 -8 -6 1.89 1.11
2 8 7 0.81 0.95
-2 -8 -7 2.88 1.41
2 8 8 82.56 9.46
-2 -8 -8 84.77 12.63
-2 -8 -9 187.29 19.89
-2 -8 -10 2.87 1.34
2 9 -7 0.15 1.54
-2 -9 7 6.33 2.23
2 9 -7 0.2 0.67
-2 -9 6 47.09 5.52
2 9 -6 37.37 8.7
2 9 -5 25.26 4.8
-2 -9 5 9.01 3.14
2 9 -4 338.73 37.46
-2 -9 4 406.75 101.21
2 9 -3 3.72 2.2
-2 -9 3 7.38 3.12
2 9 -2 375.73 96.43
-2 -9 2 334.85 20.97
2 9 -1 2.4 1.82
-2 -9 1 7.49 3.15
2 9 0 2.63 1.51
-2 -9 0 8.94 3.21
2 9 1 10.01 2.5
-2 -9 -1 11.57 2.77
2 9 2 8.22 2.42
-2 -9 -2 12.87 2.75
2 9 3 125.09 8.66
-2 -9 -3 73.18 5.64
2 9 4 181.9 14.88
-2 -9 -4 64.76 5.12
2 9 5 15.22 2.51
-2 -9 -5 9.74 1.71
2 9 6 28.05 4.66
-2 -9 -6 30.17 4.97
2 9 7 120.7 73.05
-2 -9 -7 144.36 87.37
2 9 8 20.42 2.38
-2 -9 -8 18.44 4.1
2 10 -4 4.64 2.12
-2 -10 4 3.25 1.96
2 10 -3 51.44 4.68
-2 -10 3 43.42 4.19
2 10 -2 133.92 81.07
-2 -10 2 122.87 74.4
2 10 -1 9.12 1.97
-2 -10 1 6.66 1.89
2 10 0 3.54 1.75
-2 -10 0 8.68 2.52
2 10 1 4.63 2.13
-2 -10 -1 4.3 1.86
2 10 2 148.74 90.46
-2 -10 -2 44.84 27.27
2 10 3 57.71 35.08
-2 -10 -3 41.37 25.17
2 10 4 7.16 2.13
-2 -10 -4 10.94 2.7
2 10 5 46.66 4.15
-2 -10 -5 50.69 4.39
-3 9 3 79.3 6.26
3 -9 -3 80.85 6.02
-3 9 2 3.24 1.41
3 -9 -2 2.52 1.31
-3 9 1 2.67 1.29
3 -9 -1 2.37 1.41
-3 9 0 3.87 1.47
3 -9 0 1.66 1.32
-3 9 -1 0.09 0.9
3 -9 1 5.64 2.09
-3 9 -2 36.9 3.75
3 -9 2 38.37 3.69
-3 9 -3 19.33 2.95
3 -9 3 29.05 3.18
-3 8 7 52.21 8.82
3 -8 -7 54.56 10.29
3 -8 -6 1.41 0.96
-3 8 5 17.04 3.15
3 -8 -5 30.36 4.99
-3 8 4 136.94 12.5
3 -8 -4 123.44 11.18
-3 8 3 74.24 8.84
3 -8 -3 79.56 9.23
-3 8 2 34.85 3.61
3 -8 -2 35.59 3.41
-3 8 1 95.02 6.94
3 -8 -1 87.24 6.2
-3 8 0 1.46 1.03
3 -8 0 5.15 1.74
-3 8 -1 4.98 1.57
3 -8 1 8.68 2.46
-3 8 -2 43.38 5.92
3 -8 2 43.14 5.59
-3 8 -3 92.82 11.05
3 -8 3 120.59 13.7
-3 8 -4 36.63 3.98
3 -8 4 46.76 11.93
3 -8 5 -0.13 0.98
-3 8 -6 5.11 2.09
3 -8 6 8.01 2.24
-3 8 -7 30.29 5
3 -8 7 33.95 20.68
-3 8 -8 1.8 1.73
3 -8 8 2.57 1.15
-3 7 9 89.01 9.03
3 -7 -9 79.04 11.96
-3 7 8 4.29 1.8
3 -7 -8 6.91 2.79
-3 7 7 3.16 1.44
3 -7 -7 1.4 1.23
-3 7 6 31.12 5.08
3 -7 -6 29.44 7.2
-3 7 5 12.49 2.36
3 -7 -5 19.64 2.96
-3 7 4 2.75 1.07
3 -7 -4 2.43 1.03
-3 7 3 58.69 8.26
3 -7 -3 40.81 5.81
-3 7 2 370.14 16.44
3 -7 -2 353.05 15.33
-3 7 1 45.7 5.97
3 -7 -1 41.6 5.15
-3 7 0 190.6 8.81
3 -7 0 193.68 8.39
-3 7 -1 110.71 5.87
3 -7 1 92.33 4.72
-3 7 -2 139.97 7.18
3 -7 2 132.67 6.41
-3 7 -3 32.4 5.02
3 -7 3 36.76 5.41
-3 7 -4 33.25 5.07
3 -7 4 28.61 4.35
3 -7 5 6.3 2.09
-3 7 -6 37.31 5.34
3 -7 6 22.85 3.27
-3 7 -7 1.84 1.84
3 -7 7 1.13 0.92
-3 7 -8 2.11 1.31
3 -7 8 1.18 1.07
-3 7 -9 95.72 58.02
3 -7 9 81.13 49.17
-3 7 -10 0.45 0.92
3 -7 10 2.27 1.96
-3 7 -10 2.39 1.27
3 -6 -11 8.61 3.5
3 -6 -11 15.13 4.14
3 -6 -10 6.43 1.83
-3 6 9 25.84 5.95
3 -6 -9 26.44 4.14
-3 6 8 107.8 9.84
3 -6 -8 95.56 9.9
-3 6 7 67.78 9.41
3 -6 -7 69.5 11.12
-3 6 6 48.07 8.14
3 -6 -6 46.63 9.1
-3 6 5 59.12 8.29
3 -6 -5 51.43 5.94
-3 6 4 244.01 18.97
3 -6 -4 283.7 18.44
-3 6 3 240.24 7.1
3 -6 -3 240.14 6.54
-3 6 2 74.18 4.27
3 -6 -2 76.34 4
-3 6 1 6.89 1.33
3 -6 -1 14.43 1.69
-3 6 0 2.07 1.18
3 -6 0 1 0.68
-3 6 -1 2.52 1.32
3 -6 1 0.89 0.7
-3 6 -2 45.28 4.56
3 -6 2 51.31 4.81
-3 6 -3 204.27 6.68
3 -6 3 172.25 5.17
-3 6 -4 57.16 3.76
3 -6 4 46.61 3.04
-3 6 -5 6.02 1.88
3 -6 5 4.14 1.26
-3 6 -6 40.9 5.06
3 -6 6 27.69 3.47
-3 6 -7 25.05 3.98
3 -6 7 16.63 3.72
-3 6 -8 59.36 3.85
3 -6 8 56.09 7.05
-3 6 -8 47.34 6.02
-3 6 -9 2.68 1.68
3 -6 9 4.88 1.59
-3 6 -9 1.8 0.97
-3 6 -10 45.05 4.16
3 -6 10 46.25 11.86
-3 6 -10 44.01 5.9
-3 6 -11 2.59 1.91
3 -6 11 1.91 1.13
-3 6 -11 3.35 1.86
3 -5 -12 11.06 2.7
3 -5 -12 12.13 3.35
3 -5 -11 3.9 1.88
3 -5 -11 4.56 2.61
-3 5 10 10.67 2.69
3 -5 -10 13.07 2.93
-3 5 9 49.05 11.43
3 -5 -9 77.8 10.14
-3 5 8 228.26 19.83
3 -5 -8 246.53 13.7
-3 5 7 2.73 1.31
3 -5 -7 2.12 1.14
-3 5 6 133.28 9.63
3 -5 -6 149.43 9.61
-3 5 5 290.71 11.76
3 -5 -5 279.03 11.74
-3 5 4 26.41 4.51
3 -5 -4 19.28 1.96
-3 5 3 124.09 5.6
3 -5 -3 111.71 4.84
-3 5 2 5.03 1.25
3 -5 -2 8.78 1.31
-3 5 1 3.86 1.33
3 -5 -1 1.95 0.79
-3 5 0 180.9 7.89
3 -5 0 171.17 7.03
-3 5 -1 34.84 3.97
3 -5 1 48.39 5.17
-3 5 -2 1.95 1.31
3 -5 2 3.14 0.94
-3 5 -3 449.43 17.66
3 -5 3 465.83 18
-3 5 -4 3.44 1.38
3 -5 4 6.26 1.24
-3 5 -5 94.62 7.17
3 -5 5 85.72 6.32
-3 5 -6 522.91 19.63
3 -5 6 497.73 18.53
-3 5 -6 429.9 16.2
-3 5 -7 43.84 3.06
3 -5 7 32.63 2.43
-3 5 -7 48.22 6
-3 5 -8 146.63 10.11
3 -5 8 132.91 15.23
-3 5 -8 144.72 13.21
-3 5 -9 49.06 6.86
3 -5 9 51.48 7.16
-3 5 -9 58.35 10
-3 5 -10 7.29 2.14
3 -5 10 8.03 2.07
-3 5 -10 6.92 2.14
-3 5 -11 0.46 1.08
3 -5 11 8.12 1.76
-3 5 -11 6.17 2.97
3 -5 12 2.05 1.26
-3 5 -12 -0.3 1.21
3 -5 13 56.52 4.74
-3 5 -13 42.25 6.92
3 -4 -13 75.32 11.51
3 -4 -13 97.75 7.47
3 -4 -12 25.89 6.41
3 -4 -12 26.39 4.6
3 -4 -11 1.76 1.42
-3 4 10 140.22 12.2
3 -4 -10 215.14 18.33
3 -4 -10 166.7 8.32
3 -4 -9 106.2 8.52
-3 4 8 6.88 1.43
3 -4 -8 8.48 2.15
-3 4 7 8.23 1.65
3 -4 -7 9.88 1.53
-3 4 6 56.69 6.28
3 -4 -6 44.72 6.07
-3 4 5 9.74 2.08
3 -4 -5 14.68 2.29
-3 4 4 64.8 4.32
3 -4 -4 61.13 6.06
-3 4 3 145.3 9.36
3 -4 -3 169.29 9.74
-3 4 2 224.84 9.11
3 -4 -2 236.16 9.18
-3 4 1 6.37 1.24
3 -4 -1 9 1.15
-3 4 0 15.53 2.47
3 -4 0 15.08 1.51
-3 4 -1 158.34 6.52
3 -4 1 193.6 7.41
-3 4 -2 58.23 4.94
3 -4 2 66.28 5.36
-3 4 -3 48.51 4.33
3 -4 3 44.27 3.76
-3 4 -4 227.46 9.33
3 -4 4 232.72 9.29
-3 4 -5 2.23 0.8
3 -4 5 4.19 0.79
-3 4 -5 3.26 1.07
-3 4 -6 122.78 5.62
3 -4 6 125.27 5.57
-3 4 -6 116.02 11.54
-3 4 -7 138.75 5.95
3 -4 7 145.48 6.3
-3 4 -7 135.87 9.56
-3 4 -8 483.52 17.94
3 -4 8 506.96 18.85
-3 4 -8 477.44 18.41
-3 4 -9 2.01 1.23
3 -4 9 4.05 1.39
-3 4 -9 5.72 1.49
-3 4 -10 4.1 1.49
3 -4 10 3.13 0.87
-3 4 -10 1.04 1.02
-3 4 -11 -0.16 0.93
3 -4 11 1.83 1.1
-3 4 -11 0.08 1.33
3 -4 12 0.66 1.12
-3 4 -12 1.72 1.47
3 -4 13 48.36 5.2
-3 4 -13 34.89 6.38
3 -4 14 4.4 1.71
-3 4 -14 6.02 2.02
-3 3 13 7.25 1.83
3 -3 -13 8.45 2.42
3 -3 -12 17.46 4.07
3 -3 -11 62.26 3.3
3 -3 -11 68.09 8.94
3 -3 -11 77.61 4.5
-3 3 10 6.43 2.03
3 -3 -10 13.3 2.63
3 -3 -10 21.9 3.24
-3 3 9 115.6 8.15
3 -3 -9 114.37 5.84
3 -3 -9 111.49 5.81
-3 3 8 1.72 0.88
3 -3 -8 5.48 1.07
-3 3 7 6.99 2.1
3 -3 -7 7.72 1.97
-3 3 6 55.93 5.56
3 -3 -6 65.84 4.96
3 -3 -5 1.28 0.69
-3 3 4 1.3 0.53
3 -3 -4 1.02 0.26
-3 3 4 0.69 0.56
-3 3 3 1286.69 43.74
3 -3 -3 1169.88 39.37
-3 3 3 1645.44 55.4
-3 3 2 27.57 4.5
3 -3 -2 26.19 1.63
-3 3 2 21.65 1.41
-3 3 1 52.26 6.06
3 -3 -1 50.64 2.67
-3 3 1 49.21 2.6
-3 3 0 801.45 17.92
3 -3 0 798.18 17.19
-3 3 0 805.32 17.31
-3 3 -1 143.89 7.17
3 -3 1 139.52 6.64
-3 3 -1 125.13 5.96
-3 3 -2 1903.97 40.55
3 -3 2 1799.37 37.71
-3 3 -2 1827.61 38.53
-3 3 -3 347.27 8.77
3 -3 3 317.35 7.63
-3 3 -4 3.01 1.15
3 -3 4 0.89 0.45
-3 3 -5 45.87 3.93
3 -3 5 43.05 3.57
-3 3 -5 43.69 4.72
-3 3 -6 2.65 0.75
-3 3 -6 3.24 1.17
-3 3 -7 58.45 3.78
3 -3 7 53.95 3.53
-3 3 -7 63.73 6.2
-3 3 -8 610.24 23
3 -3 8 579.1 22.12
-3 3 -8 564.52 21.75
-3 3 -9 125.46 5.44
3 -3 9 118.57 5.52
-3 3 -9 121.82 11.24
-3 3 -10 272.23 6.8
3 -3 10 299.58 8.22
-3 3 -10 274.75 7.67
-3 3 -11 17.55 3.5
3 -3 11 23.56 3.32
-3 3 -11 28.29 5.74
3 -3 12 159.97 7.39
-3 3 -12 162.78 17.51
3 -3 13 29.06 3.39
-3 3 -13 23.3 3.91
3 -3 14 105.13 9.98
-3 3 -14 89.47 12.82
-3 2 14 4.53 1.73
3 -2 -14 3.67 2.08
-3 2 13 7.63 2.45
3 -2 -13 6.4 2.59
-3 2 12 52.91 6.61
3 -2 -12 61.96 4.1
3 -2 -11 85.64 11.42
3 -2 -11 117.09 6.48
3 -2 -10 1.18 1.14
3 -2 -10 0.87 0.8
3 -2 -10 4.11 1.87
-3 2 9 185.82 7.42
3 -2 -9 197.02 9.03
3 -2 -9 176.96 7.72
-3 2 8 47.85 7.64
3 -2 -8 58.51 6.2
-3 2 7 6.21 0.99
3 -2 -7 6.82 1.36
-3 2 6 0.18 0.77
3 -2 -6 9.24 1.33
-3 2 5 433.84 15.47
3 -2 -5 407.9 14.17
-3 2 5 381.46 13.26
-3 2 4 42.45 4.19
3 -2 -4 31.4 3.9
-3 2 4 29.67 1.71
-3 2 3 529.41 12.3
3 -2 -3 521.32 11.38
-3 2 3 477.14 10.39
-3 2 2 694.32 13.19
3 -2 -2 699.43 12.07
-3 2 2 684.63 11.78
-3 2 1 20.13 1.9
3 -2 -1 15.91 0.78
-3 2 1 17.52 0.76
-3 2 0 93.33 3.07
3 -2 0 76.62 1.88
-3 2 0 78.53 1.9
-3 2 -1 71.33 2.36
3 -2 1 68.73 1.79
-3 2 -1 67.03 1.77
-3 2 -2 633.84 12.2
3 -2 2 645.45 11.4
-3 2 -2 652 11.5
-3 2 -3 1.8 0.42
3 -2 3 0.77 0.56
3 -2 4 111.25 5.43
-3 2 -4 115.12 5.63
-3 2 -4 136.36 12.54
-3 2 -5 1.77 0.83
3 -2 5 0.75 0.5
-3 2 -5 1.91 0.68
-3 2 -6 148 5.74
3 -2 6 150.21 5.96
-3 2 -6 155.95 6.18
-3 2 -7 420.91 15.82
3 -2 7 388.48 14.85
-3 2 -7 407.76 16.72
-3 2 -8 0.57 0.5
3 -2 8 3.56 0.87
-3 2 -8 4.47 0.86
-3 2 -9 903.41 31.24
3 -2 9 1015.38 35.65
-3 2 -9 994.42 35.63
-3 2 -10 186.91 7.28
3 -2 10 193.9 8.22
-3 2 -10 181.47 7.68
3 -2 11 245.83 16.34
-3 2 -11 231.13 15.56
3 -2 12 15.38 3.74
3 -2 13 185.89 8.42
-3 2 -13 189.14 17.85
3 -2 14 32.68 3.78
-3 2 -14 28.04 4.71
3 -2 15 5.48 2.03
-3 2 -15 1.67 0.78
-3 1 14 2.55 1.13
3 -1 -14 5.69 2.58
-3 1 13 4.01 1.9
3 -1 -13 0.59 1.6
-3 1 12 21.07 3.18
3 -1 -12 18.18 3.29
3 -1 -11 5.87 1.23
-3 1 11 3.2 1.41
3 -1 -11 6.59 1.7
3 -1 -10 42.16 2.5
-3 1 10 41.38 2.61
3 -1 -10 45.05 3.22
3 -1 -9 234.09 8.88
-3 1 9 214.5 8.33
3 -1 -9 236 9.52
3 -1 -8 22.3 2.54
-3 1 8 24.67 2.67
3 -1 -8 20.28 2.55
-3 1 7 268.21 10.44
3 -1 -7 214.31 8.76
-3 1 6 457.18 16.17
3 -1 -6 481.05 16.88
-3 1 6 394.21 13.74
-3 1 5 7.31 1.7
3 -1 -5 9.09 1.19
-3 1 5 6.04 0.65
-3 1 4 1311.9 28.14
3 -1 -4 1325.49 27.82
-3 1 4 1219.07 25.53
-3 1 3 425.07 7.51
-3 1 2 226.14 5.06
3 -1 -2 245.19 4.01
-3 1 1 737.88 12.16
3 -1 -1 660.66 11.29
3 -1 -1 713.7 10.33
3 -1 0 1.75 0.57
3 -1 0 0.69 0.13
-3 1 0 0.7 0.19
-3 1 -1 743.7 12.13
3 -1 1 725.27 11.59
3 -1 1 752.39 11.08
-3 1 -2 1346.57 20.54
3 -1 2 1290.37 19.56
3 -1 2 1258.3 18.35
-3 1 -2 1281.25 18.77
3 -1 2 1154.14 17.59
-3 1 -3 489.99 8.44
3 -1 3 472.52 8
3 -1 3 480.8 8.17
3 -1 3 468.82 7.6
3 -1 3 483.2 8.23
-3 1 -4 3432.61 56.81
3 -1 4 3496.03 57.73
3 -1 4 3250.48 53.64
3 -1 4 3569.95 58.93
-3 1 -4 3286.18 54.55
-3 1 -5 76.03 5.14
3 -1 5 81.14 4.07
3 -1 5 62.03 7.57
3 -1 5 77.85 4.01
-3 1 -5 80.56 4.37
-3 1 -6 370.21 8.81
3 -1 6 341.99 7.88
3 -1 6 354.47 8.63
-3 1 -6 386.1 9.31
-3 1 -7 360.8 13.19
3 -1 7 393.11 13.7
3 -1 7 345.16 12.62
-3 1 -7 341.83 12.85
-3 1 -8 661.64 24.45
3 -1 8 623.33 22.72
3 -1 8 651.54 24.85
-3 1 -9 53.37 5.55
3 -1 9 52.71 5.12
3 -1 9 53.08 5.56
-3 1 -10 1.61 0.41
3 -1 10 3.27 0.96
-3 1 -10 4.22 1.34
-3 1 -11 180.42 4.68
3 -1 11 235.17 6.89
-3 1 -11 215.9 16.96
3 -1 12 7.3 1.56
-3 1 -12 5.14 1.81
3 -1 13 175.34 8.71
-3 1 -13 147.98 11.3
3 -1 14 4.02 1.56
-3 1 -14 2.97 1.5
3 -1 15 186.12 112.61
-3 1 -15 134.49 82.31
-3 0 14 40.12 4.23
3 0 -14 37.92 6.27
-3 0 13 38.66 5.02
3 0 -13 38.24 5.59
-3 0 12 0.77 0.94
3 0 -12 6.7 2.49
-3 0 11 58.45 6.7
3 0 -11 50.75 6.01
3 0 -10 21.93 3.3
-3 0 10 20.67 2.62
3 0 -10 23.13 2.09
3 0 -9 424.47 15.27
-3 0 9 399.49 14.82
3 0 -9 463.16 17.13
3 0 -8 18.83 1.64
-3 0 8 14.16 1.31
3 0 -8 15.12 1.63
3 0 -7 8.33 1.1
-3 0 7 9.43 1.18
3 0 -7 8.14 1.33
3 0 -6 30.38 2.62
-3 0 6 24.03 3.3
-3 0 6 30.81 2.59
3 0 -6 25.86 2.56
3 0 -5 315.36 7.72
-3 0 5 295.65 12.73
-3 0 5 307.95 7.19
-3 0 4 673.74 11.79
-3 0 4 711.99 12.64
-3 0 3 126.79 7.19
3 0 -3 118.42 3.33
-3 0 3 117.98 2.51
-3 0 3 124.19 2.86
-3 0 2 1104.75 17.15
-3 0 1 277.79 5.38
3 0 -1 300.2 5.63
-3 0 0 54.72 1.92
3 0 0 56.21 6.55
-3 0 -1 680.5 11.08
3 0 1 702.66 11.83
3 0 1 681.05 9.95
3 0 1 690.67 10.04
-3 0 -2 275.5 5.23
3 0 2 292.88 5.32
3 0 2 285.57 4.62
3 0 2 284.72 4.67
3 0 2 289.86 5.25
-3 0 -3 2272.9 33.43
3 0 3 2285.28 33.48
3 0 3 2234.4 32.35
3 0 3 2139.47 30.96
3 0 3 2226.07 32.34
-3 0 -4 156.89 4.33
3 0 4 144.69 3.27
3 0 4 148.43 8.3
3 0 4 147.99 3.43
-3 0 -4 150 3.5
3 0 4 158.22 3.59
-3 0 -5 930.67 16.23
3 0 5 1008.17 17.38
3 0 5 891.55 16.36
3 0 5 903.19 16.01
-3 0 -5 912.42 16.09
3 0 5 928.73 16.3
-3 0 -6 3.58 0.73
3 0 6 4.59 0.56
3 0 6 6.58 0.84
-3 0 -6 3.38 0.75
-3 0 -7 885.83 30.15
3 0 7 844.49 28.39
3 0 7 859.24 29.45
-3 0 -7 876.47 30.03
-3 0 -8 130.08 5.12
3 0 8 146.76 5.68
3 0 8 123 5.43
-3 0 -8 134.32 5.67
3 0 9 4.87 0.85
3 0 9 4.25 0.45
3 0 9 4.93 0.94
-3 0 -9 7.61 1.4
3 0 10 164.02 5.74
3 0 10 152.89 5.37
3 0 10 186.93 7.78
-3 0 -10 162.11 7.69
3 0 11 172.82 7.61
-3 0 -11 167.82 7.12
3 0 12 69.28 8.04
-3 0 -12 88.03 13.43
3 0 13 130.46 7.8
-3 0 -13 100.69 20.68
3 0 14 321.53 20.22
-3 0 -14 283.29 17.89
3 0 15 189.84 16.99
-3 0 -15 169.51 15.31
-3 -1 14 25.16 4.35
3 1 -14 27.18 4.7
-3 -1 13 62.86 4.77
3 1 -13 64.84 5.09
3 1 -12 22.14 3.32
-3 -1 12 21.78 3.49
3 1 -12 18.96 4.26
-3 -1 11 3.04 1.04
3 1 -11 2.86 1.33
3 1 -10 622.49 13.41
-3 -1 10 622.46 13.96
3 1 -10 654.47 15.12
3 1 -9 107.3 4.61
-3 -1 9 138.97 5.83
3 1 -9 105.71 4.97
3 1 -8 55.99 3.52
-3 -1 8 60.56 3.81
3 1 -8 62.37 6.45
3 1 -7 1.29 0.63
-3 -1 7 2.3 0.84
3 1 -7 1.69 0.97
3 1 -6 2.19 0.73
-3 -1 6 3.36 0.66
3 1 -6 1.46 0.88
3 1 -5 18.75 1.4
-3 -1 5 19.29 2.27
-3 -1 5 22.72 1.46
3 1 -5 22.89 1.72
3 1 -4 991.52 17.7
-3 -1 4 988.83 16.96
-3 -1 4 1104.4 18.87
3 1 -4 1058.23 18.75
3 1 -3 749.3 13.72
-3 -1 3 765.49 13.16
3 1 -3 685.71 11.82
3 1 -2 2410.65 35.47
3 1 -2 2741.61 40.26
-3 -1 2 2594.84 36.91
3 1 -2 2545.54 36.21
3 1 -1 249.93 5.26
3 1 -1 264.49 5.26
-3 -1 1 293.99 4.59
3 1 -1 246.59 3.9
3 1 0 1520.4 12.12
-3 -1 0 1560.26 9.8
3 1 0 1522.2 9.54
3 1 1 4109.08 26.92
-3 -1 -1 4133.83 24.78
3 1 1 3946.11 23.54
3 1 2 1538.72 22.92
3 1 2 1549.75 23.32
-3 -1 -2 1469.1 21.38
3 1 2 1548.7 22.44
3 1 2 1576.77 22.83
3 1 3 425.14 7.17
3 1 3 419.84 7.24
-3 -1 -3 425.88 7
3 1 3 414.62 6.76
3 1 3 420.09 6.95
3 1 4 44.71 1.83
3 1 4 45.34 1.59
-3 -1 -4 54.2 2.69
3 1 4 42.67 3.79
-3 -1 -4 41.34 1.56
3 1 4 54 4.88
3 1 5 808.46 14.1
3 1 5 748.97 13.19
-3 -1 -5 790.14 14.38
3 1 5 730.68 13.27
-3 -1 -5 725.03 12.74
3 1 5 778.88 13.64
3 1 6 197.06 9.06
3 1 6 182.47 8.43
-3 -1 -6 192.06 10.37
-3 -1 -6 174.1 8.2
3 1 6 178.68 8.38
3 1 7 862.37 28.95
3 1 7 750.43 25.22
-3 -1 -7 794.24 27.3
3 1 8 4.77 0.53
3 1 8 4.88 0.55
-3 -1 -8 6.14 1.18
-3 -1 -8 6.95 1.39
3 1 9 1147.34 36
3 1 9 1205.81 37.84
-3 -1 -9 1167.96 37.91
-3 -1 -9 1150.27 37.33
-3 -1 -10 238.47 9.18
3 1 11 51.49 4.98
-3 -1 -11 54.64 7.85
3 1 12 3.17 1.61
-3 -1 -12 2.73 1.19
3 1 13 15.93 3.69
-3 -1 -13 7.34 2.07
3 1 14 73.67 5.7
-3 -1 -14 55.82 15.95
3 1 15 2.3 1.22
-3 -1 -15 4.13 2.21
-3 -2 14 6.62 1.7
3 2 -14 8.25 1.85
-3 -2 13 7.42 3.25
3 2 -13 9.13 2.08
3 2 -12 0.52 0.78
-3 -2 12 2.6 1.54
3 2 -12 2.38 1.16
3 2 -11 2.45 1.16
-3 -2 11 5.21 1.48
3 2 -11 5.5 1.43
3 2 -10 241.22 6.37
-3 -2 10 274.33 7.49
3 2 -10 311.86 8.49
3 2 -9 39.21 3.19
-3 -2 9 43.69 3.61
3 2 -9 36.97 3.26
3 2 -8 380.48 14.87
-3 -2 8 288.57 11.44
3 2 -8 342.26 13.72
3 2 -7 157.29 6.52
-3 -2 7 154.94 6.5
3 2 -7 178.69 7.52
3 2 -6 379.83 13.58
-3 -2 6 346.43 12.33
3 2 -6 351.17 12.71
3 2 -5 2.22 0.93
3 2 -4 559.83 12.86
-3 -2 4 517.1 11.57
3 2 -4 562.34 12.42
3 2 -4 537.74 12.25
3 2 -3 2607.62 43.78
-3 -2 3 2741.16 45.33
3 2 -3 2552.09 42.26
3 2 -3 2706.08 45.09
3 2 -2 35.34 1.58
-3 -2 2 39.83 1.28
3 2 -2 41.89 1.32
3 2 -2 35.53 1.34
3 2 -1 877.23 13.17
3 2 -1 836.07 12.71
3 2 0 319.05 6.14
-3 -2 0 313.61 5.98
-3 -2 0 322.51 5.36
3 2 0 315.45 5.22
3 2 1 747.96 12.17
-3 -2 -1 716.47 11.72
-3 -2 -1 750.62 11.46
3 2 2 63.45 2.06
-3 -2 -2 60.86 2.02
-3 -2 -2 59.78 1.66
3 2 2 54.89 1.56
3 2 2 59.49 1.59
3 2 3 59.34 1.84
-3 -2 -3 53.56 1.72
-3 -2 -3 66.92 6.12
3 2 3 60.21 1.79
3 2 3 60.7 1.31
3 2 4 521 9.82
3 2 4 524.34 9.58
-3 -2 -4 507.22 9.41
3 2 4 537.16 9.91
-3 -2 -4 530.43 9.15
3 2 4 547.33 9.44
3 2 5 139 3.17
3 2 5 160.93 3.66
-3 -2 -5 144.4 4.25
-3 -2 -5 146.29 3.1
3 2 5 156.44 3.33
3 2 6 455.48 10.07
3 2 6 422.69 9.39
-3 -2 -6 419.82 9.98
-3 -2 -6 414.06 9.36
3 2 6 420.15 9.43
3 2 7 135.5 4.93
3 2 7 143.8 5.18
-3 -2 -7 145.66 6.58
-3 -2 -7 142.4 5.49
3 2 7 138.38 5.24
3 2 8 1249.3 44.8
3 2 8 1310.73 46.96
-3 -2 -8 1254.99 45.62
3 2 9 605.22 21.9
3 2 9 626.9 22.68
-3 -2 -9 658.88 25.02
-3 -2 -9 642.89 24.53
-3 -2 -10 123.27 6.73
-3 -2 -10 111.95 5.02
-3 -2 -11 25.76 2.95
-3 -2 -11 31.45 4.74
-3 -2 -12 9.5 2.29
-3 -2 -12 9.24 2.33
-3 -2 -13 0.94 0.7
3 2 14 9.61 1.74
-3 -2 -14 5.88 2.18
3 2 15 3.04 1.34
-3 -2 -15 0.91 1.2
-3 -3 14 8.67 1.9
3 3 -14 8.32 2.64
-3 -3 13 5.06 2.18
3 3 -13 1.58 1.57
3 3 -12 1.63 1.41
-3 -3 12 1.17 0.93
3 3 -12 2.72 1.55
3 3 -11 0.64 1.07
-3 -3 11 4.25 1.3
3 3 -11 3.64 2.07
3 3 -10 9.13 1.85
-3 -3 10 9.43 1.81
3 3 -10 12.21 2.29
3 3 -9 449.2 16.66
-3 -3 9 441.85 16.54
3 3 -9 468.34 17.63
3 3 -8 1154.31 40.09
-3 -3 8 1143.34 39.84
3 3 -8 1164.78 40.74
3 3 -7 161.77 6.23
-3 -3 7 140.35 5.56
3 3 -7 152.7 6.08
3 3 -6 458.91 17.42
-3 -3 6 532.56 19.97
3 3 -6 505.32 19.04
-3 -3 5 492.31 17.19
3 3 -5 516.87 18.16
3 3 -4 713.11 16.27
-3 -3 4 710.88 15.74
3 3 -4 688.05 15.39
3 3 -3 19.26 1.72
-3 -3 3 15.54 1.26
3 3 -3 16.63 1.23
3 3 -3 18.17 1.41
3 3 -2 3.31 0.71
-3 -3 2 2.37 0.76
3 3 -2 3.2 0.74
3 3 -2 3 0.93
3 3 -1 1161.93 20.61
-3 -3 1 1244.3 21.45
3 3 -1 1041.6 18.01
3 3 -1 1022.74 17.35
3 3 0 57.14 2.2
-3 -3 0 51.48 1.67
3 3 0 38.32 1.44
3 3 0 48.28 1.24
-3 -3 -1 1001.59 17.38
3 3 1 964.94 16.69
3 3 1 1074.46 17.54
3 3 2 1.43 0.87
-3 -3 -2 0.42 0.51
3 3 2 4.07 0.6
3 3 3 5259.85 86.54
-3 -3 -3 5243.44 86.2
-3 -3 -3 5399.56 239.15
3 3 4 182.66 8.61
-3 -3 -4 184.76 9.09
-3 -3 -4 169 7.57
3 3 5 156.44 7.42
-3 -3 -5 158.86 7.56
-3 -3 -5 168.84 8.46
-3 -3 -5 148.72 6.78
3 3 6 27.05 2.29
-3 -3 -6 25.67 2.23
-3 -3 -6 36.19 4.12
-3 -3 -6 27.39 2.98
3 3 7 30.23 2.51
3 3 7 38.77 3.15
-3 -3 -7 44.65 6.03
-3 -3 -7 43.25 5.19
3 3 8 0.83 0.4
3 3 8 1.65 0.51
-3 -3 -8 0.55 0.31
3 3 9 1.26 0.27
3 3 9 1.73 0.37
-3 -3 -9 1.64 1.07
-3 -3 -9 2.43 0.77
-3 -3 -10 191.3 7.77
-3 -3 -11 125.9 10.47
-3 -3 -11 127.5 20.18
-3 -3 -12 7.09 1.83
-3 -3 -12 3.41 0.91
-3 -3 -13 9.07 2.55
-3 -3 -13 11.4 2.37
-3 -3 -14 63.89 13.49
-3 -3 -15 14.53 3.52
-3 -4 13 8.4 1.9
3 4 -13 14.57 3.4
3 4 -12 53.91 6.63
-3 -4 12 67.59 7.98
3 4 -12 45.92 4.26
3 4 -11 9.03 2.26
-3 -4 11 12.89 2.09
3 4 -11 12.27 2.29
3 4 -10 210.27 8.97
-3 -4 10 230.78 10.02
3 4 -10 228.02 9.91
3 4 -9 200.74 5.97
-3 -4 9 212.73 6.42
3 4 -9 209.83 6.35
3 4 -8 27.09 2.79
-3 -4 8 40.77 3.99
3 4 -8 25.94 2.81
3 4 -7 164.65 7.19
-3 -4 7 159.32 6.93
3 4 -7 169.89 7.32
3 4 -6 32.75 2.59
-3 -4 6 39.87 2.84
3 4 -6 35.96 2.6
3 4 -5 266.62 10.68
-3 -4 5 277.83 10.97
3 4 -5 277.7 10.83
3 4 -4 244.91 9.32
-3 -4 4 261.71 9.63
3 4 -4 239.91 8.78
3 4 -3 616.44 21.62
-3 -4 3 614.07 21.2
3 4 -3 551.91 18.96
-3 -4 3 556.53 19.13
3 4 -2 718.2 16.45
-3 -4 2 633 14.2
-3 -4 2 683.65 14.88
3 4 -1 285.71 7.45
3 4 -1 275.88 6.26
3 4 0 368.39 9.14
3 4 0 395.53 8.48
3 4 1 7.69 0.99
-3 -4 -1 10.82 1.1
3 4 2 1195.23 25.86
-3 -4 -2 1267.45 27.24
3 4 3 721.82 16.16
-3 -4 -3 734.85 16.41
3 4 4 427.83 10.04
-3 -4 -4 418.22 14.81
3 4 5 128.9 9.99
-3 -4 -5 118.28 9.79
-3 -4 -5 130.85 4.51
3 4 6 1.99 0.57
-3 -4 -6 5.16 0.83
-3 -4 -6 0.71 0.89
-3 -4 -6 3.22 0.43
3 4 7 1.26 0.49
-3 -4 -7 2.76 0.68
-3 -4 -7 2.78 0.96
-3 -4 -7 2.91 0.52
3 4 8 4.18 0.69
-3 -4 -8 3.37 0.78
-3 -4 -8 3.12 0.83
-3 -4 -8 7.57 1.03
3 4 9 50.5 4.22
-3 -4 -9 65.59 7.92
-3 -4 -9 60.57 5.25
-3 -4 -10 462.74 13.05
-3 -4 -10 567.59 12.49
-3 -4 -11 19.59 5.02
-3 -4 -11 26.92 4.25
-3 -4 -12 75.29 17.68
-3 -4 -13 46.11 8.53
-3 -4 -13 43.21 8.69
-3 -4 -14 14.89 3.7
-3 -4 -14 14.48 3.66
-3 -4 -15 33.95 6.24
-3 -5 13 10.47 2.78
3 5 -13 9.37 2.98
3 5 -12 47.03 5.01
-3 -5 12 61.53 6.45
3 5 -12 46.06 9.31
3 5 -11 132.91 9.15
-3 -5 11 143.57 9.68
3 5 -11 128.78 13.14
3 5 -10 81.71 11.12
3 5 -10 115.72 6.28
3 5 -9 19.57 2.83
-3 -5 9 22.83 3.15
3 5 -9 17.26 3.33
3 5 -8 92.27 4.85
-3 -5 8 105.69 5.42
3 5 -8 96.57 10.25
3 5 -7 351.87 13.57
-3 -5 7 386.57 14.8
3 5 -7 348.02 14.73
3 5 -6 61.22 5
-3 -5 6 64.57 4.98
3 5 -6 59.16 7.46
3 5 -5 478.66 18.62
-3 -5 5 452.62 17.46
3 5 -5 459.01 17.51
3 5 -4 42.13 3.2
-3 -5 4 51.63 3.54
3 5 -4 47.76 6.1
3 5 -3 1821.27 94.48
3 5 -3 1739.27 62.59
3 5 -2 75.85 4.78
3 5 -2 88.23 6.78
-3 -5 2 78.02 4.42
3 5 -1 782.83 27.16
3 5 -1 796.77 26.87
3 5 0 2.63 1.03
-3 -5 0 2.58 0.68
3 5 0 0.47 0.29
-3 -5 0 0.9 0.32
3 5 1 10.27 1.42
-3 -5 -1 13.28 1.67
-3 -5 -1 11.76 0.95
3 5 2 2.72 1.03
-3 -5 -2 0.91 0.67
3 5 3 0.97 0.66
-3 -5 -3 12.87 1.61
3 5 4 91.69 4.21
-3 -5 -4 100.99 4.66
3 5 5 534.84 17.76
-3 -5 -5 505.15 17.12
-3 -5 -5 464.32 14.58
-3 -5 -5 459.15 14.42
3 5 6 219.02 8.77
-3 -5 -6 218.33 9.91
-3 -5 -6 202.48 7.54
3 5 7 11.5 1.26
-3 -5 -7 10.42 1.84
-3 -5 -7 9.93 0.92
3 5 8 184.7 7.13
-3 -5 -8 176.51 11.21
-3 -5 -8 192.23 7.17
3 5 9 147.5 3.9
-3 -5 -9 153.44 15.54
-3 -5 -9 131.42 3.68
-3 -5 -10 32.67 7.29
-3 -5 -10 21.56 2.76
-3 -5 -11 0.9 0.92
-3 -5 -11 1.21 0.86
-3 -5 -12 1.74 1.44
-3 -5 -13 39.02 18.51
-3 -5 -14 13.79 3
3 6 -12 76.56 5.84
-3 -6 12 59.7 5.17
3 6 -12 67.33 11.76
3 6 -11 87.11 8.26
-3 -6 11 99.48 9.47
3 6 -11 74.48 12.09
3 6 -10 36.26 4.99
-3 -6 10 26.23 3.87
3 6 -10 26.47 5.33
3 6 -9 99.38 5.36
-3 -6 9 103.3 5.55
3 6 -9 102.31 9.41
3 6 -8 333.75 13.85
-3 -6 8 329.99 13.67
3 6 -8 280.36 18.08
3 6 -7 5.28 2.04
-3 -6 7 5.04 1.68
3 6 -7 1.14 0.85
3 6 -6 33.65 2.63
-3 -6 6 33.01 2.57
3 6 -6 28.2 4.19
3 6 -5 2.97 1.07
-3 -6 5 1.73 0.97
3 6 -5 1.96 0.73
3 6 -4 326.89 12.66
3 6 -4 278.93 10.27
3 6 -3 101.96 5.16
3 6 -3 96.29 7.15
3 6 -2 96.75 4.83
3 6 -2 132.83 8.72
-3 -6 2 121.84 5.08
3 6 -1 298.74 10.9
-3 -6 1 286.34 11.54
3 6 -1 257.5 10
-3 -6 1 309.2 11.72
3 6 0 10.62 1.53
-3 -6 0 16.56 1.66
-3 -6 0 16.06 1.14
3 6 1 4.59 1.18
-3 -6 -1 5.05 1.03
-3 -6 -1 2.37 0.31
3 6 2 2.62 1.29
-3 -6 -2 5.4 1.34
-3 -6 -2 0.79 0.14
3 6 3 365.76 14.4
-3 -6 -3 365 14.41
3 6 4 722.7 27.2
-3 -6 -4 762.78 28.73
3 6 5 24.25 2.29
-3 -6 -5 21.4 2.2
3 6 6 178.13 7.25
-3 -6 -6 180.1 7.65
3 6 7 17.17 2.14
-3 -6 -7 23.38 3.68
-3 -6 -7 18.94 2.03
3 6 8 2.92 0.81
-3 -6 -8 4.44 1.86
3 6 9 881.62 177.86
-3 -6 -9 290.59 20.52
-3 -6 -10 12.89 2.82
-3 -6 -11 6.55 2.4
-3 -6 -12 30 6.15
-3 -6 -13 5.1 1.23
3 7 -11 21.45 2.67
-3 -7 11 14.72 3.39
3 7 -11 17.77 4.22
3 7 -10 16.65 2.93
-3 -7 10 16.25 3.12
3 7 -10 17.25 3.92
3 7 -9 423.44 105.25
-3 -7 9 411.63 102.31
3 7 -9 329.05 42.27
3 7 -8 2.04 1.32
-3 -7 8 2.83 2.16
3 7 -8 2.7 1.3
3 7 -7 305.22 14.02
-3 -7 7 247.86 11.47
3 7 -7 238.35 11.18
-3 -7 6 12.06 2.29
3 7 -6 9.95 2.6
3 7 -5 0.25 1.34
-3 -7 5 2.73 1.1
3 7 -5 1.11 0.67
3 7 -4 3.45 1.54
3 7 -4 4.78 1.11
3 7 -3 3.64 1.12
-3 -7 3 8.33 1.61
3 7 -3 4.96 1.3
3 7 -2 207.5 8.82
-3 -7 2 224.24 9.34
3 7 -2 193.11 11.04
3 7 -1 308.87 12.34
-3 -7 1 297.5 11.65
3 7 0 36.65 3.71
-3 -7 0 47.15 4.52
3 7 1 77.66 7
-3 -7 -1 75.12 6.7
3 7 2 307.65 12.14
-3 -7 -2 308.42 12.08
3 7 3 6.01 1.21
-3 -7 -3 5.24 1.16
3 7 4 97.02 5
-3 -7 -4 107.73 5.53
3 7 5 5.96 1.44
-3 -7 -5 5.27 1.27
3 7 6 65.42 7.36
-3 -7 -6 70.48 8.13
3 7 7 15.02 2.19
-3 -7 -7 16.92 3.09
3 7 8 0.96 0.74
-3 -7 -8 1.94 1.03
3 7 9 22.41 3.02
-3 -7 -9 34.06 5.68
-3 -7 -10 33.25 5.85
-3 -7 -11 34.56 6.85
-3 -7 -12 2.78 1.73
3 8 -9 45.63 4.41
-3 -8 9 37.85 3.62
3 8 -9 24.35 4.22
3 8 -8 62.79 6.78
-3 -8 8 64.59 6.55
3 8 -8 42.42 7.11
3 8 -7 73.51 8.89
-3 -8 7 88.47 10.46
3 8 -7 48.51 9.87
-3 -8 6 9.08 3.02
3 8 -6 3.23 1.14
3 8 -5 8.01 2.61
3 8 -5 1.88 0.92
3 8 -4 43.28 6.47
3 8 -4 33.62 5.96
3 8 -3 114.27 6.59
-3 -8 3 109.66 6.18
3 8 -3 84.65 12.46
3 8 -2 135.67 6.76
-3 -8 2 150.37 7.13
3 8 -1 20.02 3.05
-3 -8 1 17.13 2.73
3 8 0 70.48 4.23
-3 -8 0 69.93 4.27
3 8 1 3.9 1.79
-3 -8 -1 0.38 1.11
3 8 2 0.84 1.04
-3 -8 -2 2.36 1.68
3 8 3 218.17 9.51
-3 -8 -3 202.34 9.08
3 8 4 8.28 2.34
-3 -8 -4 9.49 2.5
3 8 5 1.97 0.96
-3 -8 -5 2.66 1.38
3 8 6 102.71 4.95
-3 -8 -6 113.01 6
3 8 7 34.9 4.63
-3 -8 -7 28.2 4.09
3 8 8 2.99 1.31
-3 -8 -8 2.27 1.86
-3 -8 -9 1.65 1.24
-3 -8 -10 29.1 6.85
3 9 -7 72.61 6
-3 -9 7 60.43 5.12
-3 -9 6 38.38 23.48
3 9 -5 6.34 3.02
3 9 -4 71.53 10.04
-3 -9 4 78.95 9.61
3 9 -3 8.59 2.3
-3 -9 3 1.92 1.47
3 9 -2 83.07 9.59
-3 -9 2 71.02 5.41
3 9 -1 3.14 1.89
-3 -9 1 0.69 1.53
3 9 0 2.49 1.51
-3 -9 0 3.78 2.23
3 9 1 38.96 5.18
-3 -9 -1 33.36 4.6
3 9 2 18.35 2.84
-3 -9 -2 14.53 2.95
3 9 3 7.32 2.14
-3 -9 -3 2.9 1.81
3 9 4 64.9 7.81
-3 -9 -4 53.17 6.71
3 9 5 3.4 1.45
-3 -9 -5 6.9 3
3 9 6 0.94 1.34
-3 -9 -6 3.3 2.48
3 9 7 18.99 3.42
-3 -9 -7 11.17 2.21
3 9 8 3.18 1.61
-3 -9 -8 5.73 2.1
3 10 -3 16.62 2.51
-3 -10 3 19.35 2.77
3 10 -2 2.92 1.44
-3 -10 2 2.15 1.68
3 10 -1 5.55 1.76
-3 -10 1 0.74 1.57
3 10 0 20.84 3.73
-3 -10 0 20.02 3.53
3 10 1 7.44 2.2
-3 -10 -1 4.23 1.9
3 10 2 1.84 1.24
-3 -10 -2 0.16 1.53
3 10 3 2.37 1.9
-3 -10 -3 2.25 1.59
3 10 4 33.14 3.31
-3 -10 -4 29.77 3.11
-4 8 4 2.6 1.15
4 -8 -4 1.26 0.88
-4 8 3 23.54 4.23
4 -8 -3 17.1 2.68
-4 8 2 5.27 1.55
4 -8 -2 7.17 1.66
-4 8 1 17.11 3.39
4 -8 -1 16.45 2.97
-4 8 0 6.63 1.98
4 -8 0 2.68 1.38
-4 8 -1 23.39 4.13
4 -8 1 24.83 4.26
-4 8 -2 34.44 7.07
4 -8 2 31.22 5.04
-4 8 -3 71.57 10.25
4 -8 3 84.3 7.99
-4 8 -4 3.16 2.44
4 -8 4 1.95 1.38
-4 8 -5 71.05 43.15
4 -8 5 115.93 70.2
-4 8 -6 0.02 1.49
4 -8 6 0.79 0.97
-4 7 7 2.03 1.99
4 -7 -7 1.25 0.85
-4 7 6 1.02 0.96
4 -7 -6 1.04 0.91
-4 7 5 20.15 4.43
4 -7 -5 19.18 3.2
-4 7 4 20.55 3.58
4 -7 -4 18.27 2.07
-4 7 3 0.49 1.23
4 -7 -3 1.61 1.15
-4 7 2 199.73 13.02
4 -7 -2 181.09 11.58
-4 7 1 4.17 1.65
4 -7 -1 4.1 1.34
-4 7 0 24.19 3.71
4 -7 0 17.64 2.74
-4 7 -1 181.86 8.43
4 -7 1 165.36 7.13
-4 7 -2 39.76 5.85
4 -7 2 39.86 5.07
-4 7 -3 124.47 14.36
4 -7 3 139.67 6.67
-4 7 -4 23.97 3.73
4 -7 4 15.73 2.54
-4 7 -5 5.12 2.06
4 -7 5 7.12 2.12
-4 7 -6 6.63 2.86
4 -7 6 1.52 1.03
-4 7 -7 11.17 3.08
4 -7 7 9.04 1.93
-4 7 -8 119.44 72.33
4 -7 8 109.16 66.08
-4 7 -9 208.33 13.95
4 -7 9 196.02 12.8
-4 6 9 4.95 1.78
4 -6 -9 3.37 1.69
-4 6 8 10.87 2.69
4 -6 -8 8.98 2
-4 6 7 68.73 11.55
4 -6 -7 70.53 10.2
-4 6 6 1.54 1.16
4 -6 -6 3.17 1.26
-4 6 5 53.31 8.94
4 -6 -5 53.63 6.9
-4 6 4 52.13 9.85
4 -6 -4 59.71 8.12
-4 6 3 49.58 5.61
4 -6 -3 37.22 5.83
-4 6 2 47.87 11.8
4 -6 -2 38.82 4.72
-4 6 1 261.56 17.36
4 -6 -1 278.82 18.1
-4 6 0 28.22 3.85
4 -6 0 30.55 3.67
-4 6 -1 43.36 5.39
4 -6 1 35.32 4.18
-4 6 -2 88.59 10.17
4 -6 2 84.05 9.32
-4 6 -3 435.69 28.42
4 -6 3 476.99 30.71
-4 6 -4 6.91 2
4 -6 4 8.67 1.71
-4 6 -5 4.07 1.81
4 -6 5 5.91 1.76
-4 6 -6 3.05 1.48
4 -6 6 2.52 1.36
-4 6 -7 4.71 1.87
4 -6 7 4.46 1.35
-4 6 -8 126.66 8.81
4 -6 8 116.97 7.93
-4 6 -9 3.31 1.91
4 -6 9 3.69 1.89
-4 6 -10 265.13 160.33
4 -6 10 252.77 152.86
-4 6 -11 13.98 3.1
4 -6 11 19.17 2.77
-4 6 -11 8.94 2.31
4 -5 -11 7.38 2.2
4 -5 -11 10.52 2.8
-4 5 10 1.65 0.9
4 -5 -10 3.07 1.68
-4 5 9 9.59 2.17
4 -5 -9 10.45 2.87
-4 5 8 128.79 11.95
4 -5 -8 122.66 12.2
-4 5 7 13.8 3.9
4 -5 -7 22.66 5.66
-4 5 6 65.56 6.16
4 -5 -6 62.1 7.66
-4 5 5 234.84 21.76
4 -5 -5 284.61 20.23
-4 5 4 50.45 5.78
4 -5 -4 40.82 2.49
-4 5 3 434.41 11.79
4 -5 -3 474.9 10.59
-4 5 2 55.42 8.17
4 -5 -2 68.27 5.84
-4 5 1 5.88 1.34
4 -5 -1 2.35 0.67
-4 5 0 33.27 3.53
4 -5 0 31.13 2.92
-4 5 -1 4.28 0.99
4 -5 1 6.74 1.06
-4 5 -2 190.98 8.25
4 -5 2 226.47 8.97
-4 5 -3 465.96 17.73
4 -5 3 475.95 17.44
-4 5 -4 47.14 3.36
4 -5 4 58.25 3.21
-4 5 -5 435.73 11.11
4 -5 5 411.06 9.71
-4 5 -6 48.77 5.99
4 -5 6 46.1 5.39
-4 5 -7 191.87 8.58
4 -5 7 202.29 8.83
-4 5 -8 28.72 4.27
4 -5 8 35.48 5.23
-4 5 -9 106.16 5.51
4 -5 9 101.84 5.07
-4 5 -9 103.17 10.18
-4 5 -10 185.44 20.61
4 -5 10 210.68 23.41
-4 5 -10 211.85 25.01
-4 5 -11 2.58 1.66
4 -5 11 5.71 2.01
-4 5 -11 8.95 2.25
4 -5 12 84.23 6.67
-4 5 -12 48.66 9.13
4 -4 -12 -0.1 0.67
4 -4 -12 1.95 1.57
4 -4 -11 4.49 2.52
-4 4 10 25.72 6.09
4 -4 -10 23.01 5.69
-4 4 9 0.58 0.65
4 -4 -9 2.28 1.17
-4 4 8 168.82 12.78
4 -4 -8 168.14 13.57
-4 4 7 142.45 12.25
4 -4 -7 151.16 12.55
-4 4 6 14.44 2.73
4 -4 -6 13.31 2.53
-4 4 5 10.84 2.08
4 -4 -5 5.53 1.34
-4 4 4 25.74 4.96
4 -4 -4 25.66 3.75
-4 4 3 487.13 19.62
4 -4 -3 536.7 20.05
-4 4 2 1.49 0.84
4 -4 -2 2.11 0.57
-4 4 1 35.16 5.5
4 -4 -1 29.46 3.06
-4 4 0 15.23 2.44
4 -4 0 16.16 1.36
-4 4 -1 6.62 0.99
4 -4 1 5.54 0.85
-4 4 -2 623.56 21.1
4 -4 2 604.28 19.75
-4 4 -3 19.26 2.65
4 -4 3 22.86 2.53
-4 4 -4 955.66 36.89
4 -4 4 1068.89 39.4
-4 4 -5 204.32 8.4
4 -4 5 228.22 8.85
-4 4 -6 317.13 12.31
4 -4 6 308.78 11.78
-4 4 -7 5.19 1.18
4 -4 7 4.92 1
-4 4 -8 252.28 17.02
4 -4 8 284.74 18.69
-4 4 -8 304.25 20.06
-4 4 -9 11.81 3.16
4 -4 9 9.76 1.83
-4 4 -9 15.33 3.64
-4 4 -10 5.69 1.71
4 -4 10 7 1.91
-4 4 -10 6.94 2.25
-4 4 -11 36.8 8.46
4 -4 11 48.84 12.85
-4 4 -11 42.23 7.85
4 -4 12 116.12 10.77
-4 4 -12 87.11 13.32
4 -4 13 59.87 36.36
-4 4 -13 47.29 29.82
-4 3 12 25.75 3.97
4 -3 -12 27.4 4.5
4 -3 -11 81.36 9.38
4 -3 -11 86.14 10.37
-4 3 10 6.49 2.08
4 -3 -10 5.17 1.58
4 -3 -10 8.55 3.21
-4 3 9 253.2 12.03
4 -3 -9 213.64 16.99
-4 3 8 37.87 7.48
4 -3 -8 30.49 5.68
-4 3 7 1.3 0.85
4 -3 -7 35.76 17.69
-4 3 6 56.81 7.27
4 -3 -6 48.47 6.94
-4 3 5 5.84 1.44
4 -3 -5 6.72 1.04
-4 3 4 237.83 13.96
4 -3 -4 241.84 8.22
-4 3 4 245.53 8.4
-4 3 3 796.8 26.52
4 -3 -3 797.52 25.59
-4 3 3 759.56 24.37
-4 3 2 261.17 10.56
4 -3 -2 265.97 9.99
-4 3 2 251.52 9.45
-4 3 1 1995.5 103.69
4 -3 -1 2045.77 105.48
-4 3 1 1896.75 97.78
-4 3 0 45.62 6.41
4 -3 0 37.05 3.06
-4 3 0 31.05 2.57
-4 3 -1 354.28 13.03
4 -3 1 372.26 12.98
-4 3 -1 323.39 11.38
-4 3 -2 338.79 13.39
4 -3 2 364.77 13.61
-4 3 -2 314.1 11.81
-4 3 -3 331.33 13.17
4 -3 3 312.51 11.82
4 -3 4 298.26 11.41
-4 3 -5 5.93 1.18
4 -3 5 1.38 0.59
-4 3 -6 225.67 10.51
4 -3 6 229.54 9.25
-4 3 -7 2.33 0.78
4 -3 7 0.88 0.83
-4 3 -7 0.61 1.04
-4 3 -8 466.67 18.66
4 -3 8 460.65 17.13
-4 3 -8 464.26 17.55
-4 3 -9 16.12 2.93
4 -3 9 17.37 2.42
-4 3 -9 21.94 5.58
-4 3 -10 351.26 15.11
4 -3 10 358.89 14.56
-4 3 -10 318.07 13.07
-4 3 -11 61.26 11.18
4 -3 11 84.07 11.42
-4 3 -11 74.67 14.88
4 -3 12 13.38 2.22
4 -3 13 2.64 1.57
-4 3 -13 2.53 1.27
4 -3 14 4.79 2.27
-4 3 -14 1.78 1.38
-4 2 13 17.05 3.17
4 -2 -13 5.36 2.29
4 -2 -12 -0.56 1.58
4 -2 -11 2.46 1.27
-4 2 11 1.91 1.39
4 -2 -11 3.12 1.92
4 -2 -10 31.62 6.45
-4 2 10 41.29 5.8
4 -2 -10 53.87 7.69
-4 2 9 247.21 16.09
4 -2 -9 322.65 21.27
-4 2 8 8.19 1.52
4 -2 -8 5.22 1.28
-4 2 7 171.07 8.03
4 -2 -7 178.63 7.27
-4 2 6 241.57 12.09
4 -2 -6 230.02 9.13
-4 2 5 11.7 1.76
4 -2 -5 12.97 2.23
-4 2 5 9.47 0.96
-4 2 4 354.19 15.89
4 -2 -4 392.33 14.46
-4 2 4 345.13 12.73
-4 2 3 156.12 7.89
4 -2 -3 162.64 6.47
-4 2 3 150.43 5.38
-4 2 2 887.63 30.59
4 -2 -2 905.69 30.35
-4 2 2 785.41 26.33
-4 2 0 928.07 20.8
4 -2 0 1003.5 21
-4 2 0 1066.87 22.32
-4 2 -1 19.62 3.34
4 -2 1 19.56 1.17
-4 2 -1 18.73 1.15
-4 2 -2 920.83 20.52
4 -2 2 962.4 20.4
-4 2 -2 937.52 19.93
-4 2 -3 105.62 8.14
4 -2 3 114.02 8.51
-4 2 -3 99.67 7.48
4 -2 4 63.6 4.94
-4 2 -4 54.01 4.25
-4 2 -5 441.93 17.29
4 -2 5 435.93 16.26
-4 2 -6 406.82 13.86
4 -2 6 440.94 14.81
-4 2 -6 404.16 14.75
-4 2 -7 108.88 5.39
4 -2 7 118.43 5.52
-4 2 -7 110.26 10.95
-4 2 -8 211.91 8.87
4 -2 8 219.75 8.67
-4 2 -9 676.02 24.28
4 -2 9 672.9 24.52
-4 2 -10 365.9 10.28
4 -2 10 395.1 9.91
-4 2 -10 401.18 10.37
-4 2 -11 61.41 6.52
4 -2 11 64.69 3.76
-4 2 -11 64.23 9.84
4 -2 12 3.2 1.38
-4 2 -12 5.3 2.01
4 -2 13 4.68 1.69
-4 2 -13 1.44 1.45
4 -2 14 0.84 0.92
-4 2 -14 1.7 1.25
4 -1 -13 2.74 1.68
-4 1 12 0.63 1.52
4 -1 -12 3.22 1.87
4 -1 -11 6.95 1.87
-4 1 11 8.18 2.01
4 -1 -11 6.83 2.29
4 -1 -10 38.49 4.93
-4 1 10 32 4.06
4 -1 -10 38.57 5.12
4 -1 -9 242.33 6.65
-4 1 9 253.6 6.9
4 -1 -9 258.02 7.44
4 -1 -8 220.38 9.06
-4 1 8 205.54 8.02
4 -1 -8 265.56 10.68
-4 1 7 836.44 30.83
-4 1 6 124.5 5.95
-4 1 6 110.83 4.1
-4 1 6 124.55 4.59
-4 1 5 241.29 10.75
-4 1 5 229.61 8.64
-4 1 5 212.09 8.06
-4 1 4 736.23 25.65
-4 1 4 676.47 22.77
-4 1 4 609.85 20.6
-4 1 3 0.01 0.15
-4 1 2 265.27 7.18
-4 1 2 238.59 10.64
-4 1 1 1.07 0.54
-4 1 0 666.6 15.21
4 -1 0 675.35 13.92
4 -1 0 646.5 13.31
-4 1 -1 151.05 7.39
4 -1 1 166.91 7.57
4 -1 1 164.63 7.43
-4 1 -2 1192.27 25.91
4 -1 2 1157.51 24.21
4 -1 2 1317.22 27.44
-4 1 -3 2.3 0.81
4 -1 3 0.81 0.26
4 -1 3 1.54 0.57
4 -1 4 2228.61 46.59
4 -1 4 2175.38 45.33
-4 1 -5 224.11 9.13
4 -1 5 213.35 7.83
-4 1 -6 3.02 0.86
4 -1 6 0.27 0.58
-4 1 -7 32.46 5.13
4 -1 7 26.22 2.01
-4 1 -7 32.12 3.35
-4 1 -8 51.81 5.27
4 -1 8 49.61 5.11
-4 1 -8 60.3 10.03
-4 1 -9 116.17 5.02
4 -1 9 134.98 5.9
-4 1 -9 137.45 6.76
-4 1 -10 2.62 0.7
4 -1 10 1.99 0.98
-4 1 -10 5.35 0.96
4 -1 11 104.25 11.55
-4 1 -11 103.29 13.83
4 -1 12 71.76 9.83
-4 1 -12 76.25 15.2
4 -1 13 13.11 2.17
-4 1 -13 13.3 2.13
4 -1 14 1.55 1.09
-4 1 -14 3.75 1.72
4 -1 15 15.49 3.25
-4 1 -15 9.43 3.27
4 0 -14 1.93 1.62
-4 0 13 59.94 6.02
4 0 -13 54.29 5.7
-4 0 12 56.1 14.63
4 0 -12 68.22 5.26
-4 0 11 48.52 6.76
4 0 -11 75.03 10.39
4 0 -10 3.96 1.18
-4 0 10 6.59 1.37
4 0 -10 10.87 2.09
4 0 -9 164.43 4.82
-4 0 9 174.83 5.15
4 0 -9 190.68 5.98
4 0 -8 718.81 25.4
-4 0 8 593.12 20.92
4 0 -8 809.95 28.9
4 0 -7 104.45 4.87
-4 0 7 86.53 6.13
4 0 -7 94.67 7
4 0 -6 505.03 17.01
-4 0 6 433.96 16.73
-4 0 6 539.6 17.58
4 0 -5 50.69 4.24
-4 0 5 34.78 3.58
-4 0 5 45.83 3.58
-4 0 4 259.88 9.28
-4 0 4 197.13 6.92
-4 0 3 89.68 4.73
-4 0 3 95.14 4.38
-4 0 2 2.24 0.69
-4 0 1 928.72 17
-4 0 0 223 5.32
-4 0 -1 131.42 3.65
4 0 1 131.33 2.36
4 0 1 124.91 2.25
-4 0 -2 527.01 10.37
4 0 2 564.98 9.72
4 0 2 554.05 9.55
4 0 2 535.73 10.15
-4 0 -3 1918.44 40.72
4 0 3 1890.22 39.26
4 0 3 1924.57 39.99
4 0 3 1899.22 39.8
-4 0 -4 768.44 17.12
4 0 4 780.18 16.96
4 0 4 849.45 18.31
4 0 5 484.85 11.96
4 0 5 536.73 12.13
-4 0 -5 566.56 12.78
-4 0 -6 2.13 0.59
4 0 6 2.08 0.53
4 0 6 3.64 0.82
-4 0 -6 3.37 1.04
-4 0 -7 8.88 1.76
4 0 7 6.17 0.8
4 0 7 5.66 0.91
-4 0 -7 7.41 1.64
-4 0 -8 9.36 1.64
4 0 8 6.41 0.8
4 0 8 7.7 1.14
-4 0 -8 6.69 1.25
4 0 9 72.28 5.07
4 0 9 81.23 6.12
-4 0 -9 84.44 11.2
4 0 10 0.47 0.41
4 0 10 1.64 1
-4 0 -10 0.1 0.77
4 0 11 508.74 32.71
-4 0 -11 472.14 30.43
4 0 12 58.04 8.06
-4 0 -12 46.14 7.87
4 0 13 7.95 1.95
-4 0 -13 8.15 2.71
4 0 14 137.59 15.6
-4 0 -14 114.11 16.64
4 0 15 41.51 25.31
-4 0 -15 26.38 6.72
-4 -1 14 136.89 9.32
4 1 -14 159.93 10.92
-4 -1 13 245.39 21.43
4 1 -13 272.65 60.43
4 1 -12 8.15 2.29
-4 -1 12 12.92 2.19
4 1 -12 25.15 3.67
-4 -1 11 134.65 6.64
4 1 -11 132.97 6.9
4 1 -10 157.6 10.64
-4 -1 10 137.92 9.38
4 1 -10 146.43 10.15
4 1 -9 109.17 5.18
-4 -1 9 109.5 5.22
4 1 -9 119.86 5.98
4 1 -8 20.7 2.19
-4 -1 8 14.33 1.65
4 1 -8 12.12 1.62
4 1 -7 2.31 1.04
-4 -1 7 1.02 0.89
4 1 -7 3.04 1.12
4 1 -6 311.36 12.14
-4 -1 6 287.63 11.26
-4 -1 6 331.44 12.5
4 1 -6 366.72 14.25
-4 -1 5 41.78 5.43
-4 -1 5 29.49 2.45
4 1 -5 37.12 3.21
4 1 -4 1009.01 22.34
-4 -1 4 989.06 21.02
-4 -1 4 1131.87 23.81
4 1 -3 137.27 6.92
-4 -1 3 112.7 5.31
-4 -1 3 132.85 6.14
4 1 -2 4100.57 296.32
-4 -1 2 3805.9 274.68
4 1 -1 423.31 8.74
-4 -1 1 487.6 8.18
4 1 -1 473.57 7.95
4 1 0 115.99 3.4
-4 -1 0 103.32 2.01
4 1 0 110.38 2.09
4 1 1 30.7 1.63
-4 -1 -1 31.18 2.09
4 1 1 36.37 1.12
4 1 2 31.72 1.52
-4 -1 -2 35.3 1.27
4 1 2 28.23 1
4 1 2 31.22 3.27
4 1 3 6.27 0.71
-4 -1 -3 10.05 1.36
4 1 3 6.48 0.51
4 1 3 8.71 0.97
4 1 4 53.52 2.98
-4 -1 -4 57.05 4.76
4 1 4 44.54 2.42
4 1 4 48.78 5.06
4 1 5 385.42 9.28
4 1 5 403.89 9.54
-4 -1 -5 408.5 9.54
-4 -1 -5 393.57 8.99
4 1 5 405.8 9.33
4 1 6 562.31 19.64
4 1 6 573.29 19.72
-4 -1 -6 577.51 20.26
-4 -1 -6 576.19 19.86
4 1 7 16.1 1.51
4 1 7 18.49 1.74
-4 -1 -7 21.01 3.7
-4 -1 -7 24.75 3.56
4 1 8 36.42 2.29
4 1 8 36.92 2.31
-4 -1 -8 54.01 5.76
-4 -1 -8 49.72 5.53
4 1 9 103.67 4.22
4 1 9 111.38 4.48
-4 -1 -9 115.16 5.08
4 1 10 122.19 4.68
4 1 10 94.94 4.69
-4 -1 -10 105.64 10.13
4 1 11 11.19 2.1
-4 -1 -11 12.23 3.13
4 1 12 83.21 4.63
4 1 13 1.59 1.01
-4 -1 -13 1.98 0.99
4 1 14 4.2 1.8
-4 -1 -14 2.45 1.11
4 1 15 0.24 1.23
-4 -1 -15 1.83 1
-4 -2 13 22.04 3.93
4 2 -13 24.23 4.31
4 2 -12 76.44 5.62
-4 -2 12 76.52 5.58
4 2 -12 96.04 6.94
4 2 -11 1.16 1.07
-4 -2 11 3.96 1.68
4 2 -11 7.26 2.08
4 2 -10 78.57 4.36
-4 -2 10 72.99 3.9
4 2 -10 81.97 4.79
4 2 -9 61.26 3.41
-4 -2 9 67.14 3.65
4 2 -9 71.98 4.16
4 2 -8 230.9 8.99
-4 -2 8 210 8.12
4 2 -8 199.95 8.21
4 2 -7 644.13 24.4
-4 -2 7 541.32 20.38
4 2 -7 667.36 25.44
4 2 -6 172.61 6.56
-4 -2 6 188.5 6.79
4 2 -6 210.07 7.78
-4 -2 5 134.33 5.56
4 2 -5 92.18 3.93
4 2 -5 130.43 5.62
4 2 -4 219.99 8.5
-4 -2 4 187.56 6.82
4 2 -4 172.76 6.3
4 2 -4 189 7.15
4 2 -3 886.7 19.89
-4 -2 3 846.52 18.02
4 2 -3 866.12 18.91
4 2 -2 250.86 11.87
-4 -2 2 242.78 11.03
4 2 -2 273.83 6.23
4 2 -1 494.11 11.58
-4 -2 1 493.31 10.63
4 2 -1 497.7 10.75
4 2 0 8.4 0.93
-4 -2 0 8.11 0.55
4 2 0 8.94 0.62
4 2 1 9.51 0.91
-4 -2 -1 10.34 0.62
4 2 1 8.77 0.58
4 2 2 84.97 2.66
-4 -2 -2 86.34 2.94
4 2 2 72.71 1.93
4 2 2 79.23 2.1
4 2 3 0.49 0.44
-4 -2 -3 0.48 0.3
4 2 3 0.5 0.39
4 2 3 0.5 0.26
4 2 4 30.63 1.91
-4 -2 -4 34.94 4.35
4 2 4 31.57 1.88
4 2 4 29.54 3.05
4 2 5 1513.09 32.04
4 2 5 1680.1 35.53
-4 -2 -5 1722.31 36.46
4 2 6 23.87 4.54
4 2 6 39.93 3.25
-4 -2 -6 42.9 6.4
-4 -2 -6 43.34 5.2
4 2 6 39.99 3.22
4 2 7 248.41 10.13
4 2 7 242.84 9.32
-4 -2 -7 245.95 9.48
4 2 7 235.48 9.04
4 2 8 372.98 12.45
4 2 8 381.78 12.53
-4 -2 -8 390.19 13.5
-4 -2 -8 386.96 12.94
4 2 9 59.33 4.16
-4 -2 -9 64.03 8.47
-4 -2 -9 52.45 6.94
4 2 10 87.71 3.34
-4 -2 -10 97.53 5.65
-4 -2 -10 81.56 8.56
-4 -2 -11 0.45 1.13
-4 -2 -11 0.39 0.44
-4 -2 -12 19.78 4.3
4 2 13 101.43 5.37
-4 -2 -13 71.07 10.87
4 2 14 54.68 5.79
-4 -2 -14 52.12 8.05
4 2 15 46.17 28.1
-4 -2 -15 27.31 4.98
-4 -3 13 8.77 1.81
4 3 -13 18.96 3.29
4 3 -12 176.76 19.64
-4 -3 12 196.3 21.82
4 3 -12 198.55 22.17
4 3 -11 9.97 2.37
-4 -3 11 14.06 2.45
4 3 -11 11.43 2.22
4 3 -10 153.71 6.95
4 3 -10 165.72 7.59
4 3 -9 15.35 2.75
-4 -3 9 20.6 2.85
4 3 -9 21.85 3.64
4 3 -8 1065.77 38
-4 -3 8 1004.9 35.79
4 3 -8 1062.72 38.06
4 3 -7 22.21 2.86
-4 -3 7 15.05 1.79
4 3 -7 10.64 1.58
4 3 -6 207.13 8.67
-4 -3 6 202.96 8.19
4 3 -6 226.41 9.31
4 3 -5 1.75 0.92
-4 -3 5 1.86 0.85
4 3 -5 1.92 0.84
4 3 -4 1.49 1.05
-4 -3 4 2.39 0.81
4 3 -4 1.55 0.85
4 3 -3 5.62 0.99
-4 -3 3 0.89 0.44
4 3 -3 1.9 0.52
4 3 -3 1.67 0.76
4 3 -2 64.47 3.99
-4 -3 2 42.64 2.36
4 3 -2 38.8 2.19
4 3 -2 39.55 2.3
4 3 -1 689.39 17.8
-4 -3 1 692.26 15.04
4 3 -1 754.03 16.3
4 3 -1 692.26 14.98
4 3 0 1037.22 22.96
-4 -3 0 974.14 20.81
4 3 0 912.38 19.52
4 3 0 887.37 18.74
4 3 1 73.88 7.21
-4 -3 -1 59.76 3.13
4 3 1 59.2 3.08
4 3 1 62.35 2.96
4 3 2 1.54 0.81
-4 -3 -2 0.87 0.4
4 3 2 1.04 0.65
4 3 2 0.57 0.17
4 3 3 279.48 7.09
4 3 3 254.19 18.39
4 3 4 69.64 5.45
-4 -3 -4 82.99 8.67
4 3 4 59.25 4.37
4 3 5 229.65 8.43
-4 -3 -5 216.25 8.4
4 3 5 205.67 7.12
4 3 6 14.33 1.52
-4 -3 -6 9.36 2.05
-4 -3 -6 10.82 1.39
4 3 6 10.64 1.02
4 3 7 1.11 0.53
4 3 7 2.2 0.48
-4 -3 -7 6.16 1.42
-4 -3 -7 4.42 0.78
4 3 7 1.51 0.49
4 3 8 1.06 0.38
4 3 8 4.93 0.8
-4 -3 -8 3.57 1.26
-4 -3 -8 3.31 0.78
4 3 8 3.29 0.65
4 3 9 12.12 1.24
-4 -3 -9 15.61 2.69
-4 -3 -9 11.24 2.2
-4 -3 -10 125.16 5.66
-4 -3 -11 1.39 0.83
-4 -3 -13 10.15 3.23
-4 -3 -13 6.51 2.05
-4 -3 -14 5.36 2.43
-4 -3 -14 6.7 3.07
4 3 15 17.06 2.3
-4 -4 13 107.04 7.75
4 4 -13 102.93 7.61
4 4 -12 3.2 1.99
-4 -4 12 3.23 1.5
4 4 -12 5.68 1.9
4 4 -11 2.06 1.78
-4 -4 11 7.03 2.69
4 4 -11 6.66 2.14
4 4 -10 20.59 4.32
-4 -4 10 25.81 3.99
4 4 -10 22.1 3.46
4 4 -9 169.66 7.59
-4 -4 9 157.37 7.06
4 4 -9 166.25 7.52
4 4 -8 40.86 2.86
-4 -4 8 42.15 2.93
4 4 -8 49.82 3.12
4 4 -7 76.6 6.75
-4 -4 7 74.44 6.5
4 4 -7 75.95 6.68
4 4 -6 142.72 6.37
-4 -4 6 140.9 5.99
4 4 -6 131.37 5.63
4 4 -5 12.28 2.04
-4 -4 5 8.33 1.29
4 4 -5 4.06 0.81
4 4 -4 2.19 0.78
-4 -4 4 1.97 0.85
4 4 -4 5.72 0.85
4 4 -3 17.87 2.03
-4 -4 3 20.22 1.94
4 4 -3 25.23 2.26
4 4 -2 218.1 8.64
4 4 -2 190.47 6.93
4 4 -1 1294.33 44.22
-4 -4 1 1179.36 39.85
4 4 -1 1051.94 35.25
4 4 0 0.89 1.01
-4 -4 0 1.3 0.61
4 4 0 1.82 0.3
4 4 1 273.52 10.24
-4 -4 -1 286.21 10.33
4 4 1 255.48 8.52
4 4 2 312.12 11.46
-4 -4 -2 324.97 11.65
4 4 3 2.35 0.66
-4 -4 -3 1.09 0.61
4 4 4 357.29 13.65
-4 -4 -4 367.22 14.01
4 4 5 68.56 5.59
-4 -4 -5 100.88 8.55
4 4 6 48.24 3.09
-4 -4 -6 54.28 4.55
4 4 7 363.27 13.85
-4 -4 -7 331.32 14.72
-4 -4 -7 347.28 12.81
4 4 8 96.15 6.74
-4 -4 -8 88.01 6.02
4 4 9 5.87 0.94
-4 -4 -9 3.96 0.91
-4 -4 -10 131.79 15.15
-4 -4 -11 87.01 20.12
-4 -4 -11 26.87 5.81
-4 -4 -12 77.74 12.06
-4 -4 -13 33.58 7.34
-4 -4 -14 13.58 3.7
4 5 -12 73.84 44.81
-4 -5 12 71.7 43.47
4 5 -12 144.01 87.31
4 5 -11 2.62 1.51
-4 -5 11 2.42 1.31
4 5 -11 2.63 2.23
4 5 -10 3.21 1.75
-4 -5 10 6.34 2.16
4 5 -10 5.61 2.27
4 5 -9 1.64 1.07
-4 -5 9 4.04 1.78
4 5 -9 0.75 1.14
4 5 -8 2.33 0.96
-4 -5 8 2.27 1.15
4 5 -8 1.59 1.12
4 5 -7 290.72 8.07
-4 -5 7 271.27 7.31
4 5 -7 250.26 6.85
-4 -5 6 422.61 15.81
4 5 -6 405.92 15.15
4 5 -5 73.43 5.68
-4 -5 5 63.56 4.86
4 5 -5 72.23 5.36
4 5 -4 25.31 2.99
-4 -5 4 18.78 2.29
4 5 -4 23.28 2.66
4 5 -3 145.7 6.65
-4 -5 3 124.27 5.4
4 5 -3 141.12 6.38
4 5 -2 43.98 3.36
-4 -5 2 55.75 3.66
4 5 -2 41.44 3.78
4 5 -1 263.12 9.75
-4 -5 1 254.03 8.97
4 5 -1 252.52 8.33
4 5 0 11.34 1.56
-4 -5 0 12.57 1.44
4 5 0 16.09 2.14
4 5 1 23.12 2.38
-4 -5 -1 26.34 2.5
4 5 2 2.05 0.87
-4 -5 -2 3.83 0.81
4 5 3 2.72 0.68
-4 -5 -3 6.41 1.05
4 5 4 152.96 5.98
-4 -5 -4 140.84 5.64
4 5 5 48.6 5
-4 -5 -5 42.06 4.43
4 5 6 31.52 2.73
-4 -5 -6 37.11 4.95
4 5 7 5.93 0.96
4 5 8 133.34 3.88
4 5 9 4.52 0.91
-4 -5 -9 8.34 2.06
-4 -5 -10 160.79 10.62
-4 -5 -11 36.81 8.61
-4 -5 -12 8.42 2.61
-4 -5 -13 29.8 7.81
4 6 -11 1.87 1.26
-4 -6 11 1.75 1.52
4 6 -11 1.57 1.06
4 6 -10 3.06 1.77
-4 -6 10 5.74 2.13
4 6 -10 1.19 0.76
4 6 -9 45.77 5.88
-4 -6 9 48.05 6.18
4 6 -9 35.96 6.62
4 6 -8 27.4 3.99
-4 -6 8 14.63 2.32
4 6 -8 18.3 4.09
4 6 -7 126.59 6.92
-4 -6 7 116.1 6
4 6 -7 115.38 9.45
-4 -6 6 15.57 2.62
4 6 -6 15.76 3.04
4 6 -5 30.21 2.75
-4 -6 5 28.02 2.21
4 6 -5 30.99 5.65
4 6 -4 41.05 4.16
-4 -6 4 41.79 3.91
4 6 -4 34.31 4.41
4 6 -3 15.15 2.09
-4 -6 3 14.4 1.94
4 6 -3 15.64 2.8
4 6 -2 320.93 12.43
-4 -6 2 330.19 12.46
4 6 -2 272.7 10.05
4 6 -1 83.55 6.44
-4 -6 1 67.66 5.17
4 6 -1 79.54 6.53
4 6 0 13.02 1.7
-4 -6 0 14.11 1.61
4 6 1 544.16 20.98
-4 -6 -1 564.47 21.51
4 6 2 134.34 5.94
-4 -6 -2 121.43 5.45
4 6 3 3.06 1.03
-4 -6 -3 3.42 1.27
4 6 4 8.47 1.3
-4 -6 -4 11.28 1.6
4 6 5 411.39 15.44
4 6 6 258.2 6.82
4 6 7 98.77 10.79
4 6 8 96.24 4.53
-4 -6 -8 100.86 7.73
4 6 9 345.26 14.65
-4 -6 -9 375.94 29.04
-4 -6 -10 69.62 8.15
-4 -6 -11 36.78 7.29
-4 -6 -12 4.16 1.77
-4 -6 -13 3.5 1.74
4 7 -10 5.16 1.87
-4 -7 10 9.13 2.89
4 7 -10 8.33 2.54
4 7 -9 44.47 4.86
-4 -7 9 38.18 8.82
4 7 -9 31.07 6.45
4 7 -8 29.7 3.41
-4 -7 8 27.12 3.03
4 7 -8 16.39 4.38
4 7 -7 50 13.27
-4 -7 7 56.73 14.88
4 7 -7 39.7 6.9
-4 -7 6 5.85 1.92
4 7 -6 4.72 1.65
4 7 -5 2.36 1.33
-4 -7 5 2.21 1.44
4 7 -5 3.24 1.58
4 7 -4 103.66 5.87
-4 -7 4 111.43 5.83
4 7 -4 64.36 7.4
4 7 -3 16.15 3.07
-4 -7 3 17.68 3.29
4 7 -3 10.94 2.21
4 7 -2 38.22 2.97
-4 -7 2 37.81 2.73
4 7 -2 25.56 4.17
4 7 -1 5.67 1.53
-4 -7 1 10.16 1.8
4 7 0 70.57 4.28
-4 -7 0 66.46 3.82
4 7 1 -0.93 1.02
-4 -7 -1 2.6 1.34
4 7 2 207.56 6.38
-4 -7 -2 216.41 6.44
4 7 3 10.53 1.75
-4 -7 -3 6.77 1.59
4 7 4 153.31 10.51
4 7 5 33.5 4.1
4 7 6 8.18 1.51
-4 -7 -6 5.63 1.68
4 7 7 0.76 0.88
-4 -7 -7 3.84 1.62
4 7 8 343.05 13.04
-4 -7 -8 316.7 27
-4 -7 -9 161.21 13.5
-4 -7 -10 6.75 2.67
-4 -7 -11 43.66 27.21
4 8 -8 50.47 30.71
-4 -8 8 61.19 37.15
4 8 -8 35.09 22.75
4 8 -7 45.16 5.51
-4 -8 7 50.57 5.6
4 8 -7 34.52 6.87
4 8 -6 2.36 1.71
-4 -8 6 4.14 1.65
4 8 -6 2.14 0.89
4 8 -5 83.32 6.46
-4 -8 5 128.89 9.59
4 8 -4 6.62 2.35
-4 -8 4 16.14 3.2
4 8 -3 4.33 1.95
-4 -8 3 3.63 1.82
4 8 -2 3.79 1.52
-4 -8 2 2.57 1.32
4 8 -1 110.01 6.14
-4 -8 1 118.93 6.32
4 8 0 126.71 6.79
-4 -8 0 115.07 6.08
4 8 1 99.3 18.91
-4 -8 -1 89.79 12.16
4 8 2 3.89 1.46
-4 -8 -2 8.14 2.17
4 8 3 630.74 26.66
4 8 4 80.92 11.07
4 8 5 90.2 4.64
-4 -8 -5 96.38 5.1
4 8 6 5.53 1.77
-4 -8 -6 7.9 2.48
4 8 7 6.31 2.18
-4 -8 -7 4.68 1.75
4 8 8 9.64 2.03
-4 -8 -8 6.31 2.16
-4 -8 -9 21.78 5.24
-4 -8 -10 7.36 2.27
-4 -9 6 42.77 4.21
4 9 -5 2.71 2.08
-4 -9 5 6.3 2.86
4 9 -4 44.42 5.16
-4 -9 4 48.95 5.26
4 9 -3 21.71 4.12
-4 -9 3 14.4 3.1
4 9 -2 207.49 23.22
-4 -9 2 211.98 23.62
4 9 -1 15.82 2.28
-4 -9 1 13.33 2.17
4 9 0 8.47 1.7
-4 -9 0 9.63 1.97
4 9 1 2.86 1.61
-4 -9 -1 6.2 2.78
4 9 2 82.86 9.73
4 9 3 79.99 9.65
4 9 4 1.94 1.3
-4 -9 -4 3.14 2.1
4 9 5 114.29 10.48
-4 -9 -5 118.9 11.06
4 9 6 62.23 37.75
-4 -9 -6 63.58 38.65
4 9 7 7.02 1.7
-4 -9 -7 9.9 2.86
4 10 -1 24.46 4.66
-4 -10 1 24.25 3.61
4 10 0 17.03 2.64
-4 -10 0 14.51 3.45
4 10 1 2.79 1.3
-4 -10 -1 0.04 1.59
4 10 2 3.03 1.41
4 10 3 30.3 3.15
-4 -10 -3 19.29 3.38
-5 7 5 1.09 0.92
-5 7 4 3.73 1.24
-5 7 3 22.43 6.06
-5 7 2 199.37 24.11
-5 7 1 20.65 5.58
5 -7 -1 23.69 3.9
-5 7 0 136.42 19.8
5 -7 0 139.25 15.55
-5 7 -1 16.99 3.28
5 -7 1 13.66 1.81
-5 7 -2 97.24 10.89
5 -7 2 105.1 9.51
-5 7 -3 4.09 2.14
5 -7 3 0.99 0.88
-5 7 -4 96.56 16.94
5 -7 4 169.25 15.35
-5 7 -5 164.85 101.16
5 -7 5 187.78 113.58
-5 7 -6 4.27 1.55
5 -7 6 4.35 1.62
-5 7 -7 25.37 4.41
5 -7 7 31.07 3.01
-5 6 7 8.73 2.64
-5 6 6 3.84 1.95
-5 6 5 60.05 11.1
-5 6 4 0.63 0.69
-5 6 3 231.05 20.5
5 -6 -3 224.31 14.01
-5 6 2 12.98 3.85
5 -6 -2 7.54 2.06
-5 6 1 460.01 18.24
5 -6 -1 433.64 16.03
-5 6 0 189.42 8.45
5 -6 0 167.83 6.98
-5 6 -1 227.49 13.27
5 -6 1 248.93 11.03
-5 6 -2 50.47 10.14
5 -6 2 64.23 3.42
-5 6 -3 38.46 9.17
5 -6 3 55.68 7.02
-5 6 -4 22.12 5.43
5 -6 4 27.49 3.75
-5 6 -5 27.8 6.07
5 -6 5 25.09 3.45
-5 6 -6 65.75 11.76
5 -6 6 56.49 6.68
-5 6 -7 113.25 14.11
5 -6 7 103.87 9.46
-5 6 -8 46.19 8.31
5 -6 8 44.71 4.65
-5 6 -9 55.17 34.42
5 -6 9 67.11 40.68
-5 5 9 48.45 30.41
-5 5 8 132.01 16.94
-5 5 7 41.51 7.03
-5 5 6 336.47 26.37
5 -5 -5 1.6 0.68
-5 5 4 105.73 9.99
5 -5 -4 87.87 13.54
-5 5 3 74.27 12.71
5 -5 -3 66.51 3.27
-5 5 2 136.58 11.63
5 -5 -2 175.75 7.24
-5 5 1 126.33 19.92
5 -5 -1 108.16 11.69
-5 5 0 7.32 2.54
5 -5 0 5.65 1.1
-5 5 -1 181.2 15.86
5 -5 1 194.46 12.68
-5 5 -2 4.76 2.11
5 -5 2 2.21 0.8
-5 5 -3 335.1 22.24
5 -5 3 412.72 26.47
-5 5 -4 14.77 3.01
5 -5 4 16.55 2.26
-5 5 -5 205.23 9.44
5 -5 5 189.34 8.04
-5 5 -6 145.19 9.31
5 -5 6 156.85 7.37
-5 5 -7 14 4.22
5 -5 7 13.33 2.19
-5 5 -8 7.57 2.6
5 -5 8 12.2 2.11
-5 5 -9 11.71 2.74
5 -5 9 14.08 1.92
-5 5 -10 139.14 12.77
5 -5 10 149.91 13.42
-5 5 -11 -0.16 0.93
5 -5 11 2.54 1.53
-5 4 10 6.47 1.86
-5 4 9 33.14 10.02
-5 4 8 1.39 1
-5 4 7 427.84 19.12
-5 4 6 9.55 2.6
5 -4 -6 8.8 2.48
-5 4 5 175.35 14.56
5 -4 -5 167.34 13.29
-5 4 4 22.25 4.43
5 -4 -4 15.19 2.6
-5 4 3 142.49 12.54
5 -4 -3 165.97 7.05
-5 4 2 134.88 15.23
5 -4 -2 111.59 4.5
-5 4 1 51.38 7.19
5 -4 -1 51.12 4.37
-5 4 0 293.73 11.74
5 -4 0 262.55 9.72
-5 4 -1 293.87 11.78
5 -4 1 299.39 10.99
-5 4 -2 9.91 2.33
5 -4 2 11.83 1.38
-5 4 -3 344.56 14.93
5 -4 3 335.12 12.41
5 -4 4 1013.08 20.56
-5 4 -5 108.28 6.5
5 -4 5 107.37 5.01
-5 4 -6 55.51 11.83
5 -4 6 58.47 6.61
-5 4 -7 2.33 1.17
5 -4 7 2.09 0.84
-5 4 -8 2.37 1.57
5 -4 8 0.56 0.76
-5 4 -9 1.13 1.01
5 -4 9 2.92 1.75
-5 4 -10 41.14 6.45
5 -4 10 58.43 6.92
-5 4 -10 57.66 7.13
-5 4 -11 0.58 0.77
5 -4 11 0.99 1.02
-5 4 -11 0.75 1.28
5 -4 12 131 79.29
5 -3 -11 10.15 2.32
5 -3 -11 5.07 2.05
-5 3 10 80.75 9.44
5 -3 -10 79.83 9.63
-5 3 9 215.83 14.06
-5 3 8 89.32 13.72
5 -3 -8 94.28 12.78
-5 3 7 146.83 11.62
5 -3 -7 132.52 10.07
-5 3 6 0.53 0.9
5 -3 -6 0.74 0.44
-5 3 5 313.86 16.14
5 -3 -5 403.55 10.17
-5 3 4 40.52 5.82
5 -3 -4 27.02 2.71
-5 3 3 270.03 11.6
5 -3 -3 276.41 9.97
-5 3 2 1.04 0.7
5 -3 -2 0.77 0.4
-5 3 1 841.88 31.91
5 -3 -1 789.29 28.82
-5 3 0 148.19 6.72
5 -3 0 190.63 7.34
-5 3 0 152.24 5.93
-5 3 -1 24.84 5.21
5 -3 1 20.98 2.18
-5 3 -1 15.72 1.71
-5 3 -2 5.72 1.3
5 -3 2 5.88 0.85
-5 3 -2 4.43 0.66
-5 3 -3 25.14 4.39
5 -3 3 20.05 2.15
5 -3 4 272.54 10.04
-5 3 -5 43.22 8.29
5 -3 5 45.5 3.51
-5 3 -6 91.26 4.44
5 -3 6 115.43 5.12
-5 3 -7 36.62 6.39
5 -3 7 34.33 2.28
-5 3 -8 1.57 1.59
5 -3 8 4.84 1.36
-5 3 -9 28.45 5.34
5 -3 9 30.47 3.91
5 -3 10 23.22 3.16
-5 3 -10 32.24 6.2
-5 3 -11 61.7 11.33
5 -3 11 77.14 5.55
-5 3 -11 63.75 7.84
5 -3 12 29.04 4.84
-5 3 -12 23.33 4.97
5 -3 13 24.46 3.82
-5 3 -13 15.9 3.18
5 -2 -12 11.83 2.91
5 -2 -11 55.27 5.52
5 -2 -11 62.54 6.4
5 -2 -10 0.87 1.12
-5 2 10 4.03 1.52
5 -2 -10 2.62 1.86
5 -2 -9 6.03 1.9
-5 2 9 3.48 1.12
5 -2 -9 14.83 3.64
-5 2 8 73.63 4.12
-5 2 8 60.42 3.11
-5 2 7 13.13 3.18
-5 2 7 11.28 1.87
-5 2 6 158.71 10.42
-5 2 6 131.57 5.16
-5 2 5 362.29 13.87
5 -2 -5 349.52 12.74
-5 2 4 205.83 13.43
5 -2 -4 174.2 7.08
-5 2 3 142.42 10.13
5 -2 -3 128.34 5.17
-5 2 3 134.8 5.14
-5 2 2 1045.73 35.57
5 -2 -2 1082.08 34.04
-5 2 2 1022.18 32.13
-5 2 1 204.39 8.29
5 -2 -1 182.72 5.94
-5 2 1 188.64 6.1
-5 2 0 128.36 5.77
5 -2 0 133.85 4.99
-5 2 0 124.58 4.68
-5 2 -1 1 0.74
5 -2 1 1.35 0.45
-5 2 -1 0.69 0.34
-5 2 -2 2.51 0.9
5 -2 2 0.6 0.27
5 -2 2 1.46 0.38
-5 2 -3 3.68 1.58
5 -2 3 1.74 0.42
5 -2 3 2.65 0.52
-5 2 -4 6.25 1.73
5 -2 4 4.76 0.66
-5 2 -5 33.21 7.53
5 -2 5 26.6 2.81
-5 2 -6 1265.93 100.43
5 -2 6 1186.59 40.87
-5 2 -7 8.09 1.78
5 -2 7 9.26 1.25
-5 2 -8 20.08 3.94
5 -2 8 23.74 1.79
-5 2 -8 21.8 2.77
-5 2 -9 226.46 15.38
5 -2 9 246.19 16.18
-5 2 -9 243 16.1
5 -2 10 41.62 5.21
-5 2 -10 31.35 6.85
-5 2 -11 13.84 3.55
5 -2 11 27.16 3.75
-5 2 -11 16.4 3.86
5 -2 12 3.7 1.76
-5 2 -12 6.05 2.15
5 -2 13 13.51 2.8
-5 2 -13 15.2 3.98
5 -2 14 8.44 2.2
-5 2 -14 5.66 2.13
5 -1 -12 6.42 2.37
5 -1 -11 78.93 9.14
-5 1 11 90.64 10.32
5 -1 -11 89.29 10.41
5 -1 -10 0.49 1.03
-5 1 10 2.38 1.28
5 -1 -10 2.8 1.19
5 -1 -9 146.53 7.34
-5 1 9 122.97 5.87
5 -1 -9 140.25 7.32
5 -1 -8 7.99 1.97
5 -1 -8 4.39 1.67
5 -1 -7 1292.14 26.55
-5 1 6 31.19 2.95
-5 1 6 21.71 1.79
-5 1 5 4.51 1.51
-5 1 5 4.71 0.82
-5 1 4 2.24 1.12
-5 1 4 2.74 0.36
-5 1 4 1.59 0.27
-5 1 3 14.88 3.1
-5 1 2 148.55 6.66
-5 1 1 37.53 6.66
-5 1 0 298.87 11.2
-5 1 -1 450.48 16.21
5 -1 1 433.22 14.42
5 -1 1 450.65 15.01
-5 1 -2 14.33 2.11
5 -1 2 9.29 1.21
5 -1 2 12.19 1.06
-5 1 -3 60.01 8.48
5 -1 3 50.82 4.05
5 -1 3 55.06 4.32
-5 1 -4 241.08 10.07
5 -1 4 215.31 8.38
5 -1 4 227.81 8.66
-5 1 -5 84.19 3.79
5 -1 5 79.05 3.23
-5 1 -6 8.61 1.61
5 -1 6 10.67 1.37
-5 1 -7 82.13 6.03
5 -1 7 69.37 5.11
-5 1 -8 1.27 0.89
5 -1 8 2.14 0.98
-5 1 -8 1.95 1.09
-5 1 -9 44.58 6
5 -1 9 52.19 3.15
-5 1 -9 44.3 6.3
-5 1 -10 21.95 4.16
5 -1 10 28.66 3.59
-5 1 -10 27.85 5.47
5 -1 11 61.81 8.56
-5 1 -11 53.49 9.96
5 -1 12 3.54 1.43
-5 1 -12 4.84 1.88
5 -1 13 5.39 2.08
-5 1 -13 3.28 1.68
5 -1 14 38.23 23.3
-5 1 -14 29.02 6.04
5 0 -13 40.05 3.96
-5 0 12 117.65 10.71
5 0 -12 167.57 15.15
-5 0 11 91.8 10.41
5 0 -11 108.9 12.5
5 0 -10 33.12 4.29
-5 0 10 34.7 4.52
5 0 -10 42.15 5.65
5 0 -9 46.73 9.72
5 0 -9 51.34 3.4
5 0 -8 280.81 7.73
5 0 -8 291.13 8.16
5 0 -7 22.94 2.52
-5 0 7 17.15 1.78
5 0 -7 25.49 2.77
5 0 -6 51.56 4.15
-5 0 6 46.25 3.41
-5 0 5 52.38 5.04
-5 0 5 63.48 6.07
5 0 -4 45.68 3.19
-5 0 4 40.21 2.23
-5 0 4 46.61 2.58
-5 0 3 89.09 4.33
-5 0 2 35.57 4.44
-5 0 1 38.85 5.84
-5 0 0 1256.28 42.81
-5 0 -1 84.73 7.26
-5 0 -2 213.87 8.2
5 0 2 203.5 6.98
5 0 2 193.27 6.64
5 0 3 593.14 20.03
5 0 3 577.78 19.55
-5 0 -4 90.74 6.18
5 0 4 95.47 6.05
5 0 4 95.39 3.95
-5 0 -5 26.66 4.12
5 0 5 17.16 2.58
5 0 5 32.2 3.53
-5 0 -6 0.34 0.7
5 0 6 2.17 0.78
-5 0 -7 242.8 9.88
5 0 7 256.79 10.19
-5 0 -7 237.39 9.45
-5 0 -8 578.24 20.47
5 0 8 560.91 20.09
-5 0 -8 585.22 21.25
5 0 9 60.36 5.39
-5 0 -9 50.9 7.9
5 0 10 213.33 13.78
5 0 10 203.85 13.58
-5 0 -10 198.6 13.12
5 0 11 237.13 10.24
-5 0 -11 227 9.54
5 0 12 24.66 3.58
-5 0 -12 16.66 2.58
5 0 13 33.74 3.49
-5 0 -13 36.62 7.18
5 0 14 29.41 4.39
-5 0 -14 29.59 5.94
5 1 -13 226.68 15.03
5 1 -12 3.95 1.91
-5 -1 12 1.73 1.41
5 1 -12 5.14 2.25
5 1 -11 0.27 1.07
-5 -1 11 3.53 1.36
5 1 -11 3.84 1.58
5 1 -10 0.77 1.07
5 1 -10 3.04 1.3
5 1 -9 5.06 1.9
-5 -1 9 2.53 1.46
5 1 -9 4.02 1.39
5 1 -8 16.93 2.42
-5 -1 8 17.53 2.25
5 1 -8 23.67 2.04
5 1 -7 2.13 1.37
-5 -1 7 4.61 1.14
5 1 -7 1.21 0.8
5 1 -6 250.38 9.78
-5 -1 6 248.84 9.03
5 1 -6 261 10.2
-5 -1 5 702.68 25.92
-5 -1 5 896.33 32.74
5 1 -3 51.49 4.48
-5 -1 3 46.85 4.02
-5 -1 3 45.27 3.48
5 1 -2 220.12 8.58
5 1 -1 1.93 1.02
5 1 0 54.85 4.59
5 1 1 25.42 2.41
5 1 1 26.92 2.04
5 1 2 6.06 1.04
-5 -1 -2 6.51 1.08
5 1 2 5.08 0.72
5 1 2 3.09 0.87
5 1 3 6.94 0.95
-5 -1 -3 10.15 1.43
5 1 3 6.23 0.71
5 1 3 5.37 1.38
5 1 4 282.36 10.41
-5 -1 -4 296.62 10.59
5 1 4 279.67 9.81
5 1 5 379.91 14.65
-5 -1 -5 361.87 13.73
5 1 6 1.01 0.61
-5 -1 -6 2.4 0.93
5 1 7 5.69 0.95
5 1 7 8.44 1.21
-5 -1 -7 5.83 1.05
5 1 8 3.9 0.68
5 1 8 3.01 1.24
-5 -1 -8 0.42 0.46
5 1 9 8.52 1.06
5 1 9 9.62 1.49
-5 -1 -9 5.47 1.46
5 1 10 9.02 1.47
5 1 10 12.07 2.46
-5 -1 -10 9.12 2.14
5 1 11 4.73 1.67
-5 -1 -11 2.78 0.86
5 1 12 34.84 4.73
-5 -1 -12 34.6 5.5
5 1 13 54.83 6.79
-5 -1 -13 41.81 7.64
5 1 14 142.83 86.46
-5 -1 -14 96.18 59.35
5 2 -12 29.5 4.87
-5 -2 12 22.01 3.8
5 2 -12 34.02 5.74
5 2 -11 41.63 3.92
-5 -2 11 48.43 5.87
5 2 -11 53.12 6.81
5 2 -10 1.88 1.2
-5 -2 10 1.1 1.06
5 2 -10 5.02 1.69
5 2 -9 22.42 3.24
-5 -2 9 22.06 3
5 2 -9 21.93 3.02
5 2 -8 2.98 1.39
-5 -2 8 -0.11 0.97
5 2 -8 4.42 1.55
5 2 -7 27.22 2.81
-5 -2 7 33.55 3.32
5 2 -7 31.04 3.13
5 2 -6 478.97 17.69
-5 -2 6 383.56 13.67
5 2 -6 421.43 15.51
5 2 -5 59.41 6.15
-5 -2 5 47.95 5.39
-5 -2 5 69.08 6.69
5 2 -5 65.29 6.57
5 2 -4 21.85 2.12
-5 -2 4 17.9 1.27
5 2 -4 16.11 1.47
5 2 -3 185.48 7.76
-5 -2 3 181.02 6.82
5 2 -3 176.49 6.7
5 2 -3 191.03 7.63
5 2 -2 208.78 8.62
-5 -2 2 208.98 7.76
5 2 -2 206.89 9.23
5 2 -1 710 24.75
-5 -2 1 725.59 24.37
5 2 -1 705.82 23.71
5 2 0 2.09 0.76
-5 -2 0 0.76 0.26
5 2 0 0.96 0.35
5 2 1 33.5 2.99
-5 -2 -1 33.78 3.92
5 2 1 28.57 2.26
5 2 2 867.27 29.85
-5 -2 -2 843.04 28.38
5 2 2 1136.54 38.25
5 2 2 844.59 28.69
5 2 3 52.1 4.27
-5 -2 -3 46.81 3.68
5 2 3 44.92 3.52
5 2 3 40.23 4.82
5 2 4 114.85 5
-5 -2 -4 116.71 4.93
5 2 4 112.16 4.61
5 2 4 112.71 4.78
5 2 5 343.21 13.12
-5 -2 -5 389.87 14.91
5 2 5 380.85 14.11
5 2 6 136.65 5.18
-5 -2 -6 167.7 7.09
5 2 6 126.1 4.6
5 2 7 53.34 5.31
-5 -2 -7 56.25 8.42
5 2 8 155.14 5.97
-5 -2 -8 172 7.21
-5 -2 -8 151.22 6.01
5 2 9 288.43 6.88
-5 -2 -9 282.36 7.81
-5 -2 -9 236.22 5.88
-5 -2 -10 906.06 57.67
-5 -2 -10 859.54 54.31
-5 -2 -11 164.48 11.43
-5 -2 -11 140.97 7.08
5 2 12 18.09 2.68
5 2 13 0.18 0.89
-5 -2 -13 3.57 1.43
5 2 14 3.24 1.72
-5 -2 -14 0.94 0.83
5 3 -12 101.45 61.43
-5 -3 12 98.5 59.66
5 3 -12 119.4 72.29
5 3 -11 116.62 13.2
5 3 -11 141.04 15.93
5 3 -10 24.14 3.37
-5 -3 10 40.33 5.4
5 3 -10 37.05 4.87
5 3 -9 7.29 2
-5 -3 9 3.61 1.35
5 3 -9 4.01 1.34
5 3 -8 48.55 5.74
-5 -3 8 36.33 4.41
5 3 -8 55.12 6.45
5 3 -7 20.73 2.64
-5 -3 7 17.46 2.32
5 3 -7 21.6 2.77
5 3 -6 69.92 6.24
-5 -3 6 62.43 5.42
5 3 -6 76.92 6.7
5 3 -5 5.25 1.32
-5 -3 5 4.28 0.86
5 3 -5 2.82 0.75
5 3 -4 10.14 1.6
-5 -3 4 9.9 1.32
5 3 -4 11.89 1.55
5 3 -3 118.94 5.18
-5 -3 3 126.58 4.6
5 3 -3 118.9 4.43
5 3 -3 128.74 4.96
5 3 -2 22.25 2.38
-5 -3 2 28.13 2.42
5 3 -2 22.36 2
5 3 -2 16.91 1.66
5 3 -1 353.84 13.78
-5 -3 1 351.92 13.07
5 3 -1 345.96 12.85
5 3 -1 347.26 12.96
5 3 0 4.39 1.4
-5 -3 0 5.11 0.75
5 3 0 2.48 0.49
5 3 0 1.47 0.45
5 3 1 70.69 4.41
-5 -3 -1 69.54 4.01
5 3 1 64.88 5.13
5 3 2 18.83 1.99
-5 -3 -2 22.66 2.07
5 3 2 14.79 1.44
5 3 2 16.66 1.76
5 3 3 147.59 6.26
-5 -3 -3 169.68 7.18
5 3 3 166.62 6.3
5 3 4 40.66 3.57
-5 -3 -4 43.84 6
5 3 4 36.54 2.88
5 3 5 175.09 6.73
-5 -3 -5 167.99 6.69
5 3 5 156.09 5.25
5 3 6 257.15 10.17
-5 -3 -6 257.05 10.62
5 3 6 248.18 9.37
5 3 7 35.62 2.83
-5 -3 -7 37.45 5.5
5 3 8 156.13 6.31
-5 -3 -8 185.1 16.36
-5 -3 -8 121.17 5.31
5 3 9 286.19 6.63
-5 -3 -9 338.47 9.48
-5 -3 -10 326.59 21.41
-5 -3 -10 310.15 20.13
-5 -3 -11 4.35 1.54
-5 -3 -11 4.07 1.19
-5 -3 -12 30.26 6.68
-5 -3 -12 19.06 4.41
-5 -3 -13 2.88 1.93
5 3 14 2.76 1.33
5 4 -12 8.75 2.31
-5 -4 12 12.63 2.86
5 4 -12 10.78 2.53
5 4 -11 1.5 1.87
-5 -4 11 1.91 1.84
5 4 -11 2.23 1.48
5 4 -10 4.1 1.87
-5 -4 10 2.06 1.28
5 4 -10 4.65 1.74
5 4 -9 58.13 3.52
-5 -4 9 52.2 6.54
5 4 -9 54.31 6.82
5 4 -8 23.14 3.25
-5 -4 8 10.95 1.89
5 4 -8 17.59 2.61
5 4 -7 309.05 20.26
-5 -4 7 283.9 18.42
5 4 -7 308.7 20.11
5 4 -6 34.54 2.59
-5 -4 6 29.14 2.18
5 4 -6 33.13 2.24
5 4 -5 11.27 1.81
-5 -4 5 7.04 1.24
5 4 -5 6.92 1.18
5 4 -4 565.87 20.69
-5 -4 4 487.09 17.31
5 4 -4 534.02 19.04
5 4 -3 38.66 4.23
-5 -4 3 42.3 4.54
5 4 -3 38.44 3.96
5 4 -2 87.42 4.18
-5 -4 2 80.79 3.41
5 4 -2 96.96 3.84
5 4 -1 2.93 1.44
-5 -4 1 3.52 0.93
5 4 -1 2.64 0.56
5 4 0 179.38 7.1
-5 -4 0 184.39 6.66
5 4 0 175.76 5.96
5 4 1 622.36 20.87
-5 -4 -1 720.02 23.41
5 4 1 644.36 20.43
5 4 2 498.6 16.95
-5 -4 -2 502.82 16.64
5 4 3 100.78 4.4
-5 -4 -3 91.05 3.8
5 4 4 1799.01 167.98
-5 -4 -4 1652.53 52.78
5 4 5 199.24 8.28
-5 -4 -5 208.77 9.12
5 4 6 10.11 1.2
-5 -4 -6 12.15 1.86
5 4 7 2.57 0.88
-5 -4 -7 2.06 0.74
5 4 8 6.94 1.03
-5 -4 -8 15.13 2.88
5 4 9 87.72 9.52
-5 -4 -9 85.67 13
-5 -4 -10 67.29 12.27
-5 -4 -11 3.56 1.29
-5 -4 -12 408.85 101.68
-5 -4 -13 9.69 3.09
-5 -4 -14 49.98 8.42
5 5 -11 3.16 1.73
-5 -5 11 3.93 2.16
5 5 -11 3.04 1.96
5 5 -10 26.21 4.51
-5 -5 10 29.86 5.07
5 5 -10 31.8 5.29
5 5 -9 80.29 5.9
-5 -5 9 72.04 5.37
5 5 -9 86.47 6.29
5 5 -8 8.47 2.25
-5 -5 8 3.65 1.7
5 5 -8 5.48 1.74
5 5 -7 61.53 3.97
-5 -5 7 57.48 3.42
5 5 -7 58.08 3.39
-5 -5 6 16.57 2.79
5 5 -6 17.06 2.7
5 5 -5 192.58 6.18
-5 -5 5 204.02 5.75
5 5 -5 202.72 5.54
5 5 -4 6.4 1.36
-5 -5 4 4.99 1.05
5 5 -4 6.83 1.13
5 5 -3 243.1 9.86
-5 -5 3 264.76 10.13
5 5 -3 248.11 9.17
5 5 -2 62.45 4.96
-5 -5 2 67.66 4.99
5 5 -2 68.54 4.85
5 5 -1 272.05 10.75
-5 -5 1 273.05 10.2
5 5 -1 303.27 10.79
5 5 0 41.55 4.6
-5 -5 0 38.77 4.02
5 5 0 33.95 3.69
5 5 1 0.92 1.04
-5 -5 -1 3.07 0.77
5 5 2 11.75 1.78
-5 -5 -2 11.61 1.6
5 5 3 392.45 14.58
-5 -5 -3 432.95 15.71
5 5 4 673.27 24.03
-5 -5 -4 665.95 23.63
5 5 5 3.43 0.88
-5 -5 -5 1.84 1.04
5 5 6 130.89 5.68
-5 -5 -6 127.62 10.66
5 5 7 69.78 3.59
-5 -5 -7 68.44 7.16
5 5 8 7.51 1.49
-5 -5 -8 10.64 2.48
5 5 9 141.37 6.54
-5 -5 -9 110.59 13.84
-5 -5 -10 15.34 3.33
-5 -5 -11 677.06 168.13
-5 -5 -12 419.87 148.72
-5 -5 -13 35.86 7.18
5 6 -10 19.2 3.23
-5 -6 10 11.94 2.19
5 6 -10 13.49 3.15
5 6 -9 13.77 2.69
-5 -6 9 12.6 2.48
5 6 -9 21.06 4.45
5 6 -8 6.41 2.27
-5 -6 8 8.5 1.86
5 6 -8 7.98 2.06
5 6 -7 10.16 2.61
-5 -6 7 3.89 1.34
5 6 -7 4.22 1.3
-5 -6 6 59.78 8.22
5 6 -6 54.82 7.63
5 6 -5 192.17 8.86
-5 -6 5 176.48 7.68
5 6 -5 163.48 7.58
5 6 -4 119.56 13.98
-5 -6 4 95.69 10.71
5 6 -4 82.15 9.16
5 6 -3 5.97 1.88
-5 -6 3 9.59 1.76
5 6 -3 8.9 1.36
5 6 -2 1470.14 30.69
-5 -6 2 1312.23 26.53
5 6 -2 1199.66 23.36
5 6 -1 118.87 5.78
-5 -6 1 102.78 4.75
5 6 -1 89.15 4.33
5 6 0 49.21 4.73
-5 -6 0 55.24 5.03
5 6 1 210.32 8.91
-5 -6 -1 218.91 8.82
5 6 2 6.97 1.43
-5 -6 -2 13.35 1.72
5 6 3 1.05 0.98
-5 -6 -3 0.71 0.71
5 6 4 297.77 7.85
-5 -6 -4 310.89 8.11
5 6 5 70.39 3.9
-5 -6 -5 71.48 3.97
5 6 6 756.05 47.97
-5 -6 -6 879.32 56.05
5 6 7 54.38 3.24
-5 -6 -7 42.62 7.62
5 6 8 138.36 6.63
-5 -6 -8 134.04 13.82
-5 -6 -9 79.62 11.05
-5 -6 -10 125.01 22.74
-5 -6 -11 21.26 5.21
-5 -6 -12 25.31 5.29
5 7 -9 65.07 5.66
-5 -7 9 69.67 5.33
5 7 -9 52.08 9.7
5 7 -8 27.24 5.07
-5 -7 8 17.72 2.93
5 7 -8 13.16 2.61
5 7 -7 203.08 22.72
-5 -7 7 183.76 20.45
5 7 -7 153.56 21.26
-5 -7 6 10.95 2.04
5 7 -6 6.35 1.93
5 7 -5 4.97 2.4
-5 -7 5 1.53 1.62
5 7 -5 1.03 0.6
5 7 -4 12.34 3.29
-5 -7 4 26.1 4.47
5 7 -3 56.97 8.31
-5 -7 3 51.98 7.3
5 7 -2 267.48 11.61
-5 -7 2 237.62 9.93
5 7 -1 1.24 1.37
-5 -7 1 3.34 1.35
5 7 0 96.13 10.85
-5 -7 0 94.25 10.43
5 7 1 105.05 11.77
-5 -7 -1 109.84 12.08
5 7 2 63.71 7.33
-5 -7 -2 71.61 8.15
5 7 3 42.62 5.44
-5 -7 -3 38.64 4.82
5 7 4 155.14 7.23
-5 -7 -4 169.37 7.73
5 7 5 781.78 32.56
-5 -7 -5 800.7 149.32
5 7 6 42.07 5.99
-5 -7 -6 35.87 5.42
5 7 7 196.42 8.32
-5 -7 -7 236.84 18.27
5 7 8 2.68 1.33
-5 -7 -8 4.04 1.96
-5 -7 -9 40.55 8.91
-5 -7 -10 2.58 1.16
-5 -7 -11 1.37 1.12
5 8 -7 33.78 3.73
-5 -8 7 26.48 2.79
5 8 -6 48.18 29.36
-5 -8 6 71.27 43.24
5 8 -5 33.92 6.1
-5 -8 5 60.85 6.66
5 8 -4 2.46 2.06
-5 -8 4 1.01 0.91
5 8 -3 3.55 1.96
-5 -8 3 4.78 1.66
5 8 -2 108.16 7.75
-5 -8 2 101.96 7.09
5 8 -1 124.9 6.28
-5 -8 1 136.64 6.36
5 8 0 605.66 22.89
-5 -8 0 605.84 22.45
5 8 1 75.73 4.47
-5 -8 -1 69.87 4.17
5 8 2 79.92 4.52
-5 -8 -2 96.76 5
5 8 3 35.35 4.84
-5 -8 -3 33.37 4.44
5 8 4 240.3 15.36
-5 -8 -4 234.65 14.99
5 8 5 2.8 1.77
-5 -8 -5 3.38 1.89
5 8 6 9.16 1.79
-5 -8 -6 11.49 2.14
5 8 7 51.1 5.13
-5 -8 -7 59.55 11.52
5 8 8 32.29 4.77
-5 -8 -8 42.63 26.62
-5 -8 -9 48.38 9.79
5 9 -4 30.04 3.34
-5 -9 4 30.61 3.1
5 9 -3 4.4 2.47
-5 -9 3 2.21 1.7
5 9 -2 105.82 64.1
-5 -9 2 111.15 67.3
-5 -9 1 246.63 21.63
5 9 0 5.69 2.6
-5 -9 0 5.12 2.29
5 9 1 200.46 17.94
-5 -9 -1 201.02 17.84
5 9 2 17.52 3.23
-5 -9 -2 16.92 3.43
5 9 3 10.78 2.84
-5 -9 -3 8.16 2.36
5 9 4 7.89 1.88
-5 -9 -4 9.13 2.12
5 9 5 11.46 2.38
-5 -9 -5 3.95 1.67
5 9 6 61.44 5.94
-5 -9 -6 79.26 6.37
-6 7 0 80.19 12.19
-6 7 -1 41.44 6.46
-6 7 -2 4.93 2.26
-6 6 5 47.25 10.91
-6 6 4 147.44 89.89
-6 6 3 27.86 6.46
-6 6 2 31.16 6.18
-6 6 1 273.8 61.81
-6 6 0 24.39 4.9
-6 6 -1 6.48 2.71
-6 6 -2 2.72 1.77
-6 6 -3 6.72 2.29
-6 6 -5 28.77 7.73
-6 6 -6 2.72 1.74
-6 6 -7 176.92 12.08
-6 5 7 1.61 1.28
-6 5 6 160.17 97.69
-6 5 5 19.35 4.43
-6 5 4 1.22 1.11
-6 5 3 11.16 3.32
-6 5 2 19.76 3.9
-6 5 1 141.29 14.58
-6 5 -1 2.47 1.47
-6 5 -2 49.05 9.42
-6 5 -3 2.02 1.38
6 -5 4 31.32 4.05
-6 5 -5 11.69 2.85
6 -5 5 10.17 2.89
-6 5 -6 75.89 15.98
6 -5 6 78.38 8.93
-6 5 -7 28.95 5.88
6 -5 7 26.3 4.22
-6 5 -8 12.13 3.16
6 -5 8 12.01 2.27
-6 5 -9 23.26 6.68
6 -5 9 41.91 25.47
-6 4 9 17.05 4.87
-6 4 8 12.86 3.53
-6 4 7 198.87 20.18
-6 4 6 63.19 12.02
-6 4 5 18.67 3.89
-6 4 4 4.79 2.31
-6 4 3 1.49 1.06
-6 4 2 53.66 9.17
-6 4 1 27.11 4.81
-6 4 0 17.45 4.11
-6 4 -1 449.19 30.5
-6 4 -2 52.5 8.7
6 -4 2 39.42 4.62
-6 4 -3 12.73 2.52
6 -4 3 15.44 2.06
-6 4 -4 121.81 17.87
6 -4 4 111.35 4.93
-6 4 -5 71.99 12.29
6 -4 5 57.65 7.79
-6 4 -6 44.43 10.36
6 -4 6 52.9 7.26
-6 4 -7 19.23 4.15
6 -4 7 15.78 2.52
-6 4 -8 14.46 4.42
6 -4 8 19.66 2.81
-6 4 -9 20.79 4.93
6 -4 9 32.06 5.06
-6 4 -10 0.45 0.84
6 -4 10 1.56 0.9
6 -4 11 44.16 4.01
6 -3 -10 5.03 2.12
6 -3 -10 5.56 2.44
-6 3 9 14.85 2.86
-6 3 8 29.44 7.27
-6 3 7 1.65 1.25
-6 3 6 28.92 6.3
-6 3 5 87.87 15.76
-6 3 4 107.04 7.27
-6 3 3 2.78 1.2
-6 3 2 30.66 4.2
-6 3 1 66.25 6.99
-6 3 0 79.85 9.31
-6 3 -1 8.85 3.11
6 -3 1 7.7 0.97
-6 3 -2 66.71 9.76
6 -3 2 49.05 2.36
-6 3 -3 114.33 12.88
6 -3 3 83.2 3.71
-6 3 -4 2.57 1.56
6 -3 4 4.75 0.79
-6 3 -5 103.63 11.49
6 -3 5 95.18 10.33
-6 3 -6 174.08 8.11
6 -3 6 199.25 8.22
-6 3 -7 6.48 2.38
6 -3 7 2.72 0.95
-6 3 -8 4.07 1.67
6 -3 8 4.88 1.39
-6 3 -9 27.16 6.4
6 -3 9 29.19 3.8
-6 3 -10 2 1.2
6 -3 10 1.7 1.06
6 -3 11 57.94 5.77
6 -3 12 1.98 1.35
6 -2 -10 1.32 1.66
6 -2 -10 3.13 1.57
6 -2 -9 5.67 2.19
6 -2 -8 16.27 2.53
-6 2 7 1.93 1.41
-6 2 6 31.63 7.36
-6 2 5 237.16 17
-6 2 4 41.46 8.17
-6 2 3 85.46 7.37
-6 2 2 348.88 13.82
-6 2 1 74.48 10.59
-6 2 0 165.74 16.54
-6 2 -1 45.41 8.36
6 -2 1 37.66 2.53
-6 2 -2 52.34 8.9
6 -2 2 49.42 3.45
-6 2 -3 290.06 11.51
6 -2 3 292.31 10.52
-6 2 -4 3.65 0.93
6 -2 4 4.61 0.84
-6 2 -5 285.71 8.16
6 -2 5 282.53 6.59
-6 2 -6 147.26 6.16
6 -2 6 140.71 4.03
-6 2 -7 14.4 4.26
6 -2 7 12.02 1.94
-6 2 -8 52.3 7.04
6 -2 8 52.64 2.91
-6 2 -9 222.61 10.2
6 -2 9 224.3 10.12
-6 2 -10 72.22 9.76
6 -2 10 85.81 6.04
6 -2 11 116.82 13.21
6 -2 12 45.17 27.43
-6 2 -12 48.82 30.37
6 -1 -11 73.59 5.69
6 -1 -11 95.18 7.35
6 -1 -10 92.57 8.95
6 -1 -10 113.38 10.61
6 -1 -9 9.25 2.83
6 -1 -9 4.71 1.74
6 -1 -8 59.27 3.87
6 -1 -7 16.34 3.75
6 -1 -6 131.44 15.09
-6 1 5 42.55 2.95
-6 1 4 18.39 2.75
-6 1 3 2.21 0.8
-6 1 2 25.2 3.26
-6 1 1 386.93 15.44
-6 1 0 493.63 20.68
-6 1 -1 4.5 1.43
-6 1 -2 30.26 6.55
6 -1 2 24.72 2.35
6 -1 2 36.26 3.45
-6 1 -3 1.98 0.76
6 -1 3 0.88 0.33
6 -1 3 0.96 0.42
-6 1 -4 5.9 1.39
6 -1 4 0.63 0.29
6 -1 4 1.83 0.52
-6 1 -5 166.19 7.04
6 -1 5 144.88 5.54
-6 1 -6 47.21 7.77
6 -1 6 33.97 3.1
-6 1 -7 139.16 5.47
6 -1 7 138.6 4.17
-6 1 -8 30.15 4.69
6 -1 8 33.84 3.99
-6 1 -9 237.33 11.52
6 -1 9 274.32 11.21
-6 1 -10 117.87 5.38
6 -1 10 136.6 6.14
6 -1 11 304.25 18.91
-6 1 -11 298.69 18.61
6 -1 12 0.6 0.88
-6 1 -12 1.02 0.93
6 -1 13 4.92 1.91
-6 1 -13 2.74 1.09
6 0 -11 29.73 4.63
6 0 -11 61.66 37.48
6 0 -10 6.67 2.36
6 0 -10 6.69 2.34
6 0 -9 11.78 2.3
6 0 -9 17.77 2.76
6 0 -8 174.77 8.86
6 0 -8 192.28 9.32
6 0 -7 2.12 1.05
6 0 -7 4.51 1.63
6 0 -6 259.8 17.23
6 0 -5 5.97 1.28
6 0 -4 2.45 0.86
6 0 -3 115.34 5.32
-6 0 2 7.25 1.45
-6 0 1 56.28 5.83
-6 0 0 401.73 15.8
-6 0 -1 38.23 5.2
-6 0 -2 73.39 7.03
6 0 3 804.35 29.24
6 0 3 858.53 31.2
-6 0 -4 160.78 7.21
6 0 4 146.08 5.73
6 0 4 160.1 6.25
-6 0 -5 1227.75 97.37
6 0 5 1198.48 41.05
-6 0 -6 341.74 12.86
6 0 6 349.55 12.62
-6 0 -7 186.14 7.65
6 0 7 190.05 7.53
6 0 8 12.36 2.57
6 0 9 0.78 0.53
6 0 9 1.2 0.86
6 0 10 29.59 4.17
6 0 10 25.65 3.79
-6 0 -10 35.06 5.05
6 0 11 118.36 7.99
-6 0 -11 108.71 11.84
6 0 12 14.37 1.87
-6 0 -12 12.86 2.11
6 0 13 195.71 118.38
-6 0 -13 128.18 79.14
6 1 -11 22.3 3.6
6 1 -10 2.02 1.17
6 1 -10 2.47 1.28
6 1 -9 16.57 2.75
6 1 -9 14.75 2.38
6 1 -8 55.47 7.81
6 1 -8 41 5.85
6 1 -7 36.6 4.65
6 1 -7 39.53 4.96
6 1 -6 357.59 9.27
-6 -1 6 310.12 6.68
6 1 -6 367.84 9.29
6 1 -4 2.84 1.01
-6 -1 4 1.04 0.15
6 1 -3 18.06 2.35
6 1 -2 312.93 12.75
6 1 -1 12.07 1.77
6 1 0 318.49 11.6
6 1 1 603.39 20.77
6 1 2 5.48 1.5
6 1 2 2.5 0.32
6 1 2 4.83 0.44
6 1 3 351.66 12.5
6 1 3 337.04 10.97
6 1 3 339.83 11.09
6 1 4 181.45 7.93
6 1 4 147.77 5.85
6 1 4 161.45 6.37
6 1 5 484.45 18.71
6 1 5 433.44 16.3
6 1 6 24.08 2.24
6 1 6 26.35 2.22
6 1 7 3.71 1.07
6 1 7 3.15 0.71
6 1 8 21.76 2.6
6 1 8 18.32 2.31
6 1 9 40.81 5.53
6 1 9 38.01 4.49
6 1 10 273.3 11.64
6 1 10 320 14.08
-6 -1 -10 291.55 12.75
6 1 11 22.62 3.33
-6 -1 -11 14.9 3.24
6 1 12 534.63 132.76
6 1 13 110.52 66.92
-6 -1 -13 59.9 37.58
6 2 -11 3.69 1.69
6 2 -11 6.42 1.66
6 2 -10 1.01 1.12
6 2 -10 1.3 0.95
6 2 -9 62.14 12.81
6 2 -9 77.1 5.7
6 2 -8 23.37 3.72
-6 -2 8 16.71 3.64
6 2 -8 21.29 3.3
6 2 -7 44.56 5.67
-6 -2 7 31.47 3.85
6 2 -7 32.7 4.26
6 2 -6 138.65 5.08
6 2 -6 122.97 5.97
6 2 -5 146.25 5.16
6 2 -5 144.35 4.65
6 2 -4 214.47 8.84
-6 -2 4 227.14 8.24
6 2 -4 201.64 8.08
6 2 -3 465.75 17.29
-6 -2 3 470.49 16.15
6 2 -2 5.21 1.17
-6 -2 2 5.26 0.6
6 2 -1 1187.14 78.61
-6 -2 1 1143 41.33
6 2 -1 1084.2 39.2
6 2 0 405.73 14.27
-6 -2 0 394.2 12.66
6 2 0 435.11 13.87
6 2 1 3.99 1.44
-6 -2 -1 3.87 0.52
6 2 1 2.94 0.41
6 2 2 2.04 1.21
-6 -2 -2 1.88 0.41
6 2 2 1.83 0.53
6 2 3 6.47 1.15
-6 -2 -3 19.1 3.06
6 2 3 8.43 1.12
6 2 3 7.22 1.31
6 2 4 103.99 4.87
-6 -2 -4 113.33 4.88
6 2 5 494.81 17.88
-6 -2 -5 512.15 18.22
6 2 6 88.59 6.4
-6 -2 -6 88.54 6.45
6 2 7 1059.09 37.42
-6 -2 -7 1147.95 40.64
6 2 8 9.16 1.41
-6 -2 -8 8.79 2.22
6 2 9 15.27 2.39
-6 -2 -9 14.86 3.96
6 2 10 1.53 0.88
-6 -2 -10 2.2 1.36
6 2 11 249.26 10.21
-6 -2 -11 213.18 8.42
6 2 12 39.75 3.66
-6 -2 -12 26.38 5.49
6 2 13 4.79 1.81
6 3 -11 5.42 1.76
6 3 -11 3.7 1.47
6 3 -10 57.55 6.02
6 3 -10 61.09 6.21
6 3 -9 1.6 1.13
-6 -3 9 4.72 1.82
6 3 -9 2.68 1.33
6 3 -8 174.7 7.74
-6 -3 8 142.99 6.05
6 3 -8 153.46 6.91
6 3 -7 2.5 1.31
-6 -3 7 0.97 0.74
6 3 -7 2.6 1.38
6 3 -6 207.79 14.21
-6 -3 6 166.08 10.83
6 3 -6 237.47 15.69
6 3 -5 80.37 4.61
6 3 -5 77.37 4.05
6 3 -4 15.3 2.08
-6 -3 4 13.02 1.4
6 3 -4 12.1 1.49
6 3 -3 335.98 12.9
-6 -3 3 301.96 10.71
6 3 -3 318.29 11.74
6 3 -2 509.47 18.77
-6 -3 2 473.17 16.46
6 3 -2 478.59 17.01
6 3 -1 295.21 12.11
-6 -3 1 269.16 10.18
6 3 -1 253.05 9.61
6 3 -1 266.93 10.32
6 3 0 64.35 6.66
-6 -3 0 54.28 5.26
6 3 0 54.51 5.32
6 3 1 168.87 7.52
-6 -3 -1 156.23 6.43
6 3 1 160.24 6.31
6 3 2 94.83 7.06
-6 -3 -2 76.22 8.72
6 3 2 84.12 5.9
6 3 2 71.22 7
6 3 3 15.15 1.97
-6 -3 -3 18.54 2.96
6 3 3 11.14 2.04
6 3 4 260.84 10.06
-6 -3 -4 265.81 10.1
6 3 4 236.43 8.55
6 3 5 6.82 1.07
-6 -3 -5 6.38 1.13
6 3 6 1232.33 43.47
-6 -3 -6 1293.15 127.38
6 3 7 190.07 5.69
-6 -3 -7 3526.05 483.47
6 3 8 275.3 17.78
-6 -3 -8 276.55 18.31
6 3 9 15.57 2.17
-6 -3 -9 4.04 1.21
-6 -3 -10 68.73 13.16
-6 -3 -11 24.25 5.29
-6 -3 -12 0.42 1.16
6 3 13 30.66 4.51
6 4 -10 70 42.44
6 4 -10 58.52 35.5
6 4 -9 35.17 3.54
-6 -4 9 25.81 2.92
6 4 -9 26.19 2.65
6 4 -8 16.33 2.63
-6 -4 8 14.65 2.32
6 4 -8 19.13 2.86
6 4 -7 919.02 171.49
-6 -4 7 677.73 27.91
6 4 -7 805.56 150.2
6 4 -6 149.21 7.32
6 4 -6 158.01 7.09
6 4 -5 55.29 6.53
-6 -4 5 42.1 4.84
6 4 -5 45.03 5.25
6 4 -4 53.17 3.74
-6 -4 4 37.96 2.45
6 4 -4 40.88 2.48
6 4 -3 77.8 7.02
-6 -4 3 58.08 4.98
6 4 -3 68.47 5.86
6 4 -2 15.8 2.07
-6 -4 2 16.03 1.75
6 4 -2 12.39 1.43
6 4 -1 499.32 18.51
-6 -4 1 513.2 18.06
6 4 -1 499 17.56
6 4 0 376.2 14.33
-6 -4 0 358.65 12.89
6 4 0 335.18 11.9
6 4 1 1075.51 37.81
-6 -4 -1 1163.14 39.98
6 4 1 1076.85 36.7
6 4 2 7 1.67
-6 -4 -2 4.35 0.87
6 4 2 6.56 0.64
6 4 3 260.56 10.22
-6 -4 -3 330.56 13.44
6 4 3 265.19 9.07
6 4 4 70.23 6.19
-6 -4 -4 68.85 9.39
6 4 5 261.56 10.26
-6 -4 -5 217.65 10.13
6 4 6 22.18 1.94
-6 -4 -6 21.75 3.28
6 4 7 6.02 1.21
-6 -4 -7 3.26 1.62
6 4 8 78.35 3.89
-6 -4 -8 68.14 8.09
6 4 9 18.87 4.05
-6 -4 -9 20.53 5.72
-6 -4 -10 246.4 21.21
-6 -4 -11 2.16 1.06
-6 -4 -12 51.56 10.95
-6 -4 -13 138.06 19.33
6 5 -10 15.38 3.3
6 5 -10 18.6 2.36
6 5 -9 47.84 5.03
-6 -5 9 39.72 4.11
6 5 -9 34.81 5.86
6 5 -8 11.91 2.03
-6 -5 8 6.7 2.3
6 5 -8 12.77 1.94
6 5 -7 149.11 10.02
6 5 -7 135.1 8.96
6 5 -6 60.48 8.46
-6 -5 6 36.27 5.24
6 5 -6 50.85 7.03
6 5 -5 92.03 5.16
-6 -5 5 83.37 4.3
6 5 -5 74.97 3.84
6 5 -4 45.2 5.56
-6 -5 4 46.28 5.64
6 5 -4 40.31 4.63
6 5 -3 86.09 9.88
-6 -5 3 61.12 6.91
6 5 -3 65.31 7.22
6 5 -2 3.25 1.3
-6 -5 2 1.1 1.09
6 5 -2 2.69 0.72
6 5 -1 22.4 2.21
-6 -5 1 22.72 2.04
6 5 -1 23.45 1.36
6 5 0 1847.92 249.87
-6 -5 0 1813.23 35.73
6 5 1 10.71 1.76
-6 -5 -1 6.6 1.23
6 5 2 192.52 8.25
-6 -5 -2 172.29 7.05
6 5 3 14.27 2.05
-6 -5 -3 5.02 1.44
6 5 4 140.71 4.94
-6 -5 -4 142.84 12.67
6 5 5 29.29 3.64
-6 -5 -5 29.84 4.75
6 5 6 1.03 0.82
-6 -5 -6 3.05 0.92
6 5 7 148.2 6.6
-6 -5 -7 122.92 12.44
6 5 8 389.47 16.62
-6 -5 -8 374.69 17.15
6 5 9 2.41 1.2
-6 -5 -9 4.26 1.84
-6 -5 -10 40.14 7.07
-6 -5 -11 432.1 95.98
-6 -5 -12 17.03 4.22
6 6 -9 7.81 2.72
-6 -6 9 4.57 1.84
6 6 -9 5.93 2.18
6 6 -8 2.81 2.23
-6 -6 8 4.11 1.88
6 6 -8 5.05 1.92
6 6 -7 31.71 3.5
6 6 -7 34.79 3.36
-6 -6 6 242.67 15.23
6 6 -6 259.3 16.17
6 6 -5 655.57 24.64
-6 -6 5 696.8 159.03
6 6 -5 702.73 160.35
6 6 -4 19.59 4.61
-6 -6 4 18.53 4.12
6 6 -4 23.94 3.66
6 6 -3 267.47 12.56
-6 -6 3 209.52 9.36
6 6 -2 36.17 4.81
-6 -6 2 33.86 4.3
6 6 -1 92.42 10.46
-6 -6 1 87.24 9.61
6 6 0 1.76 1.47
-6 -6 0 3.78 1.38
6 6 1 3.76 1.25
-6 -6 -1 2.11 1.33
6 6 2 270.5 17.92
-6 -6 -2 261.75 17.19
6 6 3 15.82 2.71
-6 -6 -3 19.84 2.78
6 6 4 120.66 5.89
-6 -6 -4 113.93 5.49
6 6 5 0.5 0.9
-6 -6 -5 0.39 0.94
6 6 6 314.57 13.84
-6 -6 -6 344.17 15.24
6 6 7 90.31 4.61
-6 -6 -7 88.21 10.74
6 6 8 37.02 4.73
-6 -6 -8 28.75 6.25
-6 -6 -9 2.43 1.86
-6 -6 -10 33.51 6.45
-6 -6 -11 6.55 1.83
6 7 -7 38.72 23.61
-6 -7 6 221.9 19.53
6 7 -5 2.1 2.03
-6 -7 5 1.99 1.37
6 7 -4 89.06 6.89
-6 -7 4 72.38 5.34
6 7 -3 23.09 3.77
-6 -7 3 20.89 3.19
6 7 -2 35.65 4.83
-6 -7 2 34.37 4.51
6 7 -1 32.97 4.57
-6 -7 1 27.15 3.84
6 7 0 107.28 6.12
-6 -7 0 95.27 12.82
6 7 1 67.19 9.34
-6 -7 -1 62.41 8.58
6 7 2 414.5 18.13
-6 -7 -2 435.45 18.71
6 7 3 104.57 5.26
-6 -7 -3 95.71 4.9
6 7 4 5.89 2.23
-6 -7 -4 12.34 2.22
6 7 5 182.46 11.83
-6 -7 -5 179.21 11.57
6 7 6 60.67 4.67
-6 -7 -6 76.82 9.73
6 7 7 41.29 3.82
-6 -7 -7 43.84 6.07
6 7 8 6.27 1.95
-6 -7 -8 8.54 2.68
-6 -7 -9 2.39 1.23
-6 -7 -10 54.65 10.08
6 8 -5 0.79 1.81
-6 -8 5 1.34 1.04
6 8 -4 88.91 53.95
-6 -8 4 69.3 42.01
6 8 -3 10.26 2.68
-6 -8 3 10.67 2.38
6 8 -2 70.65 7.2
-6 -8 2 70.9 7
6 8 -1 8 1.81
-6 -8 1 2.49 1.31
6 8 0 368.84 40.61
-6 -8 0 361.17 39.6
6 8 1 46.4 11.92
-6 -8 -1 46.66 11.88
6 8 2 70.46 8.44
-6 -8 -2 58.21 6.98
6 8 3 3.7 2.13
-6 -8 -3 1.31 0.97
6 8 4 5.34 1.95
-6 -8 -4 9.93 2.28
6 8 5 4.17 2.17
-6 -8 -5 1.36 0.93
6 8 6 6.9 2.04
-6 -8 -6 3.42 1.18
6 8 7 9.23 2.09
-6 -8 -7 7.72 2.02
-6 -8 -8 13.4 3.71
6 9 -2 13.74 3.23
-6 -9 2 23.85 2.82
6 9 -1 16.17 3.57
-6 -9 1 19.89 2.43
6 9 0 4.05 2.44
-6 -9 0 4.08 1.76
6 9 1 15.63 2.88
-6 -9 -1 17.72 3
6 9 2 9.37 2.35
-6 -9 -2 12.6 2.74
6 9 3 15.35 3.23
-6 -9 -3 13 2.75
6 9 4 58.8 4.81
-6 -9 -4 82.48 6.62
-7 6 -1 20.05 6.36
-7 5 4 2.53 1.26
-7 5 3 0.46 0.96
-7 5 2 22.64 4.81
-7 5 1 11.34 3.73
-7 5 0 105.93 13.19
-7 5 -1 59.37 9.67
-7 5 -2 3.45 1.79
-7 5 -3 6.76 2.53
-7 5 -4 13.91 3.85
-7 5 -5 9.32 2.66
-7 5 -6 141 85.54
-7 5 -7 0.79 1.81
-7 4 6 1.81 1.59
-7 4 5 40.59 25.16
-7 4 4 1.73 1.06
-7 4 3 4.13 2.47
-7 4 2 43.02 7.78
-7 4 1 1.36 1.08
-7 4 0 46.38 8.55
-7 4 -1 98.65 14.99
-7 4 -2 39.56 9.34
-7 4 -3 11.6 2.44
-7 4 -4 232.28 15.09
-7 4 -5 47.85 10.21
-7 4 -6 51.09 12.75
-7 4 -7 58.64 10.89
-7 4 -8 20.96 4.99
-7 4 -9 8.12 2.56
-7 3 8 1.85 1.37
-7 3 7 2.76 1.35
-7 3 6 113.67 15.11
-7 3 5 70.21 14.14
-7 3 4 1.32 1.6
-7 3 3 4.53 1.72
-7 3 2 1.38 0.98
-7 3 1 64.57 12.07
-7 3 0 87.19 14.68
-7 3 -1 21.3 5.28
-7 3 -2 345.42 15.61
-7 3 -3 6.38 2.29
-7 3 -4 192.25 9.43
-7 3 -5 118.4 18.56
-7 3 -6 186.54 12.2
-7 3 -7 0.68 1.38
-7 3 -8 2.17 1.74
-7 3 -9 18.1 4.17
-7 3 -10 -1.04 1.28
7 -2 -9 6.18 1.91
7 -2 -9 3.63 1.3
7 -2 -8 20.31 3.48
7 -2 -7 6.63 2.03
-7 2 6 46.71 11.97
-7 2 5 147.4 12.49
-7 2 4 22.28 5.68
-7 2 3 14.18 4.66
-7 2 2 396.65 16.65
-7 2 1 72.46 7.52
-7 2 0 450.11 29.32
-7 2 -1 272.5 18.18
-7 2 -2 45.21 7.97
-7 2 -3 1.62 1.16
-7 2 -4 14.19 3.67
-7 2 -5 122.53 17.76
-7 2 -6 335.35 15.02
-7 2 -7 17.81 4.77
-7 2 -8 202.76 13.21
-7 2 -9 0.72 0.96
7 -2 9 2.68 0.98
-7 2 -10 2.25 1.47
7 -2 10 5.55 1.81
7 -2 11 2.38 1.03
7 -1 -9 -0.38 1.01
7 -1 -9 2.14 2.26
7 -1 -8 9.66 2.27
7 -1 -7 131 14.93
7 -1 -6 5.51 2.18
7 -1 -5 152.75 7.74
-7 1 4 547.95 21.78
-7 1 3 3.38 1.8
-7 1 2 257.48 17.2
-7 1 1 116.39 15.78
-7 1 0 84.39 5.61
-7 1 -1 0.43 1.09
-7 1 -2 14.11 2.82
-7 1 -4 5.33 1.87
-7 1 -5 431.63 27.95
-7 1 -6 38.66 6.96
7 -1 6 37.05 4.39
-7 1 -7 759.47 32.1
7 -1 7 748.11 30.52
-7 1 -8 64.91 8.34
7 -1 8 74.58 3.72
-7 1 -9 155.53 11.04
7 -1 9 160.84 10.29
-7 1 -10 11.36 2.32
7 -1 10 6.28 2.01
7 -1 11 35.63 21.65
7 -1 12 45.75 4.03
7 0 -10 28.14 2.8
7 0 -10 35.64 3.57
7 0 -9 49.39 30
7 0 -9 53.06 32.23
7 0 -8 116.78 13.33
7 0 -8 112.12 12.91
7 0 -7 31.04 4.37
7 0 -7 23.52 3.32
7 0 -6 450.75 17.54
7 0 -4 9.22 1.77
7 0 -3 5.14 2.02
7 0 -2 3.6 1.66
7 0 -1 304.44 8.47
-7 0 0 577.31 13.78
-7 0 -1 137.69 5
-7 0 -2 1064.3 22.94
-7 0 -3 48.7 3.36
-7 0 -4 33.4 2.58
-7 0 -5 12.32 2.24
7 0 5 8.25 1.37
-7 0 -6 167.97 11.44
7 0 6 169.7 11.03
7 0 7 110.79 5.28
7 0 7 117.93 5.15
7 0 8 3.3 1.3
7 0 8 5.11 1.6
7 0 9 85.43 4.25
7 0 9 98.59 4.66
7 0 10 0.01 0.78
7 0 11 42.1 4.33
7 0 12 3.16 1.35
7 1 -10 96.31 6.84
7 1 -10 99.5 7.31
7 1 -9 9.79 2.43
7 1 -9 4.87 2.06
7 1 -8 51.93 6.44
7 1 -8 40.18 3.69
7 1 -7 62.13 4.91
7 1 -7 64.79 5.09
7 1 -6 188.89 9.22
7 1 -6 164.45 8.08
7 1 -4 103.5 11.64
7 1 -3 53.9 6.45
7 1 -2 15.22 2.45
7 1 -1 325.02 8.96
7 1 0 1.64 1.29
7 1 1 1272.72 125.56
7 1 2 32.09 3.36
7 1 3 272.62 11.05
7 1 4 5 1.31
7 1 4 3.48 0.58
7 1 5 223.71 6.64
7 1 5 206.85 4.99
7 1 6 53.96 6.24
7 1 6 48.01 6.23
7 1 7 52.21 3.14
7 1 7 48.8 2.69
7 1 8 26.13 3.85
7 1 8 28.66 4.13
7 1 9 323.43 12.32
7 1 9 347.39 13.24
7 1 10 17.68 2.63
7 1 11 39.71 5.63
7 1 12 177.71 107.49
7 2 -10 9.71 2.57
7 2 -9 8.22 2.01
7 2 -9 5.14 1.85
7 2 -8 16.21 2.4
7 2 -8 9.45 1.7
7 2 -7 42.27 5.6
7 2 -7 37.16 4.84
7 2 -6 170.78 8.67
7 2 -6 162.9 7.82
7 2 -5 156.86 7.87
7 2 -5 161.61 7.69
7 2 -4 987.41 109.84
7 2 -4 961.67 60.76
7 2 -3 11.02 2.49
7 2 -2 68.94 4.17
7 2 -1 36.36 2.62
7 2 0 160.7 7.15
7 2 1 120.25 5.73
7 2 2 4.88 1.18
7 2 2 1.08 0.39
7 2 3 231.91 6.84
7 2 4 30.03 2.31
7 2 5 128.44 17.75
7 2 6 2.34 0.94
7 2 6 1.06 0.54
7 2 7 187.25 7.97
7 2 7 171.36 7.21
7 2 8 145.29 6.86
7 2 8 148 7.06
7 2 9 1.55 1.02
7 2 9 4.46 1.61
7 2 10 2.69 1.26
7 2 11 11.3 2.23
7 2 12 25.96 3.89
7 3 -9 14.87 2.83
7 3 -9 12.46 2.28
7 3 -8 2.39 1.36
7 3 -8 3.29 1.53
7 3 -7 84.15 6.71
7 3 -7 80.32 5.86
7 3 -6 40.87 5.65
7 3 -6 31.05 4.13
7 3 -5 553.03 23.7
7 3 -5 610.54 25.57
7 3 -4 22.55 3.29
7 3 -4 27.39 3.53
7 3 -3 95.24 10.76
7 3 -3 90.98 10
7 3 -2 11.28 2.72
7 3 -2 6.11 1.3
7 3 -1 276.42 8.07
7 3 0 6.03 1.34
-7 -3 0 6.08 1.16
7 3 1 12.43 2.11
7 3 2 183.16 6.02
-7 -3 -2 163.04 4.11
7 3 3 791.31 17.61
-7 -3 -3 714.47 14.64
7 3 4 45.79 3.07
7 3 5 21.48 2.92
-7 -3 -5 25.84 4.19
7 3 6 272.85 17.79
-7 -3 -6 290.81 18.89
7 3 7 79.71 10.71
-7 -3 -7 79.58 12.75
7 3 8 64.36 12.24
-7 -3 -8 53.22 10.34
7 3 9 2.83 1.24
-7 -3 -9 0.22 0.81
-7 -3 -10 4.68 1.97
7 3 12 6.4 2.13
7 4 -9 9.06 2.5
7 4 -9 14.81 3.12
7 4 -8 43.04 5.07
7 4 -8 39.53 4.35
7 4 -7 5.1 2.02
7 4 -7 4.61 1.88
7 4 -6 51.9 13.65
7 4 -6 41.22 5.18
7 4 -5 20.79 3.25
7 4 -5 15.13 2.24
7 4 -4 3.48 1.61
7 4 -4 2.48 1.08
7 4 -3 205.99 9.6
7 4 -3 209.93 8.72
7 4 -2 139.6 10.15
-7 -4 2 102.18 11.02
7 4 -2 107.15 11.61
7 4 -1 188.64 13.05
7 4 -1 167.82 10.96
7 4 0 6.93 2.25
-7 -4 0 2.9 0.68
7 4 0 4.73 0.93
7 4 1 359.88 23.64
-7 -4 -1 306.6 19.94
7 4 2 46.32 5.69
7 4 3 24.37 3.54
7 4 4 4.87 1.65
-7 -4 -4 1.52 0.84
7 4 5 24.35 3.32
-7 -4 -5 19.84 3.31
7 4 6 44.45 6.26
-7 -4 -6 42.66 7.98
7 4 7 1.18 0.81
-7 -4 -7 0.84 0.63
7 4 8 12.14 2.04
-7 -4 -8 27.19 4.65
7 4 9 11.38 1.88
-7 -4 -9 15.11 2.81
-7 -4 -10 23.86 5.75
-7 -4 -11 13.98 4.33
7 5 -8 5.02 2.46
7 5 -7 50.6 5.48
7 5 -7 65.53 6.23
7 5 -6 1.63 1.03
7 5 -5 4.28 1.92
7 5 -5 6.22 1.74
7 5 -4 233.73 10.53
7 5 -4 190.8 7.69
7 5 -3 330.69 15.5
-7 -5 3 224.59 9.8
7 5 -2 46.36 6.73
-7 -5 2 32.44 4.6
7 5 -1 8.93 2.02
-7 -5 1 2.37 1.05
7 5 0 183.08 8.59
-7 -5 0 181.44 7.61
7 5 1 181.35 8.46
7 5 2 141.33 6.92
7 5 3 1.58 1.09
-7 -5 -3 2.23 1.14
7 5 4 5.03 2.07
-7 -5 -4 1.86 1.07
7 5 5 211.96 9.89
-7 -5 -5 214.18 9.88
7 5 6 0.87 1.05
-7 -5 -6 -0.24 0.8
7 5 7 15.33 2.31
-7 -5 -7 13.44 2.45
7 5 8 83.38 9.5
-7 -5 -8 85.01 12.67
-7 -5 -9 0.6 0.56
-7 -5 -10 25.19 5.11
-7 -5 -11 35.95 6.28
7 6 -7 57.59 4.98
7 6 -5 152.3 14.06
7 6 -4 9.74 1.94
-7 -6 4 10.2 1.46
7 6 -3 13.08 2.71
-7 -6 3 9.63 2.92
7 6 -2 6.5 2.12
-7 -6 2 0.76 0.91
7 6 -1 1.33 1.24
-7 -6 1 0.23 0.95
7 6 0 7.57 2.28
7 6 1 4.03 2.15
-7 -6 -1 0.84 0.92
7 6 2 40.03 5.24
-7 -6 -2 38.79 4.98
7 6 3 30.34 4.1
-7 -6 -3 25.95 3.47
7 6 4 3.22 1.93
-7 -6 -4 1.08 1.09
7 6 5 7.61 2.27
-7 -6 -5 6.67 2.11
7 6 6 38.77 5.08
-7 -6 -6 40.56 7.13
7 6 7 13.7 1.78
-7 -6 -7 16.81 2.94
7 6 8 4 1.44
-7 -6 -8 2.23 1.13
-7 -6 -9 3.02 1.88
7 7 -5 7.47 2.44
7 7 -4 70.9 43.04
-7 -7 4 58.25 35.35
7 7 -3 3.82 1.98
-7 -7 3 1.44 1.1
7 7 -2 3.5 1.89
-7 -7 2 1.38 1.1
7 7 -1 65.28 7.87
-7 -7 1 63.79 7.53
7 7 0 0.54 1.1
7 7 1 31.46 3.37
-7 -7 -1 29.68 3.2
7 7 2 99.1 11.47
-7 -7 -2 74.81 8.68
7 7 3 10.15 1.79
-7 -7 -3 7.96 1.87
7 7 4 24.35 2.65
-7 -7 -4 19.65 2.38
7 7 5 61.98 6.08
-7 -7 -5 63.72 8.49
7 7 6 5.38 2.15
-7 -7 -6 3.05 1.52
7 7 7 318.19 192.37
-7 -7 -7 281.4 170.14
7 7 8 -0.71 1.07
-7 -7 -8 1.05 0.86
7 8 -3 32.37 3.71
-7 -8 3 31.54 3.19
7 8 -2 2.6 1.31
-7 -8 2 0.73 1.33
7 8 -1 3.23 1.53
7 8 0 11.6 2.5
7 8 1 9.17 2.04
-7 -8 -1 6.99 2.19
7 8 2 59.56 36.15
-7 -8 -2 66.95 40.61
7 8 3 1.75 1.42
-7 -8 -3 2.86 1.82
7 8 4 18.57 3.35
-7 -8 -4 9.45 1.88
7 8 5 3.1 1.94
-7 -8 -5 -0.13 0.92
-8 4 2 10.01 2.55
-8 4 1 0.49 1.44
-8 4 0 71.42 44.8
-8 4 -1 169.52 105.2
-8 4 -2 0.55 1.27
-8 4 -3 68.44 43.97
-8 4 -4 10.59 2.47
-8 4 -5 16.55 3.44
-8 3 5 35.69 9.45
-8 3 4 4.16 1.8
-8 3 3 2.95 1.49
-8 3 2 22.66 5.51
-8 3 1 30.64 6.27
-8 3 0 221.05 34.41
-8 3 -1 2.31 1.94
-8 3 -2 369.53 40.74
-8 3 -4 140.15 18.86
-8 3 -5 8.65 3.01
-8 3 -6 13.73 3.5
-8 3 -7 41.69 11.47
8 -2 -6 101.48 7.71
-8 2 5 182.09 110.17
-8 2 4 29.41 4.96
-8 2 3 450.8 112.07
-8 2 2 10 3.03
-8 2 1 6.95 2.33
-8 2 0 1.72 1.52
-8 2 -1 158.91 10.85
-8 2 -2 158.5 19.22
-8 2 -4 60.03 10.96
-8 2 -5 2.97 1.54
-8 2 -6 4.72 2.1
-8 2 -7 1.24 2.16
-8 2 -8 27.4 8.58
-8 2 -9 38.31 8.68
8 -1 -7 18.74 3.43
8 -1 -6 92.09 55.83
8 -1 -5 3.4 1.83
8 -1 -4 317.52 35.07
-8 1 2 143.38 9.84
-8 1 1 6.96 2.03
-8 1 0 108.54 13.55
-8 1 -1 12.73 3.52
-8 1 -2 126.75 15.59
-8 1 -3 68.21 12.86
-8 1 -4 243.27 10.37
-8 1 -5 23.72 4.52
-8 1 -6 86.88 13.35
-8 1 -7 261.48 28.91
-8 1 -8 38.99 9.06
-8 1 -9 0.89 1.55
8 0 -7 25.75 4.35
8 0 -7 18.18 3.63
8 0 -6 35.02 6.11
8 0 -4 151.52 10.4
8 0 -3 2.8 2.44
8 0 -2 152.99 7.62
8 0 -1 65.42 9.12
8 0 0 55.46 7.82
8 0 1 15.17 3.61
8 0 2 103.76 5.86
8 0 3 153.76 7.72
8 0 4 1.33 0.91
8 0 5 5.36 1.81
8 0 6 18.44 2.81
8 0 7 44.21 5.67
8 0 8 14.23 2.34
8 0 9 12.18 2.37
8 1 -8 39.15 4.09
8 1 -8 41.24 3.78
8 1 -7 4.65 2.38
8 1 -7 1.41 1.13
8 1 -6 24.23 4.28
8 1 -6 26.04 4.32
8 1 -4 12.98 2.49
8 1 -3 88.81 5.34
8 1 -2 375.39 16.96
8 1 -1 51 7.49
8 1 0 20.6 4.47
8 1 1 346.29 15.75
8 1 2 124.92 6.7
8 1 3 68.83 9.51
8 1 4 57.1 8.02
8 1 5 5.06 2.19
8 1 6 33.95 4.54
8 1 7 2.53 1.35
8 1 8 3.41 1.5
8 1 9 144.84 12.84
8 2 -8 185.97 12.64
8 2 -8 187.11 12.35
8 2 -7 8.97 2.65
8 2 -7 13.85 2.47
8 2 -6 14.8 3.33
8 2 -6 12.41 2.48
8 2 -5 1.34 1.4
8 2 -5 0.37 0.95
8 2 -4 133.11 9.26
8 2 -4 151.18 9.84
8 2 -3 21.84 3.55
8 2 -2 5.5 1.85
8 2 -1 5.83 1.74
8 2 0 28.9 4.54
8 2 1 14.71 3.54
8 2 2 3.53 1.42
8 2 3 47.67 6.77
8 2 4 3.27 1.28
8 2 5 63.3 8.74
8 2 6 46.62 5.85
8 2 7 25.13 3.34
8 2 8 25.17 2.45
8 2 9 2.43 1.26
8 3 -7 8.49 2.36
8 3 -7 7.7 1.83
8 3 -6 5.09 2.07
8 3 -6 8.9 1.84
8 3 -5 222.47 24.85
8 3 -5 217.98 24.08
8 3 -4 34.88 5.07
8 3 -4 36.84 4.68
8 3 -3 36.24 5.29
8 3 -3 35 4.49
8 3 -2 4.05 2.35
8 3 -2 0.84 0.77
8 3 -1 4.37 1.52
8 3 0 242.47 11.54
8 3 1 4.56 2.11
8 3 2 28.09 4.37
8 3 3 128.87 6.75
8 3 4 5.15 2.05
8 3 5 44.2 5.73
8 3 6 231.31 14.62
8 3 7 0.97 0.89
8 3 8 96.03 10.99
8 4 -7 2.19 1.59
8 4 -7 3.75 1.61
8 4 -6 13.79 2.86
8 4 -6 10.33 2.04
8 4 -5 3.7 2.81
8 4 -5 2.07 1.03
8 4 -4 8.96 2.38
8 4 -4 12.95 1.53
8 4 -3 24.25 4.16
8 4 -3 19.89 2.77
8 4 -2 11.75 2.31
8 4 -1 1.54 1.28
8 4 0 29.77 4.22
8 4 1 38.07 5.16
8 4 2 41.49 5.55
8 4 3 8.77 2.24
8 4 4 6.68 2.39
8 4 5 24.1 3.5
8 4 6 4.67 1.77
8 4 7 214.4 23.71
8 4 8 74.36 6.99
-8 -4 -8 54.28 10.97
-8 -4 -9 3.54 1.86
-8 -4 -10 0.18 0.75
8 5 -5 2.1 2.4
8 5 -4 7.23 2.43
8 5 -3 129.44 14.94
8 5 -2 1.88 1.3
8 5 -1 3.45 1.46
8 5 0 112.02 7.97
8 5 1 14.45 2.92
8 5 2 391.38 100.41
8 5 4 16.97 2.84
8 5 5 9.6 2.09
8 5 6 61.68 6.08
-8 -5 -6 44.3 8.95
8 5 7 26.94 4.41
-8 -5 -7 16.73 4.52
8 5 8 57.57 34.91
-8 -5 -8 920.82 227.82
-8 -5 -9 43.43 10.12
8 6 -4 38.6 4.17
8 6 -3 15.23 2.93
8 6 -2 7.43 1.9
8 6 -1 28.99 5.02
8 6 0 2.42 1.41
8 6 1 130.81 15.06
8 6 2 82.64 9.76
8 6 3 3.58 1.6
8 6 4 1.42 1.09
8 6 5 4.68 1.74
-8 -6 -5 7.61 2.34
8 6 6 45.47 27.62
-8 -6 -6 37.07 23.27
8 6 7 16.92 2.13
-8 -6 -7 8.38 2.73
8 7 -2 10.67 2.48
8 7 -1 57.87 5.1
8 7 0 27.71 4.6
8 7 1 28.02 4.31
8 7 2 5.84 1.61
8 7 3 143.59 86.91
8 7 4 114.75 8.13
8 7 5 98.38 7.17
-8 -7 -5 65 8.25
-9 2 2 78.95 6.31
-9 2 1 3.19 1.44
-9 2 0 3.95 1.88
-9 2 -1 15.36 4.24
-9 2 -2 17.49 6.71
-9 2 -3 37.19 23.12
-9 2 -4 2.81 1.36
-9 2 -5 3.4 2.1
9 -1 -3 13.76 3.36
9 -1 -2 9.45 2.78
9 -1 -1 18.68 3.42
-9 1 -1 12.25 3.04
-9 1 -2 7.75 3.05
-9 1 -3 3 1.74
-9 1 -4 101.01 61.21
-9 1 -5 3.19 1.86
9 0 -4 -0.17 1.82
9 0 -3 1.4 1.75
9 0 -2 15.81 3.39
9 0 -1 3.69 1.81
9 0 0 39.69 4.48
9 0 1 30.1 5.52
9 0 2 19.82 3.69
9 0 3 42.73 4.79
9 0 4 5.2 2.07
9 0 5 82.29 8.86
9 0 6 67.35 40.85
9 0 7 12.92 2.88
9 1 -5 46.47 3.94
9 1 -4 6.32 2.91
9 1 -3 16.76 3.58
9 1 -2 129.65 12.41
9 1 -1 20.59 3.73
9 1 0 4.81 1.81
9 1 1 192.52 21.63
9 1 2 5.89 2.24
9 1 3 114.65 13.21
9 1 4 2.99 1.38
9 1 5 29.62 4.92
9 1 6 11.47 2.47
9 1 7 19.89 3.19
9 1 8 165.52 11.02
9 2 -5 32.15 3.76
9 2 -5 29.36 3.18
9 2 -4 14.74 3.04
9 2 -4 7.6 1.7
9 2 -3 32.65 5.25
9 2 -2 9.01 2.33
9 2 -1 2.38 1.26
9 2 0 39.03 3.81
9 2 1 9 1.99
9 2 2 307.35 33.92
9 2 3 125.9 14.33
9 2 4 4.98 1.79
9 2 5 2.02 1.36
9 2 6 1.05 0.96
9 2 7 4.1 1.64
9 2 8 85.95 6.32
9 3 -4 17.61 2.68
9 3 -4 12.51 2.7
9 3 -3 218.76 132.35
9 3 -2 3.82 2.33
9 3 -1 12.77 2.62
9 3 0 18.48 3.47
9 3 1 16.86 2.71
9 3 2 79.63 9.5
9 3 3 70.83 7.07
9 3 4 68.78 6.88
9 3 5 61.02 6.29
9 3 6 85.62 51.88
9 3 7 56.6 34.34
9 3 8 79.04 5.86
9 4 -4 53.37 4.84
9 4 -3 161.23 11.69
9 4 -2 16.36 3.14
9 4 -1 0.81 1.1
9 4 0 2.55 1.43
9 4 1 57.16 5.99
9 4 2 51.08 5.42
9 4 3 42.55 5.21
9 4 4 322.29 71.35
9 4 5 12.48 2.57
9 4 6 90.81 55.01
9 4 7 83.54 6.2
9 5 -2 155.53 10.78
9 5 -1 98.67 59.79
9 5 0 107.98 65.43
9 5 1 25.84 4.11
9 5 2 220.62 133.45
9 5 3 150.6 91.15
9 5 4 7.84 1.77
9 5 5 6.21 1.87
