#------------------------------------------------------------------------------
#$Date: 2019-10-28 11:05:08 +0200 (Mon, 28 Oct 2019) $
#$Revision: 219966 $
#$URL: file:///home/coder/svn-repositories/cod/cif/4/51/48/4514805.cif $
#------------------------------------------------------------------------------
#
# This file is available in the Crystallography Open Database (COD),
# http://www.crystallography.net/
#
# All data on this site have been placed in the public domain by the
# contributors.
#
data_4514805
loop_
_publ_author_name
'Yang, Shiping'
'Cheng, Rui'
'Zhang, Min'
'Bin, Zhengyang'
'You, Jingsong'
_publ_section_title
;
 Rh/Ag-Mediated Peri-Selective Heteroarylation/Single Electron Transfer
 Annulation Cascade of 1-(Methylthio)naphthalenes and Analogues: Road Less
 Traveled to Benzo[de]thioacenes
;
_journal_issue                   7
_journal_name_full               'ACS Catalysis'
_journal_page_first              6188
_journal_paper_doi               10.1021/acscatal.9b01426
_journal_volume                  9
_journal_year                    2019
_chemical_formula_moiety         'C19 H14 S2'
_chemical_formula_sum            'C19 H14 S2'
_chemical_formula_weight         306.42
_space_group_crystal_system      triclinic
_space_group_IT_number           2
_space_group_name_Hall           '-P 1'
_space_group_name_H-M_alt        'P -1'
_symmetry_space_group_name_Hall  '-P 1'
_symmetry_space_group_name_H-M   'P -1'
_atom_sites_solution_hydrogens   geom
_atom_sites_solution_primary     direct
_audit_creation_date             2018-09-04
_audit_creation_method
;
Olex2 1.2
(compiled 2018.05.29 svn.r3508 for OlexSys, GUI svn.r5506)
;
_cell_angle_alpha                78.352(8)
_cell_angle_beta                 79.150(8)
_cell_angle_gamma                72.944(9)
_cell_formula_units_Z            2
_cell_length_a                   7.9503(8)
_cell_length_b                   8.3038(8)
_cell_length_c                   12.6012(11)
_cell_measurement_reflns_used    3756
_cell_measurement_temperature    295.9(6)
_cell_measurement_theta_max      71.9130
_cell_measurement_theta_min      6.2340
_cell_volume                     771.51(13)
_computing_cell_refinement
;
CrysAlisPro, Agilent Technologies,
Version 1.171.37.35 (release 13-08-2014 CrysAlis171 .NET)
(compiled Aug 13 2014,18:06:01)
;
_computing_data_collection
;
CrysAlisPro, Agilent Technologies,
Version 1.171.37.35 (release 13-08-2014 CrysAlis171 .NET)
(compiled Aug 13 2014,18:06:01)
;
_computing_data_reduction
;
CrysAlisPro, Agilent Technologies,
Version 1.171.37.35 (release 13-08-2014 CrysAlis171 .NET)
(compiled Aug 13 2014,18:06:01)
;
_computing_molecular_graphics    'Olex2 (Dolomanov et al., 2009)'
_computing_publication_material  'Olex2 (Dolomanov et al., 2009)'
_computing_structure_refinement  'ShelXL (Sheldrick, 2015)'
_computing_structure_solution    'ShelXT (Sheldrick, 2015)'
_diffrn_ambient_environment      air
_diffrn_ambient_temperature      295.9(6)
_diffrn_detector                 'CCD plate'
_diffrn_detector_area_resol_mean 15.9595
_diffrn_detector_type            EosS2
_diffrn_measured_fraction_theta_full 0.997
_diffrn_measured_fraction_theta_max 0.980
_diffrn_measurement_details
;
#__ type_ start__ end____ width___ exp.time_
  1 omega  -31.00   53.00   1.0000    1.0000
omega____ theta____ kappa____ phi______ frames
    -       36.1671  -57.0000  -30.0000 84

#__ type_ start__ end____ width___ exp.time_
  2 omega   23.00   90.00   1.0000    1.0000
omega____ theta____ kappa____ phi______ frames
    -       36.1671 -125.0000 -180.0000 67

#__ type_ start__ end____ width___ exp.time_
  3 omega   17.00  105.00   1.0000    1.0000
omega____ theta____ kappa____ phi______ frames
    -       36.1671   38.0000 -150.0000 88

#__ type_ start__ end____ width___ exp.time_
  4 omega   17.00  105.00   1.0000    1.0000
omega____ theta____ kappa____ phi______ frames
    -       36.1671   38.0000  -60.0000 88

#__ type_ start__ end____ width___ exp.time_
  5 omega  -31.00   53.00   1.0000    1.0000
omega____ theta____ kappa____ phi______ frames
    -       36.1671  -57.0000 -150.0000 84

#__ type_ start__ end____ width___ exp.time_
  6 omega   19.00  103.00   1.0000    1.0000
omega____ theta____ kappa____ phi______ frames
    -       36.1671   57.0000   90.0000 84

#__ type_ start__ end____ width___ exp.time_
  7 omega   19.00  103.00   1.0000    1.0000
omega____ theta____ kappa____ phi______ frames
    -       36.1671   57.0000  150.0000 84

#__ type_ start__ end____ width___ exp.time_
  8 omega    1.00   75.00   1.0000    1.0000
omega____ theta____ kappa____ phi______ frames
    -       36.1671  -99.0000  -60.0000 74

#__ type_ start__ end____ width___ exp.time_
  9 omega   38.00   91.00   1.0000    1.7400
omega____ theta____ kappa____ phi______ frames
    -      108.0000  -30.0000 -120.0000 53

#__ type_ start__ end____ width___ exp.time_
 10 omega   91.00  176.00   1.0000    1.7400
omega____ theta____ kappa____ phi______ frames
    -      108.0000   45.0000  -90.0000 85

#__ type_ start__ end____ width___ exp.time_
 11 omega   38.00  116.00   1.0000    1.7400
omega____ theta____ kappa____ phi______ frames
    -      108.0000 -111.0000  150.0000 78

#__ type_ start__ end____ width___ exp.time_
 12 omega   38.00   91.00   1.0000    1.7400
omega____ theta____ kappa____ phi______ frames
    -      108.0000  -30.0000   90.0000 53

#__ type_ start__ end____ width___ exp.time_
 13 omega   40.00   98.00   1.0000    1.7400
omega____ theta____ kappa____ phi______ frames
    -      108.0000  -45.0000  -60.0000 58

#__ type_ start__ end____ width___ exp.time_
 14 omega   39.00  109.00   1.0000    1.7400
omega____ theta____ kappa____ phi______ frames
    -      108.0000  -94.0000   30.0000 70

#__ type_ start__ end____ width___ exp.time_
 15 omega  100.00  178.00   1.0000    1.7400
omega____ theta____ kappa____ phi______ frames
    -      108.0000  111.0000   30.0000 78

#__ type_ start__ end____ width___ exp.time_
 16 omega   37.00  146.00   1.0000    1.7400
omega____ theta____ kappa____ phi______ frames
    -      108.0000  -15.0000 -150.0000 109

#__ type_ start__ end____ width___ exp.time_
 17 omega   38.00   91.00   1.0000    1.7400
omega____ theta____ kappa____ phi______ frames
    -      108.0000  -30.0000    0.0000 53

#__ type_ start__ end____ width___ exp.time_
 18 omega   38.00   91.00   1.0000    1.7400
omega____ theta____ kappa____ phi______ frames
    -      108.0000  -30.0000  150.0000 53

#__ type_ start__ end____ width___ exp.time_
 19 omega   40.00   98.00   1.0000    1.7400
omega____ theta____ kappa____ phi______ frames
    -      108.0000  -45.0000    0.0000 58

#__ type_ start__ end____ width___ exp.time_
 20 omega   39.00  109.00   1.0000    1.7400
omega____ theta____ kappa____ phi______ frames
    -      108.0000  -94.0000 -120.0000 70

#__ type_ start__ end____ width___ exp.time_
 21 omega   41.00  126.00   1.0000    1.7400
omega____ theta____ kappa____ phi______ frames
    -      108.0000  -61.0000  120.0000 85

#__ type_ start__ end____ width___ exp.time_
 22 omega   40.00   98.00   1.0000    1.7400
omega____ theta____ kappa____ phi______ frames
    -      108.0000  -45.0000 -150.0000 58

#__ type_ start__ end____ width___ exp.time_
 23 omega   90.00  175.00   1.0000    1.7400
omega____ theta____ kappa____ phi______ frames
    -      108.0000   61.0000 -180.0000 85

#__ type_ start__ end____ width___ exp.time_
 24 omega   38.00   91.00   1.0000    1.7400
omega____ theta____ kappa____ phi______ frames
    -      108.0000  -30.0000 -180.0000 53

#__ type_ start__ end____ width___ exp.time_
 25 omega   38.00  116.00   1.0000    1.7400
omega____ theta____ kappa____ phi______ frames
    -      108.0000 -111.0000    0.0000 78

#__ type_ start__ end____ width___ exp.time_
 26 omega  -33.00   55.00   1.0000    1.0000
omega____ theta____ kappa____ phi______ frames
    -       36.1671  -38.0000   60.0000 88

#__ type_ start__ end____ width___ exp.time_
 27 omega    9.00  104.00   1.0000    1.0000
omega____ theta____ kappa____ phi______ frames
    -       36.1671   77.0000 -150.0000 95

#__ type_ start__ end____ width___ exp.time_
 28 omega    9.00  104.00   1.0000    1.0000
omega____ theta____ kappa____ phi______ frames
    -       36.1671   77.0000   30.0000 95

#__ type_ start__ end____ width___ exp.time_
 29 omega  -31.00   53.00   1.0000    1.0000
omega____ theta____ kappa____ phi______ frames
    -       36.1671  -57.0000  150.0000 84

#__ type_ start__ end____ width___ exp.time_
 30 omega    9.00  104.00   1.0000    1.0000
omega____ theta____ kappa____ phi______ frames
    -       36.1671   77.0000  -60.0000 95

#__ type_ start__ end____ width___ exp.time_
 31 omega    9.00  104.00   1.0000    1.0000
omega____ theta____ kappa____ phi______ frames
    -       36.1671   77.0000  120.0000 95

#__ type_ start__ end____ width___ exp.time_
 32 omega   19.00  103.00   1.0000    1.0000
omega____ theta____ kappa____ phi______ frames
    -       36.1671   57.0000    0.0000 84
;
_diffrn_measurement_device       'four-circle diffractometer'
_diffrn_measurement_device_type  'New Gemini, Dual, Cu at zero, EosS2'
_diffrn_measurement_method       '\w scans'
_diffrn_orient_matrix_UB_11      0.1268594000
_diffrn_orient_matrix_UB_12      0.0313519000
_diffrn_orient_matrix_UB_13      0.0674434000
_diffrn_orient_matrix_UB_21      0.1605742000
_diffrn_orient_matrix_UB_22      -0.0910559000
_diffrn_orient_matrix_UB_23      -0.0754874000
_diffrn_orient_matrix_UB_31      -0.0001575000
_diffrn_orient_matrix_UB_32      0.1712518000
_diffrn_orient_matrix_UB_33      -0.0750747000
_diffrn_radiation_monochromator  graphite
_diffrn_radiation_probe          x-ray
_diffrn_radiation_type           CuK\a
_diffrn_radiation_wavelength     1.54184
_diffrn_reflns_av_R_equivalents  0.0654
_diffrn_reflns_av_unetI/netI     0.0447
_diffrn_reflns_Laue_measured_fraction_full 0.997
_diffrn_reflns_Laue_measured_fraction_max 0.980
_diffrn_reflns_limit_h_max       9
_diffrn_reflns_limit_h_min       -9
_diffrn_reflns_limit_k_max       10
_diffrn_reflns_limit_k_min       -7
_diffrn_reflns_limit_l_max       14
_diffrn_reflns_limit_l_min       -15
_diffrn_reflns_number            7924
_diffrn_reflns_point_group_measured_fraction_full 0.997
_diffrn_reflns_point_group_measured_fraction_max 0.980
_diffrn_reflns_theta_full        67.684
_diffrn_reflns_theta_max         72.287
_diffrn_reflns_theta_min         5.642
_diffrn_source                   'Enhance (Cu) X-ray Source'
_exptl_absorpt_coefficient_mu    3.022
_exptl_absorpt_correction_T_max  1.00000
_exptl_absorpt_correction_T_min  0.50076
_exptl_absorpt_correction_type   multi-scan
_exptl_absorpt_process_details
;
CrysAlisPro, Agilent Technologies,
Version 1.171.37.35 (release 13-08-2014 CrysAlis171 .NET)
(compiled Aug 13 2014,18:06:01)
Empirical absorption correction using spherical harmonics,
 implemented in SCALE3 ABSPACK scaling algorithm.
;
_exptl_crystal_colour            'clear reddish red'
_exptl_crystal_colour_lustre     clear
_exptl_crystal_colour_modifier   reddish
_exptl_crystal_colour_primary    red
_exptl_crystal_density_diffrn    1.319
_exptl_crystal_description       block
_exptl_crystal_F_000             320
_exptl_crystal_size_max          0.8
_exptl_crystal_size_mid          0.6
_exptl_crystal_size_min          0.5
_refine_diff_density_max         0.355
_refine_diff_density_min         -0.595
_refine_diff_density_rms         0.085
_refine_ls_extinction_method     none
_refine_ls_goodness_of_fit_ref   1.058
_refine_ls_hydrogen_treatment    constr
_refine_ls_matrix_type           full
_refine_ls_number_parameters     211
_refine_ls_number_reflns         2983
_refine_ls_number_restraints     0
_refine_ls_restrained_S_all      1.058
_refine_ls_R_factor_all          0.0733
_refine_ls_R_factor_gt           0.0688
_refine_ls_shift/su_max          0.000
_refine_ls_shift/su_mean         0.000
_refine_ls_structure_factor_coef Fsqd
_refine_ls_weighting_details
'w=1/[\s^2^(Fo^2^)+(0.1398P)^2^+0.2021P] where P=(Fo^2^+2Fc^2^)/3'
_refine_ls_weighting_scheme      calc
_refine_ls_wR_factor_gt          0.1976
_refine_ls_wR_factor_ref         0.2061
_reflns_Friedel_coverage         0.000
_reflns_number_gt                2696
_reflns_number_total             2983
_reflns_threshold_expression     'I > 2\s(I)'
_iucr_refine_instructions_details
;

    ysp-4212.res created by SHELXL-2014/7

TITL ysp-4212_a.res in P-1
REM Old TITL ysp-4212 in P-1 #2
REM SHELXT solution in P-1
REM R1 0.211, Rweak 0.016, Alpha 0.044, Orientation as input
REM Formula found by SHELXT: C18 O S2
CELL 1.54184 7.950317 8.303813 12.601166 78.3515 79.1501 72.9444
ZERR 2 0.000809 0.000751 0.001099 0.0076 0.0083 0.0086
LATT 1
SFAC C H S
UNIT 38 28 4
 
L.S. 10
PLAN  20
BOND $H
LIST 6
fmap 2
acta
REM <olex2.extras>
REM <HklSrc "%.\\ysp-4212.hkl">
REM </olex2.extras>
 
WGHT    0.139800    0.202100
FVAR       8.69352   0.58751   0.49102
C004  1    0.504090    0.719168    0.266174    11.00000    0.03080    0.03823 =
         0.04590   -0.00662   -0.00318   -0.00832
C005  1    0.464024    0.672589    0.172135    11.00000    0.03407    0.04015 =
         0.04293   -0.00601    0.00103   -0.01036
C006  1    0.352852    0.553737    0.180674    11.00000    0.03357    0.04888 =
         0.03678   -0.00935   -0.00250   -0.01240
C007  1    0.248194    0.304701    0.220108    11.00000    0.03654    0.06174 =
         0.03774   -0.01377    0.00145   -0.01428
C008  1    0.119313    0.428406    0.164870    11.00000    0.04047    0.04802 =
         0.04469   -0.00964   -0.00337   -0.01725
C009  1    0.640282    0.805954    0.248695    11.00000    0.03456    0.04387 =
         0.06306   -0.01025   -0.00059   -0.01364
C00A  1    0.412561    0.693041    0.375871    11.00000    0.04355    0.04753 =
         0.04251   -0.00633   -0.00416   -0.01446
C00B  1   -0.031356    0.389649    0.146074    11.00000    0.04231    0.05617 =
         0.05955   -0.00888   -0.01076   -0.01396
AFIX  43
H00B  2   -0.118331    0.472390    0.110489    11.00000   -1.20000
AFIX   0
C00C  1    0.540248    0.729332    0.068504    11.00000    0.05183    0.05588 =
         0.04218   -0.00595    0.00056   -0.01603
AFIX  43
H00C  2    0.509544    0.701929    0.008022    11.00000   -1.20000
AFIX   0
C00D  1    0.715105    0.858721    0.140775    11.00000    0.03944    0.05037 =
         0.07469   -0.00956    0.00836   -0.01970
AFIX  43
H00D  2    0.802424    0.916555    0.130068    11.00000   -1.20000
AFIX   0
C00E  1    0.228184    0.140128    0.255727    11.00000    0.04760    0.05709 =
         0.05009   -0.00302    0.00311   -0.00550
AFIX  43
H00E  2    0.313294    0.056958    0.292558    11.00000   -1.20000
AFIX   0
C00F  1    0.662171    0.826747    0.052333    11.00000    0.05338    0.05610 =
         0.05628   -0.00103    0.01227   -0.01807
AFIX  43
H00F  2    0.706589    0.869210   -0.018072    11.00000   -1.20000
AFIX   0
C00G  1   -0.047850    0.226821    0.181332    11.00000    0.04560    0.06919 =
         0.07098   -0.01939    0.00216   -0.02922
AFIX  43
H00G  2   -0.146793    0.199155    0.168689    11.00000   -1.20000
AFIX   0
C00H  1    0.473188    0.732216    0.460445    11.00000    0.06691    0.06882 =
         0.04546   -0.00998   -0.00815   -0.02588
AFIX  43
H00H  2    0.417702    0.709755    0.531587    11.00000   -1.20000
AFIX   0
C00I  1    0.080122    0.102496    0.235495    11.00000    0.05724    0.04709 =
         0.06949   -0.00803    0.00990   -0.02006
AFIX  43
H00I  2    0.066068   -0.007069    0.258359    11.00000   -1.20000
AFIX   0
C00J  1    0.696237    0.844454    0.338725    11.00000    0.05296    0.06910 =
         0.07756   -0.01666   -0.01192   -0.03103
AFIX  43
H00J  2    0.788070    0.896945    0.326990    11.00000   -1.20000
AFIX   0
C00K  1    0.616629    0.805182    0.441829    11.00000    0.07478    0.08457 =
         0.06663   -0.01855   -0.02203   -0.03427
AFIX  43
H00K  2    0.657323    0.826729    0.500699    11.00000   -1.20000
AFIX   0
S1    3    0.211629    0.629737    0.400520    11.00000    0.04631    0.06925 =
         0.04539   -0.01031    0.00696   -0.02779
C1    1    0.120631    0.667995    0.537097    11.00000    0.08202    0.13670 =
         0.07092   -0.04602    0.03572   -0.05141
AFIX 137
H1A   2    0.006024    0.645496    0.555300    11.00000   -1.50000
H1B   2    0.108806    0.784723    0.542144    11.00000   -1.50000
H1C   2    0.198254    0.594285    0.587101    11.00000   -1.50000
AFIX   0
PART 1
S0AA  3    0.159423    0.631894    0.120308    21.00000    0.03958    0.04142 =
         0.05576    0.00335   -0.02048   -0.01176
PART 0
PART 2
S0AB  3    0.432188    0.340689    0.240562   -21.00000    0.04290    0.04841 =
         0.04962   -0.00690   -0.00524   -0.01626
PART 0
PART 1
C0AA  1    0.377828    0.401208    0.222745    31.00000    0.03170    0.03756 =
         0.04423   -0.00298   -0.01160    0.00067
AFIX  43
H0AA  2    0.478787    0.346761    0.256279    31.00000   -1.20000
AFIX   0
PART 0
PART 2
C0AB  1    0.189053    0.580189    0.141488   -31.00000    0.04625    0.05842 =
         0.05156   -0.00876   -0.01286   -0.01985
AFIX  43
H0AB  2    0.130699    0.684247    0.104273   -31.00000   -1.20000
AFIX   0
HKLF 4
 
REM  ysp-4212_a.res in P-1
REM R1 =  0.0688 for    2696 Fo > 4sig(Fo)  and  0.0733 for all    2983 data
REM    211 parameters refined using      0 restraints
 
END  
     
WGHT      0.1397      0.2029 

REM Highest difference peak  0.355,  deepest hole -0.595,  1-sigma level  0.085
Q1    1   0.2150  0.5311  0.4825  11.00000  0.05    0.36
Q2    1   0.1866  0.7136  0.3251  11.00000  0.05    0.36
Q3    1   0.1931  0.6996  0.0340  11.00000  0.05    0.35
Q4    1   0.4237  0.3438  0.3262  11.00000  0.05    0.34
Q5    1   0.1161  0.7739  0.0759  11.00000  0.05    0.33
Q6    1   0.1663  0.6419  0.4825  11.00000  0.05    0.30
Q7    1   0.1689  0.5221  0.4315  11.00000  0.05    0.26
Q8    1   0.1183  0.5419  0.1599  11.00000  0.05    0.25
Q9    1   0.1947 -0.1576  0.2007  11.00000  0.05    0.25
Q10   1   0.6328  1.0062  0.0151  11.00000  0.05    0.24
Q11   1   0.5026  0.5954  0.5551  11.00000  0.05    0.23
Q12   1   0.5407  0.6029  0.6120  11.00000  0.05    0.23
Q13   1   0.5508  0.5681  0.3327  11.00000  0.05    0.23
Q14   1   0.1136  0.6597  0.2038  11.00000  0.05    0.23
Q15   1   0.0833  0.8020  0.5195  11.00000  0.05    0.22
Q16   1   0.5502  0.2351  0.2208  11.00000  0.05    0.21
Q17   1  -0.0409  0.4518  0.0538  11.00000  0.05    0.21
Q18   1   0.6618  0.9461 -0.0384  11.00000  0.05    0.21
Q19   1   0.0839  0.8517  0.4976  11.00000  0.05    0.21
Q20   1   0.9051  0.6206  0.2471  11.00000  0.05    0.21

  REM The information below was added by Olex2.
  REM
  REM R1 = 0.0688 for 2696 Fo > 4sig(Fo) and 0.0733 for all 7924 data
  REM n/a parameters refined using n/a restraints
  REM Highest difference peak 0.36, deepest hole -0.59
  REM Mean Shift 0, Max Shift 0.000.

  REM +++ Tabular Listing of Refinement Information +++
  REM R1_all = 0.0733
  REM R1_gt = 0.0688
  REM wR_ref = 0.2061
  REM GOOF = 1.058
  REM Shift_max = 0.000
  REM Shift_mean = 0
  REM Reflections_all = 7924
  REM Reflections_gt = 2696
  REM Parameters = n/a
  REM Hole = -0.59
  REM Peak = 0.36
  REM Flack = n/a

  
;
_cod_data_source_file            cs9b01426_si_002.cif
_cod_data_source_block           ysp-4212
_cod_database_code               4514805
_shelx_shelxl_version_number     2014/7
_shelx_space_group_comment
;
The symmetry employed for this shelxl refinement is uniquely defined
by the following loop, which should always be used as a source of
symmetry information in preference to the above space-group names.
They are only intended as comments.
;
_reflns_odcompleteness_completeness 99.82
_reflns_odcompleteness_iscentric 1
_reflns_odcompleteness_theta     66.97
_olex2_refinement_description
;
1. Fixed Uiso
 At 1.2 times of:
  All C(H) groups
 At 1.5 times of:
  All C(H,H,H) groups
2. Others
 Sof(S0AB)=1-FVAR(1)
 Sof(S0AA)=FVAR(1)
 Sof(C0AB)=Sof(H0AB)=1-FVAR(2)
 Sof(C0AA)=Sof(H0AA)=FVAR(2)
3.a Aromatic/amide H refined with riding coordinates:
 C00B(H00B), C00C(H00C), C00D(H00D), C00E(H00E), C00F(H00F), C00G(H00G),
 C00H(H00H), C00I(H00I), C00J(H00J), C00K(H00K), C0AA(H0AA), C0AB(H0AB)
3.b Idealised Me refined as rotating group:
 C1(H1A,H1B,H1C)
;
_olex2_submission_special_instructions 'No special instructions were received'
loop_
_space_group_symop_operation_xyz
'x, y, z'
'-x, -y, -z'
loop_
_atom_site_label
_atom_site_type_symbol
_atom_site_fract_x
_atom_site_fract_y
_atom_site_fract_z
_atom_site_U_iso_or_equiv
_atom_site_adp_type
_atom_site_occupancy
_atom_site_site_symmetry_order
_atom_site_calc_flag
_atom_site_refinement_flags_posn
_atom_site_refinement_flags_occupancy
_atom_site_disorder_assembly
_atom_site_disorder_group
C004 C 0.5041(3) 0.7192(3) 0.2662(2) 0.0388(5) Uani 1 1 d . . . .
C005 C 0.4640(3) 0.6726(3) 0.1721(2) 0.0399(5) Uani 1 1 d . . . .
C006 C 0.3529(3) 0.5537(3) 0.18067(19) 0.0394(5) Uani 1 1 d . . . .
C007 C 0.2482(4) 0.3047(4) 0.2201(2) 0.0451(6) Uani 1 1 d . . . .
C008 C 0.1193(3) 0.4284(3) 0.1649(2) 0.0432(6) Uani 1 1 d . . . .
C009 C 0.6403(3) 0.8060(3) 0.2487(2) 0.0470(6) Uani 1 1 d . . . .
C00A C 0.4126(4) 0.6930(3) 0.3759(2) 0.0444(6) Uani 1 1 d . . . .
C00B C -0.0314(4) 0.3896(4) 0.1461(2) 0.0520(7) Uani 1 1 d . . . .
H00B H -0.1183 0.4724 0.1105 0.062 Uiso 1 1 calc R . . .
C00C C 0.5402(4) 0.7293(4) 0.0685(2) 0.0508(6) Uani 1 1 d . . . .
H00C H 0.5095 0.7019 0.0080 0.061 Uiso 1 1 calc R . . .
C00D C 0.7151(4) 0.8587(4) 0.1408(3) 0.0554(7) Uani 1 1 d . . . .
H00D H 0.8024 0.9166 0.1301 0.066 Uiso 1 1 calc R . . .
C00E C 0.2282(4) 0.1401(4) 0.2557(2) 0.0556(7) Uani 1 1 d . . . .
H00E H 0.3133 0.0570 0.2926 0.067 Uiso 1 1 calc R . . .
C00F C 0.6622(4) 0.8267(4) 0.0523(3) 0.0583(8) Uani 1 1 d . . . .
H00F H 0.7066 0.8692 -0.0181 0.070 Uiso 1 1 calc R . . .
C00G C -0.0479(4) 0.2268(4) 0.1813(3) 0.0590(8) Uani 1 1 d . . . .
H00G H -0.1468 0.1992 0.1687 0.071 Uiso 1 1 calc R . . .
C00H C 0.4732(5) 0.7322(4) 0.4604(3) 0.0585(7) Uani 1 1 d . . . .
H00H H 0.4177 0.7098 0.5316 0.070 Uiso 1 1 calc R . . .
C00I C 0.0801(4) 0.1025(4) 0.2355(3) 0.0593(8) Uani 1 1 d . . . .
H00I H 0.0661 -0.0071 0.2584 0.071 Uiso 1 1 calc R . . .
C00J C 0.6962(4) 0.8445(4) 0.3387(3) 0.0621(8) Uani 1 1 d . . . .
H00J H 0.7881 0.8969 0.3270 0.075 Uiso 1 1 calc R . . .
C00K C 0.6166(5) 0.8052(5) 0.4418(3) 0.0698(9) Uani 1 1 d . . . .
H00K H 0.6573 0.8267 0.5007 0.084 Uiso 1 1 calc R . . .
S1 S 0.21163(9) 0.62974(10) 0.40052(5) 0.0525(3) Uani 1 1 d . . . .
C1 C 0.1206(6) 0.6680(7) 0.5371(3) 0.0936(15) Uani 1 1 d . . . .
H1A H 0.0060 0.6455 0.5553 0.140 Uiso 1 1 calc GR . . .
H1B H 0.1088 0.7847 0.5421 0.140 Uiso 1 1 calc GR . . .
H1C H 0.1983 0.5943 0.5871 0.140 Uiso 1 1 calc GR . . .
S0AA S 0.1594(4) 0.6319(4) 0.1203(3) 0.0451(7) Uani 0.588(13) 1 d . P A 1
S0AB S 0.4322(7) 0.3407(7) 0.2406(3) 0.0463(13) Uani 0.412(13) 1 d . P A 2
C0AA C 0.3778(18) 0.401(2) 0.2227(8) 0.040(2) Uani 0.49(4) 1 d . P A 1
H0AA H 0.4788 0.3468 0.2563 0.048 Uiso 0.49(4) 1 calc R P A 1
C0AB C 0.189(2) 0.580(3) 0.1415(13) 0.050(3) Uani 0.51(4) 1 d . P A 2
H0AB H 0.1307 0.6842 0.1043 0.060 Uiso 0.51(4) 1 calc R P A 2
loop_
_atom_site_aniso_label
_atom_site_aniso_U_11
_atom_site_aniso_U_22
_atom_site_aniso_U_33
_atom_site_aniso_U_23
_atom_site_aniso_U_13
_atom_site_aniso_U_12
C004 0.0308(11) 0.0382(11) 0.0459(13) -0.0066(9) -0.0032(9) -0.0083(9)
C005 0.0341(12) 0.0402(11) 0.0429(13) -0.0060(9) 0.0010(10) -0.0104(9)
C006 0.0336(12) 0.0489(14) 0.0368(12) -0.0094(10) -0.0025(9) -0.0124(10)
C007 0.0365(13) 0.0617(15) 0.0377(12) -0.0138(11) 0.0014(10) -0.0143(11)
C008 0.0405(13) 0.0480(13) 0.0447(13) -0.0096(10) -0.0034(10) -0.0172(10)
C009 0.0346(12) 0.0439(12) 0.0631(16) -0.0102(11) -0.0006(11) -0.0136(10)
C00A 0.0436(14) 0.0475(13) 0.0425(13) -0.0063(10) -0.0042(10) -0.0145(10)
C00B 0.0423(15) 0.0562(15) 0.0596(17) -0.0089(12) -0.0108(12) -0.0140(11)
C00C 0.0518(16) 0.0559(15) 0.0422(14) -0.0060(11) 0.0006(11) -0.0160(12)
C00D 0.0394(14) 0.0504(14) 0.075(2) -0.0096(13) 0.0084(13) -0.0197(11)
C00E 0.0476(15) 0.0571(16) 0.0501(15) -0.0030(12) 0.0031(12) -0.0055(12)
C00F 0.0534(17) 0.0561(16) 0.0563(17) -0.0010(13) 0.0123(13) -0.0181(13)
C00G 0.0456(16) 0.0692(18) 0.0710(19) -0.0194(15) 0.0022(13) -0.0292(14)
C00H 0.067(2) 0.0688(18) 0.0455(15) -0.0100(13) -0.0082(13) -0.0259(15)
C00I 0.0572(18) 0.0471(14) 0.0695(19) -0.0080(13) 0.0099(14) -0.0201(13)
C00J 0.0530(17) 0.0691(18) 0.078(2) -0.0167(16) -0.0119(15) -0.0310(15)
C00K 0.075(2) 0.085(2) 0.067(2) -0.0185(17) -0.0220(17) -0.0343(18)
S1 0.0463(4) 0.0692(5) 0.0454(4) -0.0103(3) 0.0070(3) -0.0278(3)
C1 0.082(3) 0.137(4) 0.071(2) -0.046(3) 0.036(2) -0.051(3)
S0AA 0.0396(10) 0.0414(13) 0.0558(11) 0.0034(8) -0.0205(7) -0.0118(8)
S0AB 0.043(2) 0.048(2) 0.0496(13) -0.0069(12) -0.0052(11) -0.0163(17)
C0AA 0.032(4) 0.038(5) 0.044(3) -0.003(3) -0.012(3) 0.001(3)
C0AB 0.046(5) 0.058(7) 0.052(5) -0.009(5) -0.013(4) -0.020(5)
loop_
_atom_type_symbol
_atom_type_description
_atom_type_scat_dispersion_real
_atom_type_scat_dispersion_imag
_atom_type_scat_source
C C 0.0181 0.0091 'International Tables Vol C Tables 4.2.6.8 and 6.1.1.4'
H H 0.0000 0.0000 'International Tables Vol C Tables 4.2.6.8 and 6.1.1.4'
S S 0.3331 0.5567 'International Tables Vol C Tables 4.2.6.8 and 6.1.1.4'
loop_
_geom_angle_atom_site_label_1
_geom_angle_atom_site_label_2
_geom_angle_atom_site_label_3
_geom_angle
C005 C004 C00A 125.3(2)
C009 C004 C005 117.2(2)
C009 C004 C00A 117.4(2)
C004 C005 C006 122.6(2)
C00C C005 C004 120.0(2)
C00C C005 C006 117.2(2)
C005 C006 S0AA 117.1(2)
C005 C006 S0AB 118.5(2)
C0AA C006 C005 130.0(6)
C0AA C006 S0AA 112.9(5)
C0AB C006 C005 130.2(9)
C0AB C006 S0AB 111.2(8)
C008 C007 S0AB 122.8(3)
C008 C007 C0AA 102.0(8)
C00E C007 C008 119.9(3)
C00E C007 S0AB 117.2(3)
C00E C007 C0AA 138.1(8)
C007 C008 C00B 120.6(3)
C007 C008 S0AA 116.4(2)
C007 C008 C0AB 103.0(8)
C00B C008 S0AA 123.0(2)
C00B C008 C0AB 136.3(8)
C00D C009 C004 119.8(3)
C00D C009 C00J 119.9(3)
C00J C009 C004 120.3(3)
C004 C00A S1 120.5(2)
C00H C00A C004 119.4(3)
C00H C00A S1 119.9(2)
C008 C00B H00B 120.8
C00G C00B C008 118.5(3)
C00G C00B H00B 120.8
C005 C00C H00C 119.1
C005 C00C C00F 121.8(3)
C00F C00C H00C 119.1
C009 C00D H00D 119.3
C00F C00D C009 121.5(3)
C00F C00D H00D 119.3
C007 C00E H00E 120.5
C00I C00E C007 119.1(3)
C00I C00E H00E 120.5
C00C C00F H00F 120.4
C00D C00F C00C 119.2(3)
C00D C00F H00F 120.4
C00B C00G H00G 119.3
C00B C00G C00I 121.4(3)
C00I C00G H00G 119.3
C00A C00H H00H 119.2
C00A C00H C00K 121.6(3)
C00K C00H H00H 119.2
C00E C00I C00G 120.6(3)
C00E C00I H00I 119.7
C00G C00I H00I 119.7
C009 C00J H00J 119.8
C00K C00J C009 120.3(3)
C00K C00J H00J 119.8
C00H C00K H00K 119.8
C00J C00K C00H 120.5(3)
C00J C00K H00K 119.8
C00A S1 C1 103.87(17)
S1 C1 H1A 109.5
S1 C1 H1B 109.5
S1 C1 H1C 109.5
H1A C1 H1B 109.5
H1A C1 H1C 109.5
H1B C1 H1C 109.5
C006 S0AA C008 87.8(2)
C007 S0AB C006 88.5(4)
C006 C0AA C007 120.8(12)
C006 C0AA H0AA 119.6
C007 C0AA H0AA 119.6
C006 C0AB C008 114.3(15)
C006 C0AB H0AB 122.9
C008 C0AB H0AB 122.9
loop_
_geom_bond_atom_site_label_1
_geom_bond_atom_site_label_2
_geom_bond_distance
C004 C005 1.433(4)
C004 C009 1.430(3)
C004 C00A 1.442(4)
C005 C006 1.483(3)
C005 C00C 1.384(4)
C006 S0AA 1.738(4)
C006 S0AB 1.756(7)
C006 C0AA 1.243(18)
C006 C0AB 1.421(16)
C007 C008 1.397(4)
C007 C00E 1.395(4)
C007 S0AB 1.651(5)
C007 C0AA 1.488(8)
C008 C00B 1.399(4)
C008 S0AA 1.771(4)
C008 C0AB 1.477(17)
C009 C00D 1.415(4)
C009 C00J 1.417(4)
C00A C00H 1.378(4)
C00A S1 1.779(3)
C00B H00B 0.9300
C00B C00G 1.372(4)
C00C H00C 0.9300
C00C C00F 1.398(4)
C00D H00D 0.9300
C00D C00F 1.361(5)
C00E H00E 0.9300
C00E C00I 1.382(5)
C00F H00F 0.9300
C00G H00G 0.9300
C00G C00I 1.388(5)
C00H H00H 0.9300
C00H C00K 1.404(5)
C00I H00I 0.9300
C00J H00J 0.9300
C00J C00K 1.355(5)
C00K H00K 0.9300
S1 C1 1.790(4)
C1 H1A 0.9600
C1 H1B 0.9600
C1 H1C 0.9600
C0AA H0AA 0.9300
C0AB H0AB 0.9300
loop_
_refln_index_h
_refln_index_k
_refln_index_l
_refln_F_squared_meas
_refln_F_squared_sigma
_refln_scale_group_code
0 0 -2 131208 693.697 32
0 0 2 132370 1103.38 6
0 0 -3 244658 1059.79 32
0 0 3 248585 1946.86 6
0 0 4 6512.18 405.728 31
0 0 -4 7664.42 354.438 26
0 0 -4 6318.97 181.479 32
0 0 4 7727.43 420.683 6
0 0 -4 7292.14 341.552 29
0 0 4 7035.96 430.729 7
0 0 -5 52526.9 1044.69 26
0 0 5 47956.4 1216.3 6
0 0 -5 49705 986.54 29
0 0 5 48665.4 1284.83 7
0 0 6 28567 1190.01 31
0 0 -6 28227.9 831.5 29
0 0 6 28343.8 1090.48 7
0 0 -6 28535.5 870.7 26
0 0 7 3934.57 438.588 7
0 0 7 5059.84 603.152 31
0 0 7 3465.49 424.059 6
0 0 -7 4643.04 398.516 26
0 0 -7 4602.5 357.904 2
0 0 -7 4530.55 369.777 29
0 0 -8 11031.1 637.846 29
0 0 8 11928.8 1066.29 31
0 0 8 10161.8 813.408 7
0 0 -8 10461.8 666.993 26
0 0 -8 11440.9 604.588 2
0 0 9 2322.97 411.198 3
0 0 -9 4229.77 414.378 2
0 0 -9 3869.99 416.628 29
0 0 -9 3926.01 453.756 26
0 0 9 3666.42 669.112 31
0 0 9 3525.71 539.513 7
0 0 -10 4959.63 371.557 10
0 0 -11 2141.13 245.531 10
0 0 -11 2563.22 323.383 11
0 0 -12 657.021 126.893 10
0 0 -12 844.628 171.65 11
0 0 -13 2104.59 253.867 11
0 0 -14 3874.6 286.076 12
0 0 -14 5856.15 362.266 11
0 0 -15 909.444 124.133 21
0 1 -14 5871.85 351.173 21
0 1 -14 6116.36 340.708 11
0 1 -13 560.469 125.631 11
0 1 -12 -30.1777 52.7158 11
0 1 -11 121.064 64.052 11
0 1 -10 197.035 76.3019 10
0 1 -10 406.32 139.317 11
0 -1 9 7639.46 937.391 31
0 -1 9 3619.82 553.368 7
0 1 -9 4743.85 454.801 2
0 1 -9 6879.15 486.028 14
0 1 -9 5853.91 466.803 11
0 1 -9 4681.74 489.813 26
0 -1 9 4048.28 582.369 3
0 1 -8 18514 821.256 2
0 1 -8 17121 858.222 26
0 -1 8 14019.7 982 3
0 -1 8 14253.4 1012.15 7
0 1 -8 17895.9 830.093 29
0 1 -7 59.4683 37.6281 29
0 1 -7 1.70102 47.0656 2
0 -1 7 158.606 115.161 31
0 -1 7 -20.0487 124.496 3
0 1 -7 188.053 80.0637 26
0 1 -6 715.497 144.307 26
0 1 -6 721.106 140.264 2
0 -1 6 607.106 182.419 7
0 1 -6 825.91 148.635 29
0 1 -5 9269.22 449.223 26
0 1 -5 9454.22 436.438 29
0 -1 5 10553.7 649.122 31
0 -1 5 8005.46 477.513 6
0 -1 5 8075.93 563.558 7
0 1 -5 9181.7 441.282 2
0 -1 4 12233.4 559.627 28
0 -1 4 14342.8 675.554 7
0 1 -4 19545.3 578.062 29
0 1 -4 19385.6 384.77 5
0 1 -4 17175.2 550.565 2
0 -1 4 23424.5 836.914 31
0 1 -4 19405.9 569.301 26
0 -1 4 17344.7 607.376 6
0 -1 3 65982.2 1070.74 6
0 -1 3 82349.3 1393.57 31
0 1 -3 71907.8 694.199 5
0 1 -3 72339 975.591 26
0 1 -3 77035.4 1040.86 29
0 1 -2 25728.7 500.72 26
0 -1 2 26305.5 581.543 6
0 1 -2 26093.6 392.51 5
0 1 -1 65810.2 605.371 5
0 1 -1 63290.6 637.406 26
0 1 0 175692 1007.27 1
0 -1 -1 51491.3 406.157 27
0 1 1 56395.2 647.193 7
0 -1 -2 32600.2 567.674 26
0 1 2 42164.8 700.767 7
0 -1 -3 712192 3313.05 26
0 -1 -3 731494 2638.9 30
0 1 4 202089 2487.92 31
0 1 4 175465 2117.42 6
0 -1 -4 194561 1618.28 30
0 -1 -4 195998 1707.45 4
0 -1 -4 185248 1906.91 26
0 1 4 186118 2098.78 7
0 1 5 69792.7 1658.18 31
0 1 5 66332.6 1438.9 7
0 -1 -5 60472.8 1043.08 30
0 1 5 59964.5 1430.7 6
0 -1 -5 63108.2 1198.49 26
0 1 6 4327.39 501.114 31
0 -1 -6 2751.12 279.866 26
0 1 6 2197.79 310.017 6
0 -1 -6 3724.23 288.661 30
0 1 6 2300.75 299.227 7
0 1 7 23234.5 1082.7 7
0 1 7 17916.4 978.287 6
0 1 7 22871.4 1261.05 31
0 -1 -7 19851.5 793.437 29
0 -1 -7 21463 872.439 26
0 1 8 8395.19 741.611 7
0 1 8 6147.97 643.864 6
0 1 8 8514.43 913.29 31
0 -1 -8 8432.5 567.676 29
0 -1 -8 8622.97 618.487 26
0 1 9 266.172 82.9892 3
0 1 9 584.468 272.43 31
0 -1 -9 920.909 195.316 2
0 -1 -9 1047.94 218.596 29
0 -1 -9 1097.13 241.187 26
0 -1 -10 11215.5 562.712 10
0 -1 -11 2944.98 286.081 10
0 -1 -12 -12.0589 46.1395 10
0 -1 -13 321.05 104.154 11
0 -1 -13 242.614 72.9896 10
0 -1 -14 222.333 69.0682 12
0 -1 -14 207.893 61.4098 11
0 -1 -15 1759.35 189.168 21
0 -1 -15 1257.4 144.791 12
0 2 -14 1142.49 127.483 11
0 2 -13 1281.75 165.681 11
0 2 -13 1020.14 152.547 21
0 2 -12 548.741 123.771 21
0 2 -12 545.48 118.401 11
0 2 -11 4299.71 372.831 11
0 2 -10 160.824 81.8934 11
0 2 -10 200.606 100.065 14
0 2 -9 4648.05 411.22 11
0 2 -9 4628.72 370.621 14
0 -2 8 7086.64 716.343 3
0 2 -8 8299.8 584.244 2
0 2 -8 8580.34 632.839 26
0 -2 8 6536.69 737.035 7
0 2 -7 11119.9 654.4 26
0 2 -7 10621.5 617.179 2
0 -2 7 9509.05 790.366 7
0 -2 7 9507.15 790.366 3
0 2 -7 10434.8 614.849 29
0 2 -6 20562 807.705 26
0 2 -6 18961.4 763.413 2
0 2 -6 20262.7 793.511 29
0 2 -5 6222.18 399.321 29
0 2 -5 6061.18 386.701 26
0 -2 5 7079.05 589.106 31
0 2 -5 5837.5 393.58 2
0 2 -4 36210.8 882.231 8
0 2 -4 37627.2 887.83 29
0 -2 4 30352.2 881.199 6
0 -2 4 39071.2 1241.94 31
0 2 -4 30305.6 642.543 5
0 2 -4 37148.5 860.377 26
0 -2 4 26944.2 991.767 3
0 2 -4 36868 916.114 2
0 -2 3 28460.9 1001.98 31
0 2 -3 30611.8 703.772 26
0 2 -3 27540.9 693.812 8
0 2 -3 29734.1 713.749 29
0 -2 3 25845.9 767.367 6
0 2 -3 26637.2 714.649 2
0 2 -3 27221.5 573.591 5
0 2 -2 20000.6 469.851 5
0 2 -2 26324.1 659.109 29
0 2 -2 18990.8 547.226 2
0 -2 2 14198.7 542.915 3
0 2 -2 22329 617.142 8
0 2 -2 18580.7 385.172 1
0 2 -1 41854.3 829.01 8
0 2 -1 40166.7 674.35 5
0 -2 1 44846.2 778.705 4
0 2 -1 49541.2 875.001 29
0 2 -1 35500.9 546.163 1
0 -2 0 372468 2026.98 4
0 2 0 372162 2035.9 1
0 -2 -1 3875.75 210.559 4
0 -2 -1 4333.98 203.746 27
0 -2 -2 3836.98 222.475 4
0 2 2 4602.71 266.628 7
0 -2 -2 3413.18 207.7 26
0 2 2 4863.18 408.908 31
0 -2 -3 20822.2 538.398 30
0 2 3 24308.4 687.706 7
0 -2 -3 19922.2 543.476 4
0 -2 -3 20724 627.422 26
0 2 3 24959.3 1046.8 31
0 -2 -4 13238.3 504.184 4
0 2 4 12921.9 564.973 7
0 -2 -4 13555.9 532.419 32
0 -2 -4 11159.5 415.858 30
0 2 4 10539.8 563.437 6
0 2 4 11448.2 808.501 31
0 -2 -4 12233.1 538.008 26
0 2 5 6072.25 438.323 7
0 2 5 5647.67 469.858 6
0 -2 -5 6170.58 407.161 26
0 -2 -5 7200.38 362.771 30
0 -2 -5 6246.15 371.943 4
0 2 5 5636.63 598.519 31
0 -2 -5 7343.93 429.637 32
0 -2 -6 4159.45 312.596 30
0 2 6 4322.25 429.08 7
0 2 6 3368.17 531.677 31
0 2 6 3986.48 435.358 6
0 -2 -6 4378.78 382.852 26
0 -2 -6 4207.52 337.224 4
0 -2 -6 4601.07 351.897 32
0 -2 -7 66658.1 1654.5 26
0 2 7 68593.4 1922.71 7
0 -2 -7 64600.6 1411.43 30
0 2 7 67698.3 2565.98 31
0 2 8 17619.3 1090.9 7
0 -2 -8 20536.9 1019.23 26
0 -2 -8 19246.9 879.313 30
0 2 8 19496.4 1552.98 31
0 2 9 4682.28 644.556 7
0 -2 -9 5285.29 525.161 29
0 -2 -9 6084.06 609.572 26
0 2 9 4347.71 893.159 31
0 -2 -10 10644.5 566.247 10
0 -2 -11 14491 649.805 10
0 -2 -12 106.443 43.8495 10
0 -2 -13 6913.96 407.899 10
0 -2 -14 4116.71 290.88 10
0 -2 -14 4411.74 331.274 11
0 -2 -15 112.798 46.6315 12
0 3 -13 113.32 47.9912 11
0 3 -12 276.046 83.7007 11
0 3 -12 257.584 85.1618 21
0 3 -11 7547.06 475.453 21
0 3 -11 10682.7 547.581 11
0 3 -10 634.872 138.861 14
0 3 -10 413.036 108.763 11
0 3 -10 290.824 103.091 21
0 3 -9 4298.45 336.597 14
0 3 -9 4203.2 370.823 11
0 3 -9 3872.51 398.519 21
0 3 -8 2155.57 241.856 14
0 3 -8 2240.52 302.317 21
0 3 -8 2236.29 244.887 25
0 3 -8 2223.57 279.474 11
0 3 -7 1019.63 194.397 2
0 3 -6 9484.55 562.654 2
0 -3 6 8082.28 765.031 31
0 3 -5 68994.4 1549.83 29
0 3 -5 55973.4 1308.94 2
0 3 -4 1467.12 201.941 2
0 3 -4 1741.92 233.513 29
0 3 -4 1404.63 200.534 8
0 3 -3 33554.7 904.85 2
0 3 -3 32986.1 884.227 8
0 3 -3 25133 697.194 5
0 -3 3 25218.6 818.935 4
0 -3 2 375.18 89.0383 4
0 3 -2 179.895 44.7741 1
0 3 -2 226.298 66.4528 5
0 3 -2 171.165 66.9435 2
0 3 -2 245.145 71.3632 8
0 3 -2 363.48 100.079 29
0 3 -1 1250.26 131.204 1
0 3 -1 1804.64 205.098 8
0 -3 1 1664.95 180.29 4
0 3 -1 1865.72 182.529 5
0 -3 0 44683.9 1060.09 30
0 -3 0 43494.5 905.518 4
0 -3 -1 37322.9 836.111 27
0 -3 -1 34294.2 851.169 30
0 -3 -1 36241.2 825.792 4
0 3 1 39410.5 878.872 5
0 3 1 38456.3 808.283 1
0 -3 -2 997.218 99.6066 27
0 -3 -2 1121.31 156.786 30
0 -3 -2 1338.54 163.697 4
0 -3 -3 6277.01 352.973 30
0 3 3 3867.86 284.533 7
0 3 3 4251.69 510.69 31
0 -3 -3 4825.45 321.114 26
0 3 3 6655.21 465.371 8
0 -3 -3 6608.11 373.372 4
0 -3 -4 29513.6 894.268 26
0 3 4 27863.4 912.798 7
0 -3 -4 37555.4 892.702 30
0 3 4 36237.9 1388.74 31
0 3 4 33111 1084.43 8
0 -3 -4 38809.1 964.152 4
0 -3 -5 15048.2 706.071 26
0 -3 -5 17301.4 771.315 32
0 -3 -5 16796.9 699.283 4
0 -3 -5 17514.5 641.061 30
0 -3 -6 6050.91 493.176 26
0 -3 -6 7094.07 536.549 32
0 3 6 6905.83 806.146 31
0 3 6 5854.09 529.453 7
0 -3 -6 6891.9 441.935 30
0 -3 -6 6574.6 470.244 4
0 -3 -7 327.992 130.582 26
0 3 7 103.707 105.343 7
0 -3 -7 388.467 117.921 30
0 3 8 18605.6 1184.44 7
0 3 8 21267.8 1653.74 31
0 -3 -8 22314 1159.93 26
0 -3 -8 22270.1 982.347 30
0 -3 -9 8494.3 669.765 30
0 3 9 8142.74 617.5 16
0 -3 -9 9156.03 557.732 10
0 -3 -9 8501.64 780.508 26
0 3 9 6486.83 783.805 7
0 3 9 7929.82 1107.47 31
0 -3 -10 15604.2 714.762 10
0 3 10 13805.3 836.513 16
0 -3 -11 2451.21 276.969 10
0 3 11 1724.39 326.717 16
0 -3 -12 1152.54 185.739 10
0 -3 -13 5907.69 387.961 10
0 -3 -14 5835.83 351.12 10
0 -3 -14 4895.12 342.543 11
0 -3 -15 251.045 72.443 12
0 4 -12 269.435 68.7591 11
0 4 -11 4556.52 313.259 11
0 4 -10 1760.77 217.049 11
0 4 -9 78.2183 67.8889 14
0 4 -9 -16.1707 53.3431 11
0 4 -8 26581.1 794.341 14
0 4 -8 27472.3 930.383 11
0 4 -8 27627.9 833.107 25
0 4 -7 3170.97 282.681 14
0 4 -7 3313.8 336.164 11
0 4 -7 3318.74 298.181 25
0 -4 6 3371.74 631.243 27
0 4 -6 4103.43 418.855 2
0 -4 5 2026.95 482.357 27
0 4 -5 2796.41 328.709 2
0 4 -4 20386.9 887.192 8
0 4 -4 20999.1 905.749 2
0 4 -3 857.944 155.802 5
0 4 -3 994.797 191.722 2
0 4 -3 839.64 173.565 8
0 4 -2 4047.85 357.423 8
0 4 -2 4515.65 348.447 5
0 4 -1 303.294 97.1042 8
0 -4 1 232.858 181.736 27
0 4 -1 361.789 102.139 5
0 -4 1 176.658 70.8715 4
0 -4 1 229.298 95.872 30
0 4 0 106803 1662.36 5
0 -4 0 102576 1881.07 30
0 4 0 84575.6 1265.17 1
0 -4 0 91938.5 1596.27 4
0 4 0 115261 1924.48 8
0 4 1 2505.49 262.332 5
0 4 1 1400.68 185.284 1
0 -4 -1 1985.55 233.749 4
0 4 1 3155.61 351.777 8
0 -4 -1 2126.87 267.687 30
0 -4 -2 11001.1 583.097 30
0 4 2 11990.6 692.214 8
0 -4 -2 10534.6 552.612 4
0 4 3 17379.5 701.353 1
0 -4 -3 19300.6 745.987 30
0 -4 -3 19883.6 781.29 4
0 -4 -4 31345.7 1025.97 4
0 4 4 32224.7 1264.61 8
0 -4 -4 30530.1 966.917 30
0 -4 -5 52063.1 1434.45 4
0 -4 -5 51890.2 1582.22 32
0 -4 -5 51021.8 1297.59 30
0 4 5 49444.1 1692.12 8
0 -4 -6 3395.05 344.312 30
0 -4 -6 3707.56 460.644 32
0 4 6 3133.38 452.931 8
0 -4 -6 3386.74 382.344 4
0 -4 -7 6971.01 586.303 4
0 -4 -7 7660.74 565.989 30
0 4 8 1822.94 320.333 16
0 -4 -8 2836.86 334.876 10
0 -4 -8 2671.62 367.45 30
0 4 9 886.19 235.235 16
0 -4 -9 1079.37 210.535 10
0 -4 -10 11247 650.927 10
0 4 10 10307.3 726.732 16
0 4 11 17621.2 914.877 16
0 -4 -11 20254.8 839.704 10
0 -4 -12 22.7286 41.2243 10
0 4 12 -35.7935 78.1055 16
0 -4 -13 -33.5013 40.6926 10
0 -4 -14 826.456 128.343 11
0 -4 -14 1544.42 176.734 10
0 5 -11 11.4397 18.4553 11
0 5 -10 2030.33 201.203 11
0 5 -9 680.959 125.755 11
0 5 -8 2828.46 276.137 11
0 5 -8 2478.83 228.202 14
0 5 -8 2545.37 233.47 25
0 5 -7 1246.86 192.447 11
0 5 -7 1273.27 178.181 14
0 5 -7 1208.28 174.999 25
0 5 -6 69.8364 24.6869 25
0 5 -6 89.4022 57.036 11
0 5 -6 -45.6634 78.6736 14
0 5 -5 13909.6 687.384 15
0 5 -5 15221.9 700.889 11
0 5 -5 13155.5 619.461 20
0 5 -5 13217.4 620.184 25
0 5 -4 14405.3 688.874 11
0 5 -4 10390 709.204 8
0 5 -3 10644.8 672.877 8
0 -5 3 6210.96 629.959 30
0 -5 2 1534.6 293.548 30
0 5 -2 4048.9 412.9 8
0 5 -1 3653.06 386.177 8
0 -5 1 3313.97 404.882 30
0 5 0 3190.33 357.704 8
0 -5 0 2678.08 356.755 30
0 -5 -1 1872.47 294.39 30
0 -5 -1 1234.63 221.196 4
0 5 1 1169.7 220.389 8
0 -5 -2 1586.55 261.941 30
0 -5 -2 1738.32 264.117 4
0 -5 -3 48189.6 1441.76 4
0 -5 -3 50816.7 1443.94 30
0 -5 -4 8565.07 601.766 30
0 -5 -4 8815.39 781.927 32
0 -5 -4 6308.77 569.189 4
0 5 4 9135.3 740.452 8
0 5 4 6557.86 517.145 1
0 -5 -5 38972.8 1446.63 4
0 -5 -5 36400 1578.6 32
0 5 5 36454.1 1570.78 8
0 -5 -5 40267.8 1345.13 30
0 -5 -6 104.27 109.805 32
0 5 6 218.775 133.678 8
0 5 6 416.754 171.31 1
0 -5 -6 189.827 111.081 4
0 -5 -6 211.512 106.381 30
0 5 7 10414.4 666.871 22
0 5 7 10749.9 737.694 24
0 5 7 11198 661.855 16
0 -5 -7 10031.2 684.901 10
0 -5 -8 10064.2 688.106 10
0 5 8 9809.63 630.088 16
0 5 8 9785.16 662.682 22
0 5 9 720.668 191.842 22
0 5 9 644.44 187.022 16
0 -5 -9 738.918 185.585 10
0 -5 -10 198.305 89.0756 10
0 5 10 187.753 110.941 16
0 5 10 54.1852 81.3335 9
0 5 11 5311.67 461.594 9
0 5 11 7156.18 550.482 16
0 5 12 936.195 188.66 16
0 -5 -12 1175.54 188.453 10
0 5 13 692.551 143.05 16
0 -5 -13 1362 182.566 10
0 -5 -14 50.0603 34.8781 10
0 6 -10 2469.25 171.929 11
0 6 -9 115.143 43.2689 11
0 6 -8 463.535 103.492 11
0 6 -7 3400.87 257.021 25
0 6 -7 5245.9 355.224 11
0 6 -6 412.1 106.479 11
0 6 -6 417.144 104.058 20
0 6 -6 209.128 74.8116 25
0 6 -5 218.001 70.3139 25
0 6 -5 374.326 106.853 20
0 6 -5 447.289 117.841 11
0 6 -5 426.156 111.725 15
0 6 -4 380.299 101.455 20
0 6 -4 357.34 106.864 25
0 6 -4 459.141 119.025 11
0 6 -4 296.387 81.8346 15
0 6 -3 308.06 98.6586 20
0 6 -3 339.999 114.235 11
0 6 -3 300.597 94.0175 15
0 6 -3 299.11 94.9005 25
0 6 -2 376.753 110.883 11
0 6 -2 485.921 135.924 15
0 6 -2 308.122 98.7959 20
0 6 -2 198.2 64.2292 25
0 6 -1 1584.99 222.023 25
0 6 -1 1890.26 263.718 15
0 -6 1 946.446 249.076 30
0 6 -1 1563.01 220.838 11
0 6 -1 1645.23 226.039 20
0 6 0 3054.19 393.582 8
0 6 0 3654.43 339.754 11
0 -6 0 2574.43 399.691 30
0 6 0 5100.64 455.209 15
0 6 0 4441.35 382.454 20
0 6 1 39.9817 46.7806 8
0 -6 -1 14.9904 121.612 30
0 -6 -2 2013.35 428.094 32
0 -6 -2 1828.42 321.747 30
0 6 2 2443.28 361.481 8
0 -6 -3 6796.34 618.817 30
0 -6 -3 5571.36 684.404 32
0 6 3 6708.16 629.928 8
0 6 4 188.157 113.661 24
0 6 4 327.292 103.859 22
0 6 4 161.223 94.9467 8
0 -6 -4 232.172 128.305 4
0 6 5 4261.79 403.258 16
0 6 5 3960.56 430.88 24
0 6 5 3705.72 368.643 22
0 6 6 1373.27 236.242 16
0 6 6 1238.19 250.42 24
0 6 6 1361.22 241.829 22
0 6 7 19391.8 863.477 16
0 6 7 17339.1 841.015 22
0 6 8 3349.67 385.829 22
0 6 8 3528.12 361.787 16
0 -6 -8 3265.21 401.22 10
0 6 9 -70.7249 80.1056 16
0 6 9 71.5994 66.9701 9
0 -6 -9 7.52762 48.5834 10
0 6 9 33.4899 67.7224 22
0 6 10 2419.93 307.639 9
0 -6 -10 3239.45 355.775 10
0 6 10 2029.45 295.05 22
0 6 10 2730.46 326.81 16
0 6 11 278.599 108.321 16
0 -6 -11 272.508 95.7341 10
0 6 11 91.2698 52.8666 9
0 6 12 1037.92 177.809 16
0 -6 -12 1326.66 184.678 10
0 6 13 240.639 76.1363 16
0 -6 -13 335.545 75.73 10
0 7 -8 959.808 111.505 11
0 7 -7 2412.95 205.36 11
0 7 -6 49.6631 31.3519 20
0 7 -6 46.4521 39.0919 11
0 7 -6 124.688 45.6727 25
0 7 -5 7.63392 26.2528 25
0 7 -5 19.2023 34.7797 11
0 7 -5 68.6144 28.7794 20
0 7 -4 1941.51 210.54 20
0 7 -4 2079.9 238.775 15
0 7 -4 1961 214.084 25
0 7 -4 2104.56 229.666 11
0 7 -3 1582.84 213.683 11
0 7 -3 1615.72 211.209 20
0 7 -3 1571.01 214.093 15
0 7 -3 1554.18 199.241 25
0 7 -2 1945.34 250.112 15
0 7 -2 1776.04 225.481 20
0 7 -2 1195.55 181.625 25
0 7 -2 1872.69 232.524 11
0 7 -1 14.0406 32.9213 11
0 7 -1 -13.7547 25.4299 20
0 7 -1 16.6704 28.8574 15
0 7 -1 -31.4408 36.0648 25
0 7 0 97.8192 62.5043 20
0 7 0 116.01 44.7544 15
0 7 0 116.061 66.5879 25
0 7 1 2509.58 279.872 25
0 7 1 3216.43 352.411 20
0 7 1 3445.18 378.335 15
0 7 1 3281.51 331.701 22
0 7 2 -27.8161 74.7628 20
0 7 2 -6.75409 68.3061 25
0 7 2 -18.7566 51.4036 22
0 7 2 -6.12558 77.6841 15
0 7 3 799.63 194.578 20
0 7 3 561.432 140.646 25
0 7 3 858.11 168.314 22
0 7 3 1138.22 246.282 15
0 7 4 168.328 78.6177 25
0 7 4 500.039 170.359 15
0 7 4 333.901 109.994 22
0 7 4 323.283 125.603 24
0 7 5 3542.08 346.088 22
0 7 5 3308.39 393.173 24
0 7 6 9670.1 599.225 16
0 7 6 8248.14 513.663 9
0 7 6 8696.26 549.218 22
0 7 7 1111.66 191.162 9
0 7 7 1025.4 205.464 22
0 7 7 1151.61 194.526 16
0 7 8 251.001 84.081 9
0 7 8 197.666 78.3868 16
0 7 8 262.664 109.475 22
0 7 9 280.941 92.7069 9
0 7 9 285.932 89.5311 16
0 7 9 166.85 62.9125 22
0 7 10 4549.63 365.954 9
0 7 10 4299.13 359.466 16
0 7 10 3668.7 347.69 22
0 7 11 -14.7555 55.8835 9
0 7 11 30.7424 48.4311 16
0 7 12 271.494 71.5716 16
0 8 -5 2816.8 199.89 20
0 8 -4 3785.2 256.799 20
0 8 -3 237.129 72.1551 20
0 8 -2 1476.35 191.816 15
0 8 -2 1474.88 181.005 20
0 8 -1 384.75 99.4778 15
0 8 -1 412.442 102.947 20
0 8 0 642.594 144.691 15
0 8 0 502.034 122.023 20
0 8 1 262.291 94.625 20
0 8 1 250.408 97.1938 15
0 8 2 244.957 87.3346 20
0 8 2 378.638 113.795 15
0 8 2 170.503 60.2151 22
0 8 3 203.561 68.9852 22
0 8 3 277.468 111.839 15
0 8 3 105.327 65.1854 20
0 8 4 535.663 120.542 22
0 8 4 402.133 132.792 15
0 8 4 319.433 86.2864 9
0 8 5 257.339 74.6638 9
0 8 5 343.857 102.364 22
0 8 6 1492.92 206.578 22
0 8 6 868.088 151.651 25
0 8 6 1191.41 172.095 9
0 8 7 595.787 118.197 9
0 8 7 670.443 128.239 16
0 8 7 819.714 158.168 22
0 8 7 457.944 104.794 25
0 8 8 308.741 88.381 9
0 8 8 265.293 89.4088 16
0 8 8 230.646 86.7621 22
0 8 9 1218.11 168.598 16
0 8 9 1231.53 177.947 22
0 8 9 1133.23 160.661 9
0 8 10 424.997 87.3274 16
0 8 10 461.282 95.117 9
0 9 -3 3025.07 192.369 20
0 9 -2 2495.16 192.726 20
0 9 -1 140.706 55.6169 20
0 9 0 82.2178 45.9471 15
0 9 0 136.925 49.4323 20
0 9 1 638.782 120.088 20
0 9 1 662.675 127.071 15
0 9 2 71.2948 33.8927 15
0 9 2 139.207 64.2627 20
0 9 3 97.8548 54.7336 15
0 9 3 -15.7199 31.3518 22
0 9 4 -47.5229 44.2188 22
0 9 5 -31.4634 39.1973 22
0 9 6 262.736 65.8526 9
0 9 6 442.834 94.7432 22
0 9 7 201.712 60.171 9
0 9 7 283.294 78.9508 22
-1 9 6 236.64 63.5547 22
-1 9 5 604.881 102.382 22
-1 9 4 260.407 73.6665 15
-1 9 4 367.444 77.8334 22
-1 9 3 142.45 44.5549 22
-1 9 3 166.176 62.4114 15
-1 9 2 175.263 44.2236 22
-1 9 2 346.267 82.3411 15
-1 9 1 981.728 129.707 20
-1 9 1 1004.75 138.874 15
-1 9 0 815.031 118.267 15
-1 9 0 732.294 109.481 20
-1 9 -1 1398.88 141.362 20
-1 9 -2 110.725 38.4676 20
-1 8 9 942.863 127.83 16
-1 8 9 1145.11 140.589 9
-1 8 8 196.283 73.9055 22
-1 8 8 196.868 71.4528 9
-1 8 8 175.833 61.8022 16
-1 8 7 248.548 74.4197 9
-1 8 7 290.088 84.1571 22
-1 8 7 292.771 86.0726 16
-1 8 6 24.2674 42.2501 22
-1 8 6 -19.2578 46.4595 9
-1 8 5 838.293 139.949 9
-1 8 5 1084.87 166.832 22
-1 8 4 2268.79 234.946 9
-1 8 4 3243.09 341.051 15
-1 8 4 2868.52 271.399 22
-1 8 3 18.1442 37.4051 22
-1 8 3 20.5847 46.5211 15
-1 8 2 1526.22 188.842 22
-1 8 2 1781.34 240.183 15
-1 8 2 1560.1 223.9 20
-1 8 1 265.614 95.7647 20
-1 8 1 277.472 88.3334 22
-1 8 1 217.11 89.2492 15
-1 8 0 9041.34 498.918 15
-1 8 0 8696.09 480.542 20
-1 8 -1 599.589 119.915 15
-1 8 -1 501.323 116.854 20
-1 8 -2 -7.96817 32.5475 15
-1 8 -2 -6.39516 37.3232 20
-1 8 -3 1640.99 174.009 20
-1 8 -3 1685.19 181.422 15
-1 8 -4 579.508 94.1857 20
-1 8 -5 -23.5985 34.5417 20
-1 7 11 4389.6 285.707 9
-1 7 11 5099.89 326.668 16
-1 7 10 743.843 148.21 16
-1 7 10 646.827 134.674 9
1 -7 -10 521.338 107.435 10
-1 7 9 1736.28 227.876 16
-1 7 9 1739.37 226.584 9
-1 7 9 1262.37 202.574 22
-1 7 8 309.261 110.101 16
-1 7 8 310.702 109.682 9
-1 7 8 213.795 93.8807 22
-1 7 7 1836.86 261.205 22
-1 7 7 1946.13 249.394 16
-1 7 6 1023.81 210.14 24
-1 7 6 1174.36 203.952 22
-1 7 6 1200.73 204.344 16
-1 7 5 5466.15 536.123 15
-1 7 5 4846.53 422.194 16
-1 7 5 5020.31 413.31 22
-1 7 5 5782.45 500.322 24
-1 7 4 49.3633 37.0823 22
-1 7 4 124.226 77.0787 24
-1 7 4 62.9919 67.2709 15
-1 7 3 11145.7 746.714 15
-1 7 3 10030.4 566.21 22
-1 7 2 192.935 89.8417 15
-1 7 2 2.93963 69.1537 22
-1 7 2 195.607 112.068 20
-1 7 1 377.553 98.1714 22
-1 7 1 540.422 158.269 20
-1 7 1 462.406 133.6 15
-1 7 0 -0.50433 62.3967 22
-1 7 0 144.525 82.011 20
-1 7 0 85.036 79.2875 15
-1 7 -1 187.056 87.5914 15
-1 7 -1 158.55 86.566 20
-1 7 -2 225.339 81.3879 15
-1 7 -2 400.52 110.977 20
-1 7 -3 8435.02 483.678 15
-1 7 -3 8819.54 465.347 20
-1 7 -3 8745.36 480.688 11
-1 7 -4 309.431 88.8595 11
-1 7 -4 361.231 93.7591 20
-1 7 -4 363.851 98.5536 15
-1 7 -5 1122.64 148.542 20
-1 7 -5 1302.39 168.187 11
-1 7 -6 364.307 75.7809 20
-1 7 -6 400.423 88.0807 11
-1 7 -7 315.063 72.8609 11
1 -6 -12 1107.33 153.056 10
-1 6 12 805.425 138.119 16
-1 6 11 6207.32 420.96 9
-1 6 11 7513.32 487.34 16
1 -6 -10 658.183 160.817 10
-1 6 10 636.375 170.757 16
-1 6 10 533.37 138.532 9
1 -6 -9 422.326 132.757 10
-1 6 9 188.138 104.076 22
-1 6 9 463.393 147.522 16
-1 6 8 4422.47 414.605 16
1 -6 -8 3720.48 418.396 10
-1 6 8 3477.89 392.436 22
-1 6 7 18056.1 955.582 24
-1 6 7 16906 867.239 22
-1 6 7 17743.9 826.73 16
1 -6 -7 15943 893.972 10
1 -6 -6 1858.61 322.097 10
-1 6 6 2215.29 339.272 24
-1 6 6 2089.73 297.957 22
-1 6 6 1999.16 286.372 16
-1 6 5 2537.09 352.562 24
-1 6 5 2026.74 289.702 16
-1 6 5 2658.98 408.651 15
-1 6 5 1877.92 277.347 22
-1 6 4 7767.1 532.508 22
-1 6 4 7535.29 562.138 16
-1 6 4 8951.2 732.499 15
-1 6 4 7145.34 574.77 24
-1 6 3 2702.54 311.053 22
-1 6 3 2610.05 342.919 24
-1 6 3 2995.48 414.407 15
-1 6 2 2821.84 387.985 15
-1 6 2 2572.12 292.495 22
-1 6 2 2988.87 358.32 20
-1 6 2 2436.07 332.869 24
-1 6 1 1234.01 227.45 20
-1 6 1 1161.35 236.834 15
-1 6 1 1166.1 201.633 22
-1 6 0 32109.3 1150.91 15
-1 6 0 32010.8 1094.1 20
-1 6 0 30428.1 1012.33 22
-1 6 -1 7749.04 500.277 11
-1 6 -1 7924.81 521.744 20
-1 6 -1 9036.67 580.202 15
-1 6 -2 4303.01 363.209 20
-1 6 -2 4710.58 383.07 11
-1 6 -2 5006.3 421.728 15
-1 6 -3 1461.38 211.511 11
-1 6 -3 1666.92 240.243 15
-1 6 -3 1567.51 215.114 20
-1 6 -4 4610.98 357.667 20
-1 6 -4 4487.93 369.17 11
-1 6 -4 4418.96 374.517 15
-1 6 -5 2504.99 267.167 11
-1 6 -5 2238.67 236.919 20
-1 6 -5 2469.13 269.018 15
-1 6 -6 331.686 89.0945 20
-1 6 -6 233.779 91.6222 11
-1 6 -7 1407.81 181.535 11
-1 6 -8 2376.11 216.679 11
-1 6 -9 7.85161 20.9418 11
-1 6 -10 44.3365 27.8283 11
1 -5 -13 461.187 98.2358 10
-1 5 13 220.423 72.3158 16
-1 5 12 214.758 92.4748 16
1 -5 -12 606.656 129.485 10
-1 5 11 611.457 151.143 9
-1 5 11 983.614 208.556 16
1 -5 -10 6396.53 493.912 10
-1 5 10 5984.07 506.565 16
-1 5 10 4998.99 467.525 9
1 -5 -9 12671.4 735.968 10
-1 5 9 11257.8 695.701 16
-1 5 8 5873.96 586.327 24
-1 5 8 6171.48 502.627 16
1 -5 -8 7519.11 597.138 10
-1 5 8 5853.15 537.991 22
-1 5 7 6895.91 531.436 16
1 -5 -7 7322.61 606.313 10
-1 5 7 6960.77 573.747 22
-1 5 7 7622 641.172 24
1 -5 -6 1790.79 293.992 10
-1 5 6 1810.17 275.188 16
-1 5 6 1768.25 296.687 24
-1 5 6 1783.81 283.29 22
-1 5 5 6190.32 551.635 24
-1 5 5 5696.9 650.92 8
1 -5 -5 6120.8 567.449 30
1 -5 -5 5874.17 577.762 4
1 -5 -4 26985.8 1143.21 30
1 -5 -4 27578 1203.28 4
-1 5 4 26070.2 1322.69 8
1 -5 -3 3252.65 396.104 4
1 -5 -3 3138.01 386.146 30
-1 5 3 3812.59 488.764 8
1 -5 -2 1305.29 252.306 4
1 -5 -2 1524.53 269.134 30
-1 5 2 1612.64 307.169 8
-1 5 1 12705.8 845.561 8
1 -5 -1 8923.84 646.559 4
1 -5 -1 9805.18 705.701 30
-1 5 1 11493.1 720.812 5
1 -5 0 8527.89 662.352 30
-1 5 0 9660.51 653.741 5
1 -5 0 7157.19 583 4
-1 5 0 9278.25 654.743 8
1 -5 1 6244.18 593.038 30
-1 5 -1 4671.45 455.285 8
-1 5 -1 5215.65 485.169 5
-1 5 -2 4711.15 457.1 8
-1 5 -2 4920.15 471.817 5
-1 5 -3 9964.19 668.001 5
-1 5 -3 10099.5 679.321 8
-1 5 -4 25013.7 951.969 15
-1 5 -4 26694.7 898.267 20
-1 5 -5 9895.69 598.135 15
-1 5 -5 9675.52 540.056 20
-1 5 -5 10976 602.229 11
-1 5 -6 615.301 147.895 11
-1 5 -6 550.959 138.018 20
-1 5 -7 2368.47 271.822 11
-1 5 -8 146.906 72.677 11
-1 5 -9 248.795 81.2051 11
-1 5 -10 1023.38 140.607 11
-1 5 -11 304.875 66.4989 11
1 -4 -14 1706.36 171.592 10
1 -4 -14 1029.33 133.482 11
1 -4 -13 2055.42 219.031 10
1 -4 -12 3315.6 306.176 10
-1 4 12 1876.92 269.017 16
-1 4 11 3757.74 422.835 16
1 -4 -11 5191.75 416.229 10
1 -4 -10 4561.01 406.11 10
-1 4 10 4185.08 461.442 16
1 -4 -9 2195.88 294.054 10
-1 4 9 2183.53 347.454 16
-1 4 8 5697.87 532.737 16
-1 4 8 6763.39 651.975 24
1 -4 -8 6744.32 522.721 10
-1 4 7 6417.98 533.618 16
1 -4 -7 7820.63 610.656 30
-1 4 7 5373.5 673.386 8
1 -4 -7 6786.02 618.287 4
1 -4 -6 981.709 200.997 30
1 -4 -6 1211.94 244.508 4
-1 4 6 534.366 185.242 8
1 -4 -6 1433.97 308.067 32
1 -4 -5 671.146 168.351 30
-1 4 5 390.077 146.868 8
1 -4 -4 10447.6 601.945 30
1 -4 -4 11963.2 675.157 4
-1 4 4 10082.9 752.394 8
1 -4 -3 10450 613.977 4
-1 4 3 10428.3 737.534 8
1 -4 -3 10411.1 605.084 30
1 -4 -2 1729.06 248.809 30
1 -4 -2 1503.95 228.359 4
-1 4 2 1447.88 261.877 8
-1 4 2 1406.9 234.388 5
-1 4 1 1473.12 233.628 5
-1 4 1 951.068 203.347 8
1 -4 -1 1224.95 217.06 30
1 -4 -1 1515.44 228.782 4
-1 4 0 54508.7 1332.17 5
1 -4 0 49000.8 1321.1 4
-1 4 0 54065 1474.14 8
1 -4 0 49142 1386.17 30
1 -4 1 15030.8 740.625 4
-1 4 -1 18179.7 755.264 5
1 -4 1 16517.3 864.572 30
-1 4 -1 17248.5 775.968 8
-1 4 -2 27480.4 964.844 8
1 -4 2 28329 1490.49 27
-1 4 -2 28247.4 947.7 5
1 -4 3 3577.43 588.167 27
-1 4 -3 3991.21 368.417 5
-1 4 -3 4096.83 382.962 8
1 -4 4 1834.18 435.42 27
-1 4 -4 1536.83 243.233 8
-1 4 -4 1950.68 291.005 2
-1 4 -5 7451.51 590.15 2
1 -4 5 4932.93 740.425 27
-1 4 -6 4153.79 396.279 11
-1 4 -6 2943.54 388.211 2
-1 4 -6 4042.83 420.369 21
-1 4 -7 33968.4 1116.38 11
-1 4 -7 35839.4 1235.83 21
-1 4 -8 134.233 68.7325 11
-1 4 -8 16.2617 31.7397 21
-1 4 -8 156.891 72.0716 25
-1 4 -8 223.274 89.1494 14
-1 4 -9 408.563 111.847 11
-1 4 -9 194.24 89.7438 21
-1 4 -10 579.132 130.447 11
-1 4 -10 555.575 129.315 21
-1 4 -11 1596.56 186.355 11
-1 4 -11 1366.72 181.903 21
-1 4 -12 -35.1359 32.3795 11
1 -3 -14 119.54 53.5297 11
1 -3 -14 257.151 71.6549 10
1 -3 -13 115.996 47.2872 10
1 -3 -12 6677.94 427.924 10
-1 3 11 2345.1 364.764 16
1 -3 -11 3473.36 325.937 10
-1 3 10 -0.60754 76.8807 16
1 -3 -10 44.7654 57.4361 10
-1 3 9 1445.42 287.935 16
1 -3 -9 1689.93 241.361 10
1 -3 -9 2153.31 300.481 17
-1 3 8 256.639 187.551 31
1 -3 -8 219.495 122.431 26
1 -3 -8 535.929 161.89 30
1 -3 -7 12687.1 746.712 4
1 -3 -7 12196.1 822.698 26
1 -3 -7 13829.9 725.171 30
1 -3 -6 18548.9 848.85 4
1 -3 -6 18058.6 740.3 30
1 -3 -6 19158.5 986.255 26
1 -3 -5 1290.34 190.521 30
-1 3 5 1197.82 390.379 31
1 -3 -5 1535.3 216.132 4
1 -3 -5 1714.39 280.847 26
-1 3 4 216.015 149.686 31
1 -3 -4 246.828 92.4128 26
1 -3 -4 317.199 91.965 4
1 -3 -4 390.019 99.3295 30
-1 3 3 55265.5 1287.84 5
1 -3 -3 55886.2 1141.82 30
1 -3 -3 52609.1 1222.39 26
1 -3 -2 310.349 78.0764 27
1 -3 -2 251.122 68.5268 26
-1 3 2 464.539 119.857 5
1 -3 -2 253.448 79.5258 30
1 -3 -2 432.484 105.34 4
1 -3 -1 122545 1542.88 26
1 -3 -1 122202 1795.45 30
-1 3 1 124648 1743.52 5
1 -3 -1 127738 1774.84 4
1 -3 0 14832.2 760.59 27
1 -3 0 15842.7 628.594 4
1 -3 1 101501 1646.77 4
1 -3 1 116632 2397.32 27
-1 3 -1 107939 1537.54 5
-1 3 -1 124317 1879.96 8
-1 3 -2 20395.8 766.603 2
-1 3 -2 19460.7 639.33 5
-1 3 -2 20627.5 719.668 8
1 -3 3 30886.9 1449.76 27
-1 3 -3 48825.1 1302.39 29
-1 3 -3 36997.1 906.391 5
1 -3 3 30033.9 1023.41 4
-1 3 -3 45425.7 1201.58 2
-1 3 -3 37518.8 990.532 8
-1 3 -4 730.933 154.874 2
-1 3 -4 629.667 157.844 29
1 -3 4 507.496 214.936 27
-1 3 -4 484.356 114.29 8
-1 3 -4 531.909 116.292 5
-1 3 -5 22863 880.467 2
1 -3 5 20988.6 1341.35 27
-1 3 -6 1740.99 279.304 29
1 -3 6 1163.46 346.942 27
-1 3 -6 1633.94 245.206 2
-1 3 -7 15173.5 874.219 29
-1 3 -7 13437.8 740.951 2
1 -3 7 13368.5 1194.9 27
-1 3 -8 147.439 62.4167 25
-1 3 -8 243.374 77.0282 14
-1 3 -8 173.977 58.6997 11
-1 3 -9 516.115 143.501 21
-1 3 -9 589.531 153.246 11
-1 3 -10 5023.48 417.341 11
-1 3 -10 4188.16 379.295 21
-1 3 -11 1914.02 232.998 21
-1 3 -11 2113.66 250.185 11
-1 3 -12 524.614 110.404 11
-1 3 -12 468.161 107.125 21
-1 3 -13 26.2674 16.8189 21
-1 3 -13 4.33271 20.3283 11
1 -2 -14 2038.41 215.724 11
1 -2 -14 1907.57 187.226 10
1 -2 -13 246.085 71.4186 10
1 -2 -12 2317.91 246.725 10
1 -2 -11 5442.03 401.153 10
1 -2 -10 30095 947.842 10
1 -2 -10 33239.8 1083.58 17
1 -2 -9 9994.05 616.062 19
-1 2 9 6794.5 799.8 7
1 -2 -9 9965.87 602.131 17
1 -2 -9 7642.83 702.41 26
1 -2 -9 7716.03 678.358 29
1 -2 -9 8548.73 509.324 10
1 -2 -8 33714.3 1367.53 26
-1 2 8 38144.2 2230.88 31
-1 2 8 33924 1585.39 7
1 -2 -7 116638 2370.92 26
1 -2 -7 110414 1967.09 4
-1 2 7 117234 2631.91 7
1 -2 -7 114312 1960.25 30
-1 2 6 72039.2 2312.77 31
1 -2 -6 73560.6 1357.31 30
-1 2 6 69853.6 1913.15 6
-1 2 6 75170.6 1818.74 7
1 -2 -6 72316.1 1463.05 4
1 -2 -5 21827.5 870.083 26
-1 2 5 22712.2 979.742 6
1 -2 -5 21456 630.817 30
-1 2 5 22652.5 865.299 7
-1 2 5 20833.4 1093.65 31
1 -2 -5 20695.6 698.874 4
1 -2 -4 61564.6 1124.2 4
1 -2 -4 63232.6 1313.27 26
1 -2 -4 61019.4 1010.76 30
-1 2 4 67911.2 1746.2 31
-1 2 4 66097.1 1493.72 6
-1 2 4 67389.1 1327.89 7
1 -2 -3 27239.3 689.564 4
-1 2 3 29399.1 1115.47 31
-1 2 3 32376.1 790.328 7
-1 2 3 30541.9 923.336 6
1 -2 -3 26797.5 748.92 26
1 -2 -3 23286.3 600.458 30
-1 2 3 24992.5 741.709 5
-1 2 2 30007.4 760.176 5
-1 2 2 31299.7 633.873 7
1 -2 -2 30574.9 716.543 4
1 -2 -2 35823 767.633 27
-1 2 2 38251.6 938.162 6
-1 2 2 32202.7 1154.13 31
1 -2 -2 29711.6 706.933 30
1 -2 -2 36820.2 865.278 26
1 -2 -1 12144.7 476.496 30
-1 2 1 11542 454.045 5
1 -2 -1 12078.5 444.669 4
-1 2 1 14279.8 536.337 6
1 -2 -1 13463.1 487.035 27
-1 2 0 999999 4427.4 8
1 -2 0 991735 4168.65 4
1 -2 1 8848.03 650.923 27
-1 2 -1 16713.3 592.792 8
1 -2 1 10790.5 474.527 4
-1 2 -1 11539.9 428.273 5
-1 2 -1 11735.2 471.367 2
1 -2 1 6964.29 374.759 3
-1 2 -1 14707.1 619.806 29
1 -2 2 837.703 268.686 27
-1 2 -2 2003.35 180.125 5
-1 2 -2 2536.21 248.146 29
1 -2 2 1619.01 200.362 31
-1 2 -2 2247.78 212.633 8
1 -2 2 1059.11 162.881 7
1 -2 2 1179.69 172.12 3
-1 2 -3 6997.9 420.943 29
1 -2 3 5948.66 427.899 3
-1 2 -3 6084.11 339.883 8
1 -2 3 4137.45 528.951 27
-1 2 -3 6141.73 371.083 2
1 -2 3 4404.16 385.334 7
1 -2 3 6346.34 446.132 31
-1 2 -3 5909.2 305.032 5
-1 2 -4 9119.86 478.46 29
-1 2 -4 9715.57 494.139 2
1 -2 4 8641.04 729.703 27
1 -2 4 11457.2 657.931 31
-1 2 -4 6895.32 376.418 8
-1 2 -4 9189.28 403.84 5
1 -2 4 10083.9 620.171 3
1 -2 4 8978.01 597.817 7
-1 2 -5 10796.5 471.168 5
-1 2 -5 11374.3 570.978 29
1 -2 5 10440.6 728.913 7
-1 2 -5 11076 565.927 2
1 -2 5 11622.5 727.66 3
-1 2 -6 13943.7 679.62 29
1 -2 6 15535.1 962.644 7
-1 2 -6 13950.4 701.434 2
1 -2 6 13339.6 843.851 3
1 -2 7 7939.78 699.927 3
-1 2 -7 8542.57 579.848 29
-1 2 -7 8633.36 570.39 2
1 -2 7 6428.24 770.845 27
-1 2 -8 474.319 141.799 2
-1 2 -8 585.178 161.823 29
-1 2 -9 1120.95 181.324 14
-1 2 -9 1007.4 201.364 11
-1 2 -10 5421.74 446.516 21
-1 2 -10 6247.44 497.975 11
-1 2 -11 108.212 51.731 11
-1 2 -11 15.7375 49.9341 21
-1 2 -12 1010.82 169.288 11
-1 2 -12 769.883 148.748 21
-1 2 -13 26.7532 24.7009 11
-1 2 -13 53.479 37.7382 21
-1 2 -14 1917.32 176.03 21
1 -1 -14 1840.19 200.669 11
1 -1 -13 92.8993 36.4674 10
1 -1 -13 49.4824 43.1619 11
1 -1 -12 2986.22 273.734 10
1 -1 -11 1460.21 202.759 10
1 -1 -10 772.318 162.002 19
1 -1 -10 528.995 120.671 10
1 -1 -10 657.501 163.739 17
1 -1 -9 4379.52 502.96 26
-1 1 9 2667.17 516.084 6
1 -1 -9 4257.18 455.019 29
1 -1 -9 4807.77 437.398 2
1 -1 -9 5684.08 423.194 19
-1 1 9 5019.89 866.7 31
1 -1 -9 5077.72 402.068 17
1 -1 -9 4336.17 342.342 10
-1 1 9 3760.74 572.55 7
1 -1 -8 12019 709.598 29
-1 1 8 13006.8 1160.2 31
1 -1 -8 11516.2 741.095 26
-1 1 8 12023.8 900.716 7
-1 1 7 78274.2 2084.54 7
-1 1 7 79367.9 2364.15 31
1 -1 -7 76325 1775.42 26
-1 1 6 11424.3 722.338 7
1 -1 -6 10992.8 512.685 30
1 -1 -6 10230.9 489.73 4
-1 1 6 10666.8 718.251 6
-1 1 6 11644.5 800.846 31
1 -1 -5 5500.96 307.175 30
-1 1 5 5044.68 457.907 31
-1 1 5 5588.36 470.578 6
-1 1 5 5747.61 457.723 7
1 -1 -5 5361.93 321.614 4
1 -1 -5 5706.02 405.168 26
1 -1 -4 573018 2701.56 30
-1 1 4 577609 4284.51 31
1 -1 -4 580451 3517.68 26
1 -1 -3 44038.7 671.867 30
1 -1 -3 44537.2 857.625 26
-1 1 3 42476.5 965.172 31
1 -1 -2 368256 1836.69 30
-1 1 2 364394 2127.88 5
-1 1 1 359463 2014.66 5
1 -1 -1 365403 1920.91 30
1 -1 -1 373551 1983.61 27
-1 1 1 350208 2175.18 6
-1 1 1 341001 1963.26 31
1 -1 0 9271.63 331.426 3
-1 1 0 11672.6 332.033 6
1 -1 1 593924 2334.31 7
1 -1 1 614132 1712.2 31
-1 1 -2 101007 1160.57 8
-1 1 -2 89560.3 1026.48 5
1 -1 2 83842.4 1322.29 3
-1 1 -2 89519.3 1123.6 2
1 -1 2 99001.4 1139.28 31
-1 1 -3 177789 1771.72 2
1 -1 3 171467 2125.5 3
-1 1 -3 172211 1432.72 8
-1 1 -3 166242 1446.22 5
1 -1 3 164527 2046.1 7
-1 1 -4 53045.5 1037.39 2
-1 1 -4 53331.6 860.629 5
1 -1 4 54016.3 1334.1 3
1 -1 4 51456.9 1311.6 7
-1 1 -5 2484.5 246.164 2
1 -1 5 2122.4 294.891 7
1 -1 5 2512.2 318.12 3
-1 1 -5 2355.06 246.54 26
-1 1 -5 2376.2 243.421 29
-1 1 -5 1747.74 168.32 5
1 -1 6 1054.4 263.104 3
-1 1 -6 1745.19 224.593 29
-1 1 -6 1952.42 248.385 26
-1 1 -6 1655.69 227.442 2
-1 1 -7 6448.71 467.662 2
1 -1 7 6463.37 642.981 7
1 -1 7 5478.66 563.021 3
-1 1 -7 6115.92 454.816 29
1 -1 8 2653.43 452.707 7
-1 1 -8 2566.72 327.397 29
-1 1 -8 2756.05 331.016 2
1 -1 8 2405.54 390.006 3
-1 1 -9 3925.4 387.017 11
-1 1 -9 2844.89 359.97 2
1 -1 9 3944.85 736.637 31
-1 1 -9 2801.27 281.906 10
-1 1 -9 2484.58 345.434 29
1 -1 9 2314.78 499.109 7
1 -1 9 2511.17 437.593 3
-1 1 -10 44334.3 1342.69 11
-1 1 -11 125.759 81.703 11
-1 1 -11 7.48067 47.9217 12
-1 1 -12 964.831 186.067 11
-1 1 -13 1073.66 172.67 11
-1 1 -13 925.144 158.786 21
-1 1 -14 234.47 70.1596 21
-1 1 -14 190.677 66.0201 11
1 0 -14 -24.6003 37.3806 11
1 0 -13 2353.51 253.127 11
1 0 -12 3636.14 336.825 11
1 0 -12 3240.6 285.345 10
1 0 -11 159.142 67.6441 10
1 0 -10 6938.98 448.543 10
1 0 -10 7581.55 471.698 19
1 0 -10 7017.7 464.9 17
1 0 -9 471.323 148.691 2
-1 0 9 565.931 284.968 31
1 0 -9 96.9648 84.2711 26
1 0 -9 184.568 74.2278 19
1 0 -9 259.04 88.4614 17
1 0 -8 15065.3 715.104 2
1 0 -8 14086.4 741.571 29
1 0 -8 12532 747.562 26
-1 0 8 14639.2 1007.22 7
-1 0 8 14307 1197.25 31
-1 0 7 17273.8 1067.09 31
1 0 -7 15229.7 747.554 26
1 0 -7 18535.9 759.747 29
-1 0 7 13906.1 913.058 6
1 0 -7 16709.5 692.077 2
-1 0 7 12352.2 894.733 7
-1 0 6 50952.6 1567.98 6
-1 0 6 49331.9 1478.07 31
-1 0 6 50190.1 1584.28 7
1 0 -6 52880 1141.65 29
1 0 -5 2371.76 251.932 26
-1 0 5 2165.08 309.259 7
-1 0 5 2093.24 275.712 6
-1 0 5 1860.73 262.595 31
1 0 -4 230223 2067.71 26
-1 0 4 235902 2658.71 7
-1 0 4 201580 1816.81 28
-1 0 4 204265 2381.1 6
1 0 -4 222227 1684.07 4
-1 0 4 205900 2397.84 31
1 0 -4 216221 1700.8 30
1 0 -3 61654.2 750.567 30
-1 0 3 60412.5 951.081 28
1 0 -3 74170.5 825.598 4
-1 0 3 65133.2 1164.67 6
-1 0 3 70179.5 1227.75 31
1 0 -2 410.056 45.4516 30
1 0 -2 411.453 52.9019 4
-1 0 2 397.498 45.5938 5
-1 0 1 242428 1240.22 5
1 0 -1 240548 1144.35 4
1 0 0 71421.2 613.492 1
-1 0 0 70508.4 758.582 29
1 0 1 71034 669.401 1
-1 0 -1 71172.3 669.172 28
-1 0 -1 72037.4 572.153 2
-1 0 -2 261.345 54.6338 32
-1 0 -2 243.423 27.7698 8
1 0 2 236.035 96.2904 31
-1 0 -2 383.205 42.6823 28
1 0 2 230.808 99.8894 7
-1 0 -3 17910.5 430.545 32
1 0 3 18394.7 641.243 7
1 0 4 366.527 137.129 31
-1 0 -4 205.424 57.9003 32
1 0 4 74.0807 56.3207 3
1 0 4 245.861 104.222 7
-1 0 -4 114.396 51.7486 29
-1 0 -4 192.136 62.9894 26
-1 0 -5 832.357 143.857 29
-1 0 -5 696.05 125.348 26
-1 0 -5 610.059 113.007 2
1 0 5 459.466 137.793 3
-1 0 -6 125.357 61.2788 2
-1 0 -6 66.0683 48.4427 5
1 0 6 28.1234 71.7182 3
-1 0 -6 139.343 66.6865 26
1 0 6 41.3587 49.0427 7
-1 0 -6 145.435 69.0187 29
-1 0 -7 128936 1883.6 2
-1 0 -7 116176 2034.77 26
1 0 7 111455 2371.11 3
-1 0 -7 116842 1909.4 29
1 0 7 121299 2593.04 7
1 0 7 126382 3081.44 31
1 0 8 1754.51 414.606 31
1 0 8 1651.4 362.084 7
-1 0 -8 1820.31 280.933 26
1 0 8 1625.05 324.974 3
-1 0 -8 1668.75 254.059 29
-1 0 -8 1786.6 256.545 2
1 0 9 1640.68 350.816 3
-1 0 -9 2082.8 330.607 26
1 0 9 1962.95 412.88 7
1 0 9 1876.26 522.545 31
-1 0 -9 2305.46 309.72 2
-1 0 -9 2011.96 303.172 29
-1 0 -10 1741.25 220.543 10
-1 0 -10 2068.12 299.052 11
-1 0 -11 21051.3 933.024 11
-1 0 -11 16058.4 665.28 10
-1 0 -12 1028.21 203.406 11
-1 0 -13 6436.3 456.183 11
-1 0 -13 4953.23 368.801 12
-1 0 -14 342.185 85.787 12
-1 0 -14 493.452 120.997 21
-1 0 -14 372.485 92.3015 11
-1 0 -15 279.039 72.8952 21
1 1 -14 206.751 59.442 21
1 1 -14 248.383 62.8559 11
1 1 -13 939.765 151.519 11
1 1 -12 2898.76 286.338 11
1 1 -11 1760 232.607 11
1 1 -10 466.059 154.404 14
1 1 -10 393.581 112.956 19
1 1 -10 389.87 107.757 11
1 1 -9 125.366 57.3668 14
1 1 -9 40.3044 54.7853 19
1 1 -8 955.098 206.583 26
-1 -1 8 764.973 249.461 7
-1 -1 8 1611.69 383.468 31
1 1 -8 1017.88 198.452 2
-1 -1 7 22410 1165.04 6
-1 -1 7 22434.8 1215.07 7
-1 -1 7 32118.5 1406.58 31
1 1 -7 29639.8 976.718 2
1 1 -7 27802.5 983.163 26
1 1 -6 5571.1 378.038 29
1 1 -6 4664.74 359.447 26
1 1 -6 5225.09 367.999 2
-1 -1 6 4396.75 461.062 6
-1 -1 6 3776.38 480.046 7
-1 -1 6 5276.29 535.815 31
-1 -1 5 111203 2034.19 6
1 1 -5 125557 1698.51 26
-1 -1 5 75960.5 2041.81 7
1 1 -5 111830 1547.93 2
-1 -1 5 134648 2371.49 31
1 1 -5 93758.2 1377.85 29
1 1 -4 11539.2 474.914 26
-1 -1 4 7227.3 458.929 28
1 1 -4 11584.6 425.722 29
1 1 -4 8707.8 388.206 2
-1 -1 4 11316.8 638.414 31
-1 -1 4 9718.13 558.12 6
-1 -1 3 17060.8 741.613 28
1 1 -3 16324.2 428.675 29
1 1 -3 19387.5 511.332 26
-1 -1 3 18375.1 733.835 31
1 1 -3 14491.2 453.628 2
-1 -1 3 19625.6 715.99 6
-1 -1 2 4794.74 373.239 28
1 1 -2 2891.95 143.717 29
-1 -1 2 3411.83 277.719 6
1 1 -2 2681.6 173.92 2
-1 -1 2 1746.63 112.641 32
1 1 -2 3588.32 181.821 26
1 1 -1 31179.6 505.147 2
1 1 -1 35484 480.38 26
-1 -1 1 34337.8 605.03 32
1 1 -1 30989.4 291.182 29
1 1 0 24793.4 391.86 3
1 1 0 24254.8 356.433 2
1 1 1 69934.4 667.053 8
-1 -1 -1 70590 643.151 30
1 1 1 69841.8 764.128 3
1 1 2 10337.7 243.631 8
1 1 2 13030.8 376.877 27
-1 -1 -3 9682.07 369.967 32
-1 -1 -3 10927.1 334.451 28
1 1 4 22543.8 795.281 7
1 1 4 20608.2 943.375 31
-1 -1 -4 21451.5 664.993 26
-1 -1 -4 21197.5 602.094 30
1 1 4 22047.9 754.3 3
-1 -1 -5 9744.4 450.642 30
1 1 5 8104.62 502.69 3
1 1 5 8077.99 668.857 31
-1 -1 -5 9275.82 482.187 26
-1 -1 -5 9303.53 466.275 29
1 1 5 8714.04 552.013 7
1 1 6 2858.35 325.674 3
1 1 6 3274.16 377.312 7
-1 -1 -6 3191.32 294.873 29
-1 -1 -6 3798.45 337.318 26
1 1 6 2749.05 464.757 31
1 1 7 42699.9 1950.87 31
1 1 7 40006.2 1378.08 3
-1 -1 -7 44837.6 1194.05 29
-1 -1 -7 44369.7 1280.65 26
1 1 7 43837.4 1512.51 7
1 1 8 3656.36 705.843 31
1 1 8 4141.9 519.621 7
1 1 8 4016.24 477.442 3
-1 -1 -8 4942.92 463.886 26
-1 -1 -8 4834.72 430.93 29
1 1 9 9727.2 1206.65 31
1 1 9 10321.9 838.94 3
-1 -1 -9 12577.8 760.13 29
-1 -1 -9 12384.9 689.362 2
1 1 9 10293.8 927.322 7
-1 -1 -9 12417.7 810.008 26
-1 -1 -10 66196.9 1377.76 10
-1 -1 -11 11115.2 563.334 10
-1 -1 -12 5393.84 465.37 11
-1 -1 -12 4542.88 351.158 10
-1 -1 -13 1018.34 191.905 11
-1 -1 -13 967.946 152.527 10
-1 -1 -14 5798.81 378.193 12
-1 -1 -15 322.845 85.0483 21
-1 -1 -15 209.298 57.5537 12
1 2 -14 426.369 77.7945 11
1 2 -13 2301.32 214.561 11
1 2 -13 1812.27 196.181 21
1 2 -12 148.892 70.885 11
1 2 -11 1071.06 181.591 11
1 2 -10 441.061 115.306 19
1 2 -10 644.565 153.766 14
1 2 -10 896.111 176.838 11
1 2 -9 3012.26 334.713 14
1 2 -9 2155.93 280.006 11
1 2 -8 4100.76 445.142 26
-1 -2 8 5120.24 698.828 31
-1 -2 8 2607.55 464.093 3
-1 -2 8 2796.19 492.212 7
1 2 -8 4559.1 435.614 2
1 2 -8 5617.75 439.38 11
1 2 -7 22773.9 897.442 2
1 2 -7 20909.1 904.514 26
-1 -2 6 15.2765 47.1805 31
1 2 -6 57.5309 29.0694 2
1 2 -6 95.0869 61.5396 26
-1 -2 6 81.4035 74.45 7
-1 -2 5 4681.17 463.941 6
1 2 -5 5644.31 380.681 2
-1 -2 5 4961.95 602.006 31
1 2 -5 5855.9 368.564 26
-1 -2 5 4634.61 478.673 7
1 2 -4 95493.9 1433.55 2
1 2 -4 96882.8 1329.22 26
1 2 -4 74593.7 1188.59 29
-1 -2 4 70082.3 2102.31 28
-1 -2 4 100177 1940.9 6
-1 -2 4 99531 2166.15 31
-1 -2 3 140.641 53.8483 32
1 2 -3 288.313 63.5797 29
-1 -2 3 219.328 117.594 28
-1 -2 3 325 100.739 6
1 2 -3 369.613 84.2622 2
1 2 -2 1604.5 144.81 1
1 2 -2 1378.37 148.265 2
1 2 -2 1669.19 138.652 26
1 2 -2 1801.9 138.088 29
1 2 -2 1196.53 169.927 8
-1 -2 2 1393.52 171.302 32
-1 -2 2 1697 250.748 28
1 2 -1 95641.3 769.985 26
1 2 -1 98533.7 1101.54 1
-1 -2 0 130346 1220.95 30
1 2 0 131760 1336.09 1
-1 -2 0 151968 1698.97 32
-1 -2 0 102205 856.937 4
-1 -2 -1 17400.3 428.533 4
1 2 1 15985.8 321.869 3
-1 -2 -1 20176.4 470.316 30
1 2 1 21544.9 547.222 8
1 2 2 17094.4 460.808 3
-1 -2 -2 11648.3 395.442 4
1 2 2 17328.7 561.384 8
1 2 2 10866.6 433.635 7
-1 -2 -2 12437.7 380.06 30
-1 -2 -3 8860.36 402.731 26
1 2 3 11235.8 463.879 8
1 2 3 9968.45 476.213 7
1 2 3 12225.8 482.71 3
-1 -2 -3 9243.74 388.241 4
-1 -2 -3 9603.89 356.151 30
1 2 3 6586.01 212.339 27
-1 -2 -3 11998.5 498.83 32
-1 -2 -4 109763 1320.57 30
1 2 4 113715 1645.64 3
-1 -2 -4 128800 1651.75 32
-1 -2 -4 97606 1509.49 26
1 2 4 97261.2 1475.89 8
1 2 4 114417 1826.7 7
1 2 4 139054 2716.4 31
-1 -2 -5 70050.9 1209.68 32
1 2 5 65592.5 1373.35 3
-1 -2 -5 62918.6 1339.36 26
-1 -2 -5 68403.3 1166.42 30
1 2 5 58281.9 1466.81 7
1 2 5 70711.1 2152.21 31
-1 -2 -6 1401.9 219.802 26
1 2 6 1214.57 384.287 31
1 2 6 821.786 167.182 3
-1 -2 -6 744.687 140.675 32
1 2 6 1414.94 261.201 7
-1 -2 -6 865.847 147.566 30
1 2 7 1644.91 427.975 31
1 2 7 1255.92 244.965 3
-1 -2 -7 2060.85 287.665 26
-1 -2 -7 1734.04 240.31 30
1 2 7 1876.83 326.581 7
-1 -2 -7 1876.87 274.99 29
-1 -2 -8 522.531 154.617 29
-1 -2 -8 793.823 193.104 26
1 2 8 436.429 178.729 3
1 2 8 1030.6 280.183 7
1 2 8 293.851 235.005 31
-1 -2 -9 202.027 108.529 26
1 2 9 111.137 76.5567 3
1 2 9 316.995 308.429 31
1 2 9 315.111 177.217 7
-1 -2 -9 208.439 110.57 29
-1 -2 -10 33750 1001.35 10
-1 -2 -11 10678.1 560.007 10
-1 -2 -12 372.834 99.8386 10
-1 -2 -13 1430.94 230.812 11
-1 -2 -13 1396.19 188.315 10
-1 -2 -14 5882.64 403.743 12
-1 -2 -15 583.738 109.628 12
1 3 -13 335.517 70.3111 11
1 3 -12 5482.52 338.488 11
1 3 -11 1711.35 216.741 11
1 3 -10 19403.9 744.95 11
1 3 -10 20971.6 770.711 14
1 3 -9 111.169 66.7144 14
1 3 -9 77.5267 48.396 11
1 3 -8 1832.43 241.158 11
1 3 -8 1691.45 229.204 14
1 3 -8 1906.2 251.817 25
1 3 -7 56.1377 45.8483 2
-1 -3 7 46.3457 59.226 31
-1 -3 6 -34.2309 76.6565 7
1 3 -6 124.856 77.2268 2
-1 -3 6 189.139 133.312 31
-1 -3 5 12040.6 905.396 31
1 3 -5 15181.3 666.906 2
1 3 -4 52952.2 1161.6 2
-1 -3 4 23746.8 1317.2 28
-1 -3 4 26819.9 1442.98 31
-1 -3 4 45728.8 1473.16 6
1 3 -3 5314.11 341.691 2
1 3 -3 5778.03 403.913 8
1 3 -2 72893.3 1050.78 1
1 3 -2 60064.9 1080.86 2
1 3 -2 73229.9 1308.39 8
-1 -3 2 52863.2 1343.46 32
-1 -3 1 23420.9 764.508 30
1 3 -1 20110.5 543.797 1
1 3 -1 23247 718.484 8
1 3 -1 20170.5 621.271 2
1 3 0 4607.22 276.034 1
-1 -3 0 4163.98 232.942 4
1 3 1 96564.3 1459.15 8
-1 -3 -1 89083.6 1655.48 32
1 3 1 94964.8 1386.6 1
-1 -3 -1 86482.4 1286.27 30
1 3 2 72054.3 1353.98 8
-1 -3 -2 54257.3 1040.31 4
-1 -3 -2 53722.7 980.622 30
1 3 2 70220.9 1219.22 1
1 3 2 58084.6 740.789 3
-1 -3 -2 61491.3 1314.82 32
-1 -3 -3 15439.5 582.539 4
1 3 3 16282.2 623.981 1
-1 -3 -3 19752.2 763.137 32
1 3 3 18270.3 730.843 8
-1 -3 -3 16095.2 550.242 30
1 3 3 17375.7 571.06 3
1 3 4 21246.4 817.2 8
-1 -3 -4 21089 720.401 4
-1 -3 -4 16315.3 663.26 26
-1 -3 -4 22222.3 835.675 32
1 3 4 19086.2 707.504 7
1 3 4 25802.7 1368.96 31
-1 -3 -4 21601.1 660.563 30
1 3 4 25755.4 812.961 3
1 3 5 25426.7 916.615 7
-1 -3 -5 27691.6 887.201 4
1 3 5 27250.7 925.694 3
1 3 5 25010.6 939.721 8
-1 -3 -5 29429.2 826.808 30
-1 -3 -5 24053.3 895.022 26
-1 -3 -5 30120.1 968.596 32
1 3 6 28020.7 1097.48 7
-1 -3 -6 30998.9 1116.92 26
-1 -3 -6 33922.6 966.771 30
-1 -3 -6 34746.6 1092.31 32
1 3 6 31220.4 1110.64 3
-1 -3 -7 35191.5 1104.46 30
-1 -3 -7 35575 1307.83 26
1 3 7 43202.3 2108.11 31
1 3 7 31265.3 1260.9 3
-1 -3 -7 37983.7 1227.34 32
1 3 7 28654.5 1275.38 7
1 3 8 3223.08 507.49 7
-1 -3 -8 4300.63 491.048 26
1 3 8 3083.8 676.702 31
-1 -3 -8 4132.21 418.306 30
1 3 8 3532.41 479.086 3
1 3 9 497.401 309.968 31
-1 -3 -9 426.212 165.656 29
1 3 9 271.499 153.585 3
1 3 9 545.808 233.597 7
-1 -3 -9 611.044 181.638 30
-1 -3 -9 674.99 216.546 26
1 3 10 14.7256 77.0812 16
-1 -3 -10 435.128 123.316 10
1 3 11 6040.69 563.607 16
-1 -3 -11 7722.65 501.741 10
-1 -3 -12 404.366 105.715 10
-1 -3 -13 3142.38 288.772 10
-1 -3 -14 141.905 68.8065 10
-1 -3 -15 2041.31 212.286 12
1 4 -12 1063.49 124.994 11
1 4 -11 48.92 32.8569 11
1 4 -10 4883.86 339.369 14
1 4 -10 4728.67 344.298 11
1 4 -9 70.8302 48.6509 14
1 4 -9 59.9103 31.9623 11
1 4 -8 5095.79 373.874 25
1 4 -8 5087.63 395.654 11
1 4 -8 5129.06 364.368 14
1 4 -7 10943.2 563.369 25
1 4 -7 10555.2 539.96 14
1 4 -7 11747.8 614.232 11
1 4 -6 667.366 158.051 2
1 4 -6 544.008 124.02 14
1 4 -6 368.215 105.941 25
1 4 -6 403.307 112.921 11
1 4 -5 231.932 98.9957 2
-1 -4 5 69.2404 130.63 31
-1 -4 4 299.348 220.365 31
1 4 -4 8879.34 555.166 2
1 4 -3 1176.86 213.107 8
1 4 -3 1192.6 195.816 2
-1 -4 2 1141.24 212.513 30
1 4 -2 738.527 158.931 2
1 4 -2 996.276 175.965 8
-1 -4 2 644.265 174.563 32
1 4 -2 664.952 114.865 1
1 4 -1 37447 837.295 1
-1 -4 1 54887.8 1375.26 30
-1 -4 1 41728.3 1453.46 32
1 4 -1 61519.6 1352.58 8
1 4 0 2393.57 229.218 1
-1 -4 0 2827.95 295.142 30
1 4 0 3266.68 310.525 8
1 4 1 27175 792.08 1
-1 -4 -1 29215.2 1154.13 32
-1 -4 -1 24977.7 769 4
-1 -4 -1 34372.9 998.772 30
1 4 1 35183.6 1035.88 8
1 4 2 3870.38 351.314 8
1 4 2 3700.89 315.878 1
-1 -4 -2 3861.66 329.867 4
-1 -4 -2 4676.18 355.627 30
-1 -4 -2 4350.43 425.905 32
-1 -4 -3 17915.9 741.901 4
-1 -4 -3 17835.1 872.332 32
-1 -4 -3 18865.8 711.015 30
1 4 3 17668.8 710.718 1
1 4 3 20561.7 872.054 8
-1 -4 -4 15050.3 654.232 30
-1 -4 -4 14905.1 808.957 32
1 4 4 16598.4 859.733 8
-1 -4 -4 13429.3 671.102 4
1 4 4 13120.9 658.221 1
-1 -4 -5 7745.19 586.224 32
-1 -4 -5 6858.46 505.107 4
1 4 5 5697.49 451.251 7
1 4 5 7899.35 616.277 8
1 4 5 6719.1 512.555 1
-1 -4 -5 7650.21 476.404 30
1 4 6 5702.96 500.304 7
1 4 6 6594.48 804.06 31
-1 -4 -6 7170.37 494.54 30
-1 -4 -6 6490.23 561.988 32
1 4 7 29740.1 1852.19 31
1 4 7 29228.6 1224.07 7
-1 -4 -7 36643 1341.96 32
-1 -4 -7 38639.7 1237.73 30
-1 -4 -8 4435.55 463.697 30
1 4 8 3040.56 434.283 7
1 4 8 3986.68 700.301 31
1 4 9 1139.78 253.349 16
1 4 9 1211.01 221.223 9
-1 -4 -10 1507.36 246.941 10
1 4 10 760.594 187.485 16
1 4 11 124.201 79.9591 16
-1 -4 -11 327.153 120.923 10
-1 -4 -12 194.682 74.3637 10
1 4 12 97.6994 58.3244 16
1 4 13 2381.46 291.505 16
-1 -4 -13 3944.89 334.474 10
-1 -4 -14 2034.1 215.676 10
-1 -4 -15 2928.1 248.858 12
1 5 -11 2428.7 185.221 11
1 5 -10 2218.95 206.635 11
1 5 -9 2457.93 217.582 14
1 5 -9 2362.27 235.382 11
1 5 -8 544.369 116.922 25
1 5 -8 412.728 95.0815 14
1 5 -8 447.511 112.443 11
1 5 -7 3638.84 290.841 14
1 5 -7 3515.95 306.801 25
1 5 -7 3748.03 332.805 11
1 5 -6 574.017 121.378 14
1 5 -6 710.054 149.317 11
1 5 -6 552.76 128.366 25
1 5 -5 2594.87 289.915 11
1 5 -5 2337.67 266.821 25
1 5 -5 2254.21 248.843 14
1 5 -3 2910.84 362.794 8
-1 -5 3 754.953 271.663 28
1 5 -2 3025.25 348.767 8
-1 -5 2 1412.75 262.486 30
1 5 -1 24591.5 984.641 8
-1 -5 1 18181.6 913.809 30
-1 -5 0 14820.5 805.983 30
1 5 0 18320.1 851.644 8
-1 -5 -1 462.809 144.442 32
1 5 1 767.645 175.853 8
-1 -5 -1 436.548 137.392 30
1 5 1 509.016 117.052 1
1 5 2 28861.3 1091.27 8
1 5 2 19960.2 819.417 1
-1 -5 -2 22880.6 1153.16 32
-1 -5 -2 27468.9 1020.86 30
-1 -5 -3 22346.8 1138.12 32
-1 -5 -3 21227.4 949.529 4
-1 -5 -3 25202.9 971.374 30
1 5 3 24065 1029.97 8
1 5 4 3812.61 428.751 8
-1 -5 -4 4077.51 400.886 30
-1 -5 -4 3739.63 414.543 4
-1 -5 -4 3938.66 498.121 32
1 5 4 3180.27 373.81 1
-1 -5 -5 470.203 146.785 4
-1 -5 -5 573.335 155.624 30
-1 -5 -5 609.157 203.164 32
1 5 5 437.164 158.122 8
1 5 5 423.245 130.86 1
-1 -5 -6 21009.7 1172.73 32
-1 -5 -6 23261 993.878 30
1 5 7 4516.48 418.157 16
-1 -5 -7 4408 473.156 30
-1 -5 -7 3753.23 509.97 32
1 5 7 3135.95 437.896 1
1 5 8 2883.65 343.859 9
1 5 8 3351.84 355.494 16
1 5 8 3345.04 377.471 22
-1 -5 -8 3938.62 422.493 10
1 5 9 183.185 104.603 9
1 5 9 18.0568 34.6529 22
-1 -5 -9 41.8332 80.542 10
1 5 9 93.4093 74.8941 16
1 5 10 3914.7 422.048 9
1 5 10 4113.25 424.726 16
1 5 11 99.3959 77.4523 9
1 5 11 385.22 124.333 16
-1 -5 -11 449.727 138.92 10
1 5 12 1781.17 261.437 16
-1 -5 -12 2329.22 279.027 10
1 5 13 2149.35 259.743 16
-1 -5 -13 3085.79 291.161 10
-1 -5 -14 1972.11 229.723 12
-1 -5 -14 2136.45 208.938 10
1 6 -10 2377.05 169.782 11
1 6 -9 3.53859 29.2385 11
1 6 -8 749.729 115.04 25
1 6 -8 634.528 102.527 14
1 6 -8 675.686 116.679 11
1 6 -7 906.306 133.31 14
1 6 -7 814.209 137.398 25
1 6 -7 927.702 150.537 11
1 6 -6 2510.62 249.772 25
1 6 -6 2790.98 273.051 11
1 6 -6 2429.25 231.012 14
1 6 -5 826.831 151.734 25
1 6 -5 690.211 139.509 14
1 6 -5 999.374 173.938 11
1 6 -5 500.813 118.351 20
1 6 -4 7282.32 499.659 15
1 6 -4 7116.17 444.092 20
1 6 -4 7586.57 483.328 11
1 6 -4 7935.11 476.815 25
1 6 -3 184.587 97.1207 15
1 6 -3 315.073 98.2514 25
1 6 -3 219.703 86.8597 20
1 6 -3 148.666 66.0031 11
1 6 -2 2405.37 297.781 15
1 6 -2 1958.87 234.508 20
1 6 -2 2043.16 249.127 25
1 6 -2 2026.47 253.785 11
1 6 -1 14737.1 670.48 25
1 6 -1 14515.3 644.913 20
1 6 0 2126.27 320.303 8
-1 -6 0 1007.99 300.691 32
-1 -6 0 1722.42 307.18 30
-1 -6 -1 3964.81 464.715 30
1 6 1 4492.1 478.495 8
1 6 2 9176.03 689.832 8
-1 -6 -2 8223.94 651.735 30
-1 -6 -3 1293.81 337.8 32
1 6 3 1816.05 315.053 8
-1 -6 -3 1587.42 296.639 30
-1 -6 -4 5899.1 564.102 30
1 6 4 4509.29 508.523 8
-1 -6 -4 4652.35 615.595 32
-1 -6 -5 728.919 201.842 4
1 6 5 1116 203.532 16
1 6 5 968.443 245.677 8
1 6 5 1322.76 211.068 22
1 6 5 446.267 147.816 1
1 6 6 5682.05 439.508 9
1 6 6 5880.45 454.561 22
1 6 6 6174.65 484.326 16
1 6 7 2059.2 268.626 9
1 6 7 2522.57 309.265 22
1 6 7 2313.9 292.006 16
1 6 8 891.247 185.666 9
1 6 8 777.294 193.825 22
1 6 8 978.358 199.15 16
1 6 9 1553.26 244.807 16
1 6 9 1419.82 241.089 9
1 6 9 1195.72 239.662 22
1 6 10 2713.65 333.143 9
1 6 10 3177.67 345.258 16
1 6 10 2819.43 353.051 22
-1 -6 -10 3280.06 367.786 10
-1 -6 -11 3443.77 353.017 10
1 6 11 2596.06 300.076 9
1 6 11 2566.71 303.076 16
1 6 12 1067.59 173.685 9
1 6 12 1132.17 186.998 16
1 6 13 -124.355 70.0482 16
-1 -6 -13 12.5087 32.2853 10
1 7 -8 183.344 51.6729 11
1 7 -7 1210.41 133.054 25
1 7 -7 1120.14 140.335 11
1 7 -6 3090.04 232.969 25
1 7 -6 2938.24 241.418 11
1 7 -5 65.1558 31.1012 25
1 7 -5 14.2976 26.7269 20
1 7 -5 62.2469 46.8553 11
1 7 -4 685.403 134.586 11
1 7 -4 611.87 120.101 25
1 7 -4 812.774 139.534 20
1 7 -3 2803.87 267.449 20
1 7 -3 2995.94 302.903 15
1 7 -3 2525.02 263.259 11
1 7 -3 2486.73 258.836 25
1 7 -2 839.07 168.188 15
1 7 -2 653.153 138.274 25
1 7 -2 730.014 143.489 11
1 7 -2 783.687 146.247 20
1 7 -1 298.699 115.333 15
1 7 -1 174.601 75.1957 11
1 7 -1 285.122 100.148 25
1 7 -1 232.547 84.1221 20
1 7 0 13863 652.938 11
1 7 0 17815.7 839.375 15
1 7 0 14039.5 648.924 25
1 7 0 16462.1 703.064 20
1 7 1 570.376 158.449 15
1 7 1 563.22 142.249 20
1 7 1 151.48 30.4207 25
1 7 2 1486.32 216.971 25
1 7 2 2242.93 297.884 20
1 7 2 2220.07 332.765 15
1 7 2 1843.91 238.092 22
1 7 3 1669.17 226.511 22
1 7 3 1893.12 304.934 15
1 7 3 1028.38 187.393 25
1 7 3 1567.92 266.376 20
1 7 3 1464.77 220.369 9
1 7 4 8076.35 515.108 9
1 7 4 8535.54 627.171 20
1 7 4 8419 522.241 22
1 7 5 132.844 35.2176 9
1 7 5 150.094 74.3527 22
1 7 6 393.813 110.558 22
1 7 6 372.262 99.9905 9
1 7 6 208.782 77.0262 16
1 7 7 7719.67 522.971 16
1 7 7 6901.68 486.53 22
1 7 7 7172.51 492.163 9
1 7 8 70.4842 39.1588 16
1 7 8 44.9931 45.0347 9
1 7 8 128.89 73.2336 22
1 7 9 161.064 86.9994 22
1 7 9 11.4591 70.4824 16
1 7 9 125.218 48.8192 9
1 7 10 405.927 115.326 9
1 7 10 456.832 112.265 16
1 7 11 741.414 138.876 9
1 7 11 651.695 133.833 16
1 7 12 270.846 73.1069 9
1 7 12 245.984 70.9995 16
1 8 -6 1139.98 109.477 25
1 8 -5 2393.52 191.443 20
1 8 -5 2498.85 198.257 11
1 8 -5 2569.79 191.36 25
1 8 -4 1006.65 135.76 11
1 8 -4 1157.12 142.165 20
1 8 -4 1079.35 134.114 25
1 8 -3 1780.75 189.849 20
1 8 -3 1663.79 176.303 25
1 8 -2 2315.44 228.202 20
1 8 -2 1953.57 202.058 25
1 8 -1 1382.14 178.439 25
1 8 -1 1647.24 225.719 15
1 8 -1 1406.94 188.921 20
1 8 0 537.718 121.935 20
1 8 0 321.495 89.1133 25
1 8 0 564.735 137.721 15
1 8 1 2610.49 256.931 25
1 8 1 3635.09 367.883 15
1 8 1 3456.05 322.862 20
1 8 2 49.769 26.919 25
1 8 2 246.806 108.337 15
1 8 2 173.653 70.8586 22
1 8 2 123.555 65.1708 20
1 8 3 4447.9 433.189 15
1 8 3 4454.51 408.684 20
1 8 3 4100.04 340.061 22
1 8 4 1350.13 194.969 22
1 8 4 1029.83 167.338 25
1 8 4 1188.5 226.351 20
1 8 4 1319.47 201.407 9
1 8 5 2264.87 249.179 9
1 8 5 1612.41 209.604 25
1 8 5 2420.21 264.508 22
1 8 6 69.5313 50.7727 9
1 8 6 62.0768 52.594 25
1 8 6 118.447 88.5129 22
1 8 7 10409.4 518.846 9
1 8 7 11910.5 590.794 22
1 8 7 10380.5 546.228 16
1 8 8 161.276 71.4693 16
1 8 8 182.479 76.7744 9
1 8 8 177.966 81.2715 22
1 8 9 677.058 130.05 9
1 8 9 662.531 128.506 16
1 8 10 413.442 95.8343 9
1 8 10 432.401 98.0957 16
1 8 11 26.3523 37.9589 9
1 8 11 47.807 41.1195 16
1 8 11 14.3842 24.7958 25
1 9 -3 319.566 67.6677 20
1 9 -2 259.066 54.9366 25
1 9 -2 539.423 94.3832 20
1 9 -1 656.262 99.7728 25
1 9 -1 923.301 132.85 20
1 9 0 1995.9 208.735 20
1 9 0 1586.82 161.478 25
1 9 1 143.741 49.9834 25
1 9 1 230.708 79.9628 20
1 9 2 -49.0303 44.0463 25
1 9 2 1.63869 30.9356 15
1 9 2 -31.0397 50.2684 20
1 9 3 597.89 114.752 22
1 9 3 615.947 133.011 15
1 9 3 463.445 92.2244 25
1 9 3 632.763 138.562 20
1 9 4 43.4601 22.5323 25
1 9 4 -7.19327 24.5749 22
1 9 5 25.3343 21.7038 25
1 9 5 58.2939 45.492 22
1 9 6 2623.83 239.435 22
1 9 6 2204.25 202.424 9
1 9 7 2847.13 228.763 9
1 9 7 3491.52 271.886 22
1 9 8 122.716 60.3869 9
1 9 8 36.2981 27.6853 25
1 9 9 74.0941 41.4244 9
-2 8 8 10.2808 26.047 9
-2 8 7 3043.09 228.492 9
-2 8 7 2816.7 232.495 22
-2 8 6 172.82 61.0916 9
-2 8 6 179.377 60.9118 22
-2 8 5 131.082 63.2693 15
-2 8 5 77.3632 44.4747 9
-2 8 5 136.779 62.3179 22
-2 8 4 794.733 152.544 15
-2 8 4 784.429 134.467 22
-2 8 4 441.271 93.7301 9
-2 8 3 66.8793 45.5016 15
-2 8 3 40.2159 43.4373 22
-2 8 2 173.614 78.7321 15
-2 8 2 161.38 70.0675 22
-2 8 1 3030.11 272.85 15
-2 8 1 2662.33 234.232 22
-2 8 1 2611.9 253.709 20
-2 8 0 450.829 107.115 15
-2 8 0 469.41 106.004 20
-2 8 -1 2058.95 207.004 20
-2 8 -1 1981.35 208.143 15
-2 8 -2 -37.585 39.5027 20
-2 8 -2 -103.996 46.3371 15
-2 8 -3 53.9763 29.2683 20
-2 8 -3 63.2796 32.8317 15
-2 8 -4 416.087 75.0197 20
-2 7 10 2310.73 203.605 9
-2 7 10 2464.38 218.328 16
-2 7 9 2261.68 229.39 9
2 -7 -9 1861.54 201.41 10
-2 7 8 535.921 126.758 16
-2 7 8 467.82 122.317 22
2 -7 -8 400.286 107.85 10
-2 7 8 527.801 129.566 9
-2 7 7 2033.15 237.156 16
-2 7 7 1910.89 254.046 22
2 -7 -7 1288.51 205.231 10
-2 7 6 14.8079 42.0406 16
-2 7 6 75.7453 59.7368 22
-2 7 6 1.30416 43.8917 24
-2 7 5 493.66 145.988 15
-2 7 5 366.248 118.245 16
-2 7 5 511.193 154.23 24
-2 7 5 585.86 148.665 22
-2 7 4 15719.1 707.626 22
-2 7 4 15552 781.607 24
-2 7 4 16238.6 854.004 15
-2 7 3 112.589 99.2991 15
-2 7 3 262.749 101.923 22
-2 7 3 68.6044 77.682 24
-2 7 2 5223.62 471.669 24
-2 7 2 4778.28 440.049 20
-2 7 2 4685.68 371.689 22
-2 7 2 5784.08 485.537 15
-2 7 1 220.847 117.441 20
-2 7 1 174.308 79.7383 22
-2 7 1 97.4074 58.0225 15
-2 7 0 646.928 146.9 15
-2 7 0 586.775 132.687 22
-2 7 0 691.263 159.348 20
-2 7 -1 899.267 164.577 15
-2 7 -1 720.993 159.449 20
-2 7 -2 541.082 117.826 15
-2 7 -2 581.902 128.21 20
-2 7 -3 152.432 51.9553 15
-2 7 -3 119.772 45.7316 20
-2 7 -4 2377.44 225.869 20
-2 7 -4 2205.2 215.516 15
-2 7 -5 539.569 101.537 15
-2 7 -5 529.197 95.427 20
-2 7 -6 262.596 60.1961 20
-2 7 -7 18.1311 14.5619 20
-2 6 11 69.1158 38.7695 9
2 -6 -11 111.759 56.9008 10
-2 6 11 72.3411 49.8374 16
-2 6 10 966.316 174.843 16
-2 6 10 778.665 152.666 9
2 -6 -10 1047.26 179.313 10
-2 6 9 164.712 99.2021 16
2 -6 -9 134.488 72.5372 10
-2 6 8 3450.23 358.224 16
-2 6 8 3448.51 420.609 24
-2 6 8 2492.2 327.55 22
2 -6 -8 3742.3 388.08 10
-2 6 7 3487.58 433.24 24
-2 6 7 3972 381.13 16
-2 6 7 3440.11 392.504 22
2 -6 -7 3413.11 390.038 10
-2 6 6 644.59 192.071 15
-2 6 6 464.348 128.323 16
-2 6 6 534.098 157.066 22
2 -6 -6 404.065 148.925 10
-2 6 6 263.968 143.037 24
-2 6 5 3894.97 389.979 16
-2 6 5 4553.79 531.271 15
2 -6 -5 3753.34 453.111 10
-2 6 5 3808.63 395.403 22
-2 6 5 4102.17 452.598 24
-2 6 4 3866.82 398.954 16
-2 6 4 7080.29 645.441 15
-2 6 4 5652.45 522.586 24
-2 6 4 5149.08 447.093 22
2 -6 -4 5614.52 568.202 10
2 -6 -3 1225.85 271.093 10
-2 6 3 2403.33 295.077 22
-2 6 3 2235.65 325.751 24
-2 6 3 2030.14 332.781 15
-2 6 2 2113.98 284.023 22
-2 6 2 2205.12 324.889 15
-2 6 2 2187.88 317.422 24
-2 6 2 1517.67 289.545 21
-2 6 2 2152.32 328.806 20
-2 6 1 11937.4 745.383 24
-2 6 1 11800.1 725.867 20
-2 6 1 11732.3 637.769 22
-2 6 1 11405.6 701.532 15
-2 6 0 37642.9 1194.47 15
-2 6 0 37499 1131.52 22
-2 6 0 40959.1 1306.26 20
-2 6 -1 8028.41 549.771 15
-2 6 -1 7509.57 532.252 20
-2 6 -1 8766.3 556.871 22
-2 6 -2 324.756 117.999 20
-2 6 -2 232.816 95.0561 15
-2 6 -3 1581.52 231.42 15
-2 6 -3 1668.58 236.153 11
-2 6 -3 1953.21 249.922 20
-2 6 -4 122.834 68.6811 15
-2 6 -4 76.8296 43.7353 11
-2 6 -4 191.192 70.0198 20
-2 6 -5 227.705 78.5368 15
-2 6 -5 375.434 92.3155 20
-2 6 -5 372.454 102.509 11
-2 6 -6 1898.02 197.224 20
-2 6 -6 2471.02 248.984 11
-2 6 -7 4983.68 329.027 11
-2 6 -7 3585.8 258.242 20
-2 6 -8 124.757 50.8244 11
-2 6 -9 8.98269 21.9251 11
-2 5 12 2198.08 238.363 16
2 -5 -12 3812.83 287.199 10
-2 5 11 74.8587 55.0732 16
2 -5 -11 108.47 59.7936 10
2 -5 -10 57.1336 64.5815 10
-2 5 10 7.19424 64.4808 16
2 -5 -9 6696.99 505.685 10
-2 5 9 6152.31 502.719 16
-2 5 8 1868.06 347.868 24
-2 5 8 1341.05 248.921 16
2 -5 -8 1386.72 246.096 10
-2 5 7 4883.48 453.208 16
-2 5 7 4265.15 513.002 24
-2 5 7 4457.32 477.668 22
2 -5 -7 4885.13 480.9 10
2 -5 -6 758.592 206.194 10
-2 5 6 647.089 185.24 22
-2 5 6 496.454 163.142 24
-2 5 6 645.616 227.297 15
-2 5 5 759.548 216.673 15
-2 5 5 638.03 184.15 24
2 -5 -5 527.119 164.197 10
-2 5 5 553.11 174.135 22
-2 5 4 521.981 154.511 22
2 -5 -4 489.765 170.035 10
-2 5 4 612.62 204.978 15
-2 5 4 375.159 147.516 24
-2 5 3 4234.32 443.529 24
-2 5 3 3092.6 461.643 8
-2 5 3 3914.54 393.9 22
-2 5 3 4935.09 533.807 15
-2 5 3 4015.08 508.796 21
2 -5 -3 3033.37 414.035 30
2 -5 -3 3401.33 445.829 4
-2 5 2 5334.68 581.984 8
2 -5 -2 5335.09 551.285 4
-2 5 2 6102.49 607.565 5
2 -5 -2 5675.95 568.931 30
2 -5 -1 19640.2 1054.97 4
-2 5 1 21646.4 1142.83 8
-2 5 1 23566.3 1161.68 5
2 -5 -1 20702.4 1102.41 30
2 -5 0 2192.35 358.876 30
-2 5 0 2588.74 375.938 5
-2 5 0 2736.91 391.718 8
2 -5 0 1818.25 318.095 4
-2 5 -1 5147.51 459.161 15
2 -5 1 2099.85 348.428 4
2 -5 1 2319.83 386.958 30
-2 5 -1 3123.74 393.005 8
-2 5 -1 3822.6 456.407 5
-2 5 -1 4259.28 387.356 11
-2 5 -1 4583.3 413.491 20
-2 5 -2 652.752 162.439 15
-2 5 -2 626.02 192.117 5
-2 5 -2 264.767 121.034 8
-2 5 -2 687.613 165.69 20
-2 5 -2 896.29 229.311 21
-2 5 -2 609.532 152.272 11
-2 5 -3 40025.9 1198.95 15
-2 5 -3 41039.3 1169.08 20
-2 5 -3 42204.5 1237.11 11
-2 5 -4 1021.43 204.862 15
-2 5 -4 1227.38 248.665 21
-2 5 -4 1065.28 188.063 20
-2 5 -4 926.562 184.349 11
-2 5 -5 420.105 122.128 15
-2 5 -5 497.18 143.626 11
-2 5 -5 528.832 159.477 21
-2 5 -5 465.9 119.987 20
-2 5 -6 3517.81 343.553 11
-2 5 -6 3313.3 303.631 20
-2 5 -6 2727.01 341.513 21
-2 5 -7 5740.68 468.88 21
-2 5 -7 4724.7 355.644 20
-2 5 -8 91.7489 62.6522 21
-2 5 -8 135.721 61.4608 11
-2 5 -9 17.4477 34.0145 21
-2 5 -9 63.707 40.8598 11
-2 5 -10 396.263 86.3286 11
2 -4 -13 1277.81 155.147 10
2 -4 -12 126.311 67.4347 10
-2 4 12 -102.32 80.4365 16
-2 4 11 3428.46 385.553 16
2 -4 -11 4473.34 362.895 10
-2 4 10 840.429 216.4 16
2 -4 -10 998.798 182.212 10
-2 4 9 1437.66 272.572 16
2 -4 -9 1508.7 235.023 10
-2 4 8 99.0158 85.4451 24
-2 4 8 50.1872 55.3033 16
2 -4 -8 115.315 68.9963 10
2 -4 -8 249.374 113.983 17
-2 4 7 11486.3 856.222 24
2 -4 -7 12374.8 726.369 10
2 -4 -6 3701.22 455.193 4
-2 4 6 3906.65 465.398 24
-2 4 6 3357.04 403.529 22
-2 4 6 2730.2 481.398 8
2 -4 -6 4640.97 449.929 10
2 -4 -5 2316.2 329.655 30
2 -4 -5 2056.52 322.086 4
-2 4 5 1734.96 348.609 8
2 -4 -4 5819.2 520.987 4
2 -4 -4 5022.62 472.141 30
-2 4 4 5482.22 576.102 8
2 -4 -3 395.285 131.111 30
-2 4 3 100.843 78.8405 5
-2 4 3 10.9701 54.7383 8
2 -4 -3 427.36 145.629 4
-2 4 2 7797.54 663.649 8
2 -4 -2 7823.11 583.338 4
2 -4 -2 7553.98 580.32 30
-2 4 2 7891.69 624.518 5
2 -4 -1 3357.76 389.614 30
-2 4 1 3596.01 423.196 8
-2 4 1 3534.12 398.401 5
2 -4 -1 3329.73 388.369 4
-2 4 0 55846.3 1594.01 8
2 -4 0 54222.7 1545 4
2 -4 0 52634 1577.06 30
2 -4 1 5932.19 561.061 30
2 -4 1 8954.26 768.546 27
-2 4 -1 8319.13 620.082 8
2 -4 1 6310.23 533.295 4
-2 4 -1 8337 580.202 5
-2 4 -2 877.784 192.283 8
2 -4 2 609.861 172.236 4
2 -4 2 968.137 294.453 27
-2 4 -2 1090.76 206.949 5
-2 4 -3 14908.9 779.774 8
-2 4 -3 16707.7 820.949 5
-2 4 -4 2449.12 324.665 5
2 -4 4 2999.78 531.502 27
-2 4 -5 907.744 195.497 21
-2 4 -5 965.451 193.834 11
-2 4 -5 552.623 126.775 20
-2 4 -6 16763.8 810.689 11
-2 4 -6 16798.3 848.191 21
-2 4 -7 5494.45 466.53 11
-2 4 -7 5108.56 461.612 21
-2 4 -8 1676.63 254.177 21
-2 4 -8 1835.16 258.647 11
-2 4 -9 257.367 100.298 21
-2 4 -9 379.971 117.93 11
-2 4 -10 2262.12 248.129 21
-2 4 -10 2874.57 270.334 11
-2 4 -11 813.258 135.065 21
-2 4 -11 641.552 112.119 11
-2 4 -12 200.413 52.7367 21
2 -3 -13 -25.8542 42.1089 10
2 -3 -12 14176.3 593.768 10
2 -3 -11 18751.4 733.484 10
-2 3 10 13138.9 828.46 16
2 -3 -10 16247.2 717.899 10
-2 3 9 15860.3 933.415 16
2 -3 -9 17826.7 775.312 10
2 -3 -8 3368.19 405.258 17
-2 3 8 1970.5 374.366 24
2 -3 -8 2715.79 362.241 19
2 -3 -8 2953.25 333.684 10
2 -3 -7 389.482 117.795 10
2 -3 -7 183.198 126.253 26
2 -3 -7 332.118 129.267 4
2 -3 -6 4553.16 446.358 4
2 -3 -6 5090.96 575.782 26
-2 3 6 4675.88 579.246 6
2 -3 -5 28199.7 1213.48 26
2 -3 -5 28450.2 1045.11 4
2 -3 -5 26865 955.528 30
-2 3 5 26488.7 1259.34 6
2 -3 -4 50829.5 1249.07 30
2 -3 -4 55573.3 1384.64 4
-2 3 4 53012.8 1648.84 6
2 -3 -3 8563.72 524.852 4
2 -3 -3 8144.97 489.156 30
-2 3 3 7722.94 570.277 5
-2 3 3 8536.59 602.22 6
2 -3 -3 9172.74 597.978 27
2 -3 -3 9128.37 588.523 26
2 -3 -2 16042.6 792.125 26
2 -3 -2 12222.8 599.536 30
2 -3 -2 13095.2 645.296 4
-2 3 2 14313.4 722.581 5
2 -3 -2 16206.1 771.666 27
2 -3 -1 27286.8 975.802 26
2 -3 -1 29344 966.857 4
-2 3 1 28061.1 956.166 5
2 -3 -1 27397.1 932.43 30
-2 3 0 21535 807.836 5
2 -3 0 19768.6 847.785 30
2 -3 0 21497.9 927.515 27
-2 3 0 20165.7 844.118 8
2 -3 0 19670.2 804.382 4
-2 3 -1 162801 2164.58 5
-2 3 -1 160490 2318.94 8
-2 3 -2 37787.3 1154.28 8
-2 3 -2 38918.6 1046.53 5
2 -3 3 1221.94 334.136 27
-2 3 -3 1124.49 185.345 8
2 -3 3 625.265 158.447 4
-2 3 -3 1095.59 177.225 5
-2 3 -3 1363.57 273.734 29
-2 3 -4 11171.7 585.163 5
-2 3 -4 14388.3 854.903 29
2 -3 4 13374.9 1006.15 27
-2 3 -4 13329.1 733.428 2
-2 3 -5 5148.02 416.039 5
-2 3 -5 5920.47 544.421 29
2 -3 5 5814.28 721.365 27
-2 3 -5 6008.08 512.183 2
-2 3 -6 7019.9 558.779 2
2 -3 6 6644.06 790.741 27
-2 3 -6 8436.73 672.715 29
-2 3 -7 1354.22 280.626 29
-2 3 -7 1287.71 251.146 2
-2 3 -7 2393.78 313.184 11
-2 3 -7 2199.46 298.904 21
-2 3 -8 4799.51 445.731 11
-2 3 -8 4090.25 399.458 21
-2 3 -9 178.999 78.1654 21
-2 3 -9 216.512 99.0019 11
-2 3 -10 16340.6 721.63 21
-2 3 -10 17757.3 777.831 11
-2 3 -11 1132.58 179.574 11
-2 3 -11 813.464 150.04 21
-2 3 -12 207.793 64.3111 11
-2 3 -12 237.181 71.8275 21
-2 3 -13 -29.8686 39.6671 21
2 -2 -14 -0.53827 28.3314 11
2 -2 -13 4567.13 303.594 10
2 -2 -12 4508.15 323.38 10
2 -2 -11 5245.07 380.584 10
2 -2 -10 3404.82 384.694 19
2 -2 -10 3275.48 358.647 17
2 -2 -10 2506.87 283.409 10
2 -2 -9 18048.8 888.558 19
2 -2 -9 16519 812.67 17
-2 2 8 43495.1 1898.51 7
2 -2 -8 42328.5 1691.83 26
-2 2 8 37280.7 1875.61 6
2 -2 -8 53822.9 1500.3 19
2 -2 -8 52341.7 1458.93 17
2 -2 -8 45700.9 1196.56 10
-2 2 8 39744.6 2402.27 31
2 -2 -7 14717.3 791.685 4
-2 2 7 17139 1075.39 7
2 -2 -7 16253.1 1020.71 26
-2 2 7 15476.4 1086.89 6
-2 2 7 15155.2 1299.27 31
2 -2 -6 28306.4 1224.4 26
-2 2 6 27751.1 1320.28 6
-2 2 6 31713.6 1300.75 7
2 -2 -6 29006.6 1033.99 4
-2 2 6 25026.8 1531.76 31
2 -2 -5 2303.58 259.072 4
-2 2 5 2370.66 338.142 7
-2 2 5 2369.64 349.477 6
2 -2 -5 2472.49 237.672 30
-2 2 5 1599.57 389.335 31
-2 2 4 27452.1 1068.35 6
2 -2 -4 28050.6 992.798 26
2 -2 -4 26403.7 817.008 4
-2 2 4 29946.6 1028.01 7
-2 2 4 26587.1 1204.64 31
2 -2 -3 9822.6 571.684 26
2 -2 -3 8827.08 457.065 4
2 -2 -3 7714.09 385.145 30
2 -2 -3 8403.91 512.486 27
-2 2 3 9040.21 552.27 6
-2 2 3 7406.78 477.98 5
-2 2 2 25284.8 827.981 5
2 -2 -2 24805.7 696.668 30
2 -2 -2 27776.3 887.98 26
2 -2 -2 26982.4 783.253 4
-2 2 2 29624 889.959 6
2 -2 -2 30474 894.118 27
-2 2 1 768.414 141.189 5
2 -2 -1 549.654 130.013 27
2 -2 -1 460.2 110.148 30
-2 2 0 7586.07 418.636 5
2 -2 0 7740.74 486.097 27
2 -2 0 7142.36 424.852 4
2 -2 1 1220.12 239.6 27
2 -2 1 1401.62 202.921 4
2 -2 1 838.482 208.985 3
-2 2 -1 1585.14 241.023 29
-2 2 -1 1286.92 172.529 5
-2 2 -2 3337.19 279.151 5
-2 2 -2 3248.95 286.608 8
-2 2 -2 3844.64 365.777 29
-2 2 -3 4400.39 318.112 5
-2 2 -3 4340.71 346.02 2
-2 2 -3 3492.28 295.752 8
2 -2 3 6314.17 650.088 27
-2 2 -3 5668.12 448.563 29
2 -2 3 5820.47 484.756 3
2 -2 4 10561.6 822.675 27
-2 2 -4 9596.47 519.878 2
-2 2 -4 10518.8 621.528 29
2 -2 4 11230.9 693.246 3
-2 2 -5 644.229 128.199 5
-2 2 -5 588.809 137.591 2
2 -2 5 828.774 204.888 3
-2 2 -5 775.481 179.428 29
2 -2 5 761.475 259.692 27
-2 2 -6 13357.1 745.058 29
-2 2 -6 12549.2 667.079 2
2 -2 6 13953.8 868.558 3
-2 2 -7 15006.8 766.958 2
-2 2 -7 16664.8 874.819 29
2 -2 7 17369.8 1025.41 3
-2 2 -8 2751.76 373.782 29
-2 2 -8 2418.88 323.539 2
-2 2 -8 3915.77 399.295 11
-2 2 -8 4256.7 412.86 21
-2 2 -9 8395.01 575.836 21
-2 2 -9 8910.88 615.332 11
-2 2 -10 1888.29 269.322 21
-2 2 -10 2016.87 296.167 11
-2 2 -11 24255.2 894.607 21
-2 2 -11 27431.2 983.682 11
-2 2 -12 57.2109 39.5474 21
-2 2 -12 182.223 77.1539 11
-2 2 -13 1591.35 190.481 21
-2 2 -14 45.6699 15.1209 21
2 -1 -14 1267.15 151.872 11
2 -1 -13 1068.57 165.582 11
2 -1 -13 1062.39 144.114 10
2 -1 -12 1912.36 213.414 10
2 -1 -11 1702.27 238.385 17
2 -1 -11 1381.52 197.651 10
2 -1 -10 1325.39 217.406 19
2 -1 -10 1391.2 216.344 17
2 -1 -10 1168.26 190.413 10
2 -1 -9 45.6733 33.1458 10
2 -1 -9 -12.2003 52.3896 19
2 -1 -9 -5.49634 52.0929 17
2 -1 -8 18491.2 838.469 2
2 -1 -8 19353.6 1066.9 26
-2 1 8 16650.7 1215.1 6
-2 1 8 19212.3 1228.85 7
-2 1 8 21352.3 1562.85 31
-2 1 7 4806.75 593.814 6
2 -1 -7 6528.81 593.353 26
-2 1 7 5028.57 588.201 7
-2 1 7 5004.69 689.372 31
-2 1 6 5272.99 534.635 7
2 -1 -6 5329.2 477.201 26
2 -1 -6 4957.12 381.981 4
-2 1 6 5010.02 543.853 6
-2 1 6 5703.38 597.835 31
-2 1 5 188164 2893.67 7
2 -1 -5 172105 1969.26 4
-2 1 5 175799 2957.22 6
-2 1 5 165632 2828.35 31
2 -1 -5 185468 2537.19 26
2 -1 -4 2554.69 199.163 30
2 -1 -4 3041.6 290.491 26
2 -1 -4 2320.37 207.47 4
-2 1 4 2674.09 306.811 7
-2 1 4 2394.1 301.913 6
-2 1 4 2373.81 284.316 31
-2 1 4 1938.89 213.712 5
-2 1 4 3566.66 337.588 28
-2 1 3 36689.2 973.488 31
2 -1 -3 50775.1 803.889 30
-2 1 3 50888.6 1215.23 6
-2 1 3 47813.7 1147.67 28
2 -1 -3 52051 925.934 4
2 -1 -3 60514.7 1266.87 26
-2 1 3 44258.4 978.397 5
2 -1 -2 145.696 57.5268 26
-2 1 2 764.481 127.988 5
2 -1 -2 184.393 49.5924 30
-2 1 2 352.919 100.444 28
2 -1 -2 146.521 49.8756 4
-2 1 2 751.98 137.336 6
2 -1 -2 158.737 68.5064 27
2 -1 -1 7711.37 386.293 27
-2 1 1 6059.88 333.503 28
-2 1 1 6905.28 356.107 6
2 -1 -1 7381.19 320.226 30
-2 1 1 7777.33 390.701 5
2 -1 -1 8025.82 364.016 4
-2 1 1 5734.63 258.438 31
2 -1 0 245376 2217.1 27
-2 1 0 250180 1868.98 6
-2 1 0 254300 2168.3 5
2 -1 0 264036 2260.54 4
2 -1 0 239831 2376.21 3
-2 1 0 226817 1952.08 28
2 -1 1 45074.3 1106.5 27
-2 1 -1 40854.6 866.193 5
-2 1 -1 42414.2 807.052 28
-2 1 -1 43641.6 1066.11 29
-2 1 -2 4327.02 273.323 8
-2 1 -2 3145.9 220.051 2
-2 1 -2 4310.15 281.237 5
2 -1 2 5415.14 443.628 27
-2 1 -2 3917.1 324.594 29
2 -1 2 4388.95 364.612 3
2 -1 3 145728 2451.37 27
-2 1 -3 103583 1387.4 8
2 -1 3 116145 2308.81 31
2 -1 3 154774 2126.73 7
-2 1 -3 145562 1692.12 2
-2 1 -3 152832 1978.95 29
-2 1 -3 140380 1598.97 5
2 -1 3 173634 2264.06 3
2 -1 4 11218.7 635.783 3
2 -1 4 8754.83 645.019 27
2 -1 4 8037.2 593.361 7
-2 1 -4 10474.6 548.975 29
-2 1 -4 10428.2 504.992 2
-2 1 -4 9029.24 417.333 5
2 -1 5 23344.5 975.829 3
-2 1 -5 22822 803.998 2
-2 1 -5 21986.9 680.539 5
-2 1 -5 21183.4 825.428 29
2 -1 5 20002.6 1079.51 27
-2 1 -6 550.18 140.402 29
-2 1 -6 585.076 138.947 2
2 -1 6 691.131 186.001 3
2 -1 6 478.478 160.171 7
-2 1 -6 848.653 145.521 5
2 -1 6 913.744 262.499 27
2 -1 7 13485.7 1011.11 7
-2 1 -7 16749.5 822.358 29
-2 1 -7 16838.9 795.476 2
2 -1 7 16512.8 954.192 3
2 -1 7 13818.8 1049.7 27
-2 1 -8 6305.07 538.256 29
2 -1 8 4971.36 687.758 27
-2 1 -8 6277.16 512.205 2
2 -1 8 5065.84 659.081 7
2 -1 8 6641.68 657.184 3
-2 1 -9 6566.36 494.164 12
-2 1 -9 5023.04 487.206 2
-2 1 -10 34584.4 1147.52 12
-2 1 -10 42356.9 1361.12 11
-2 1 -11 8822.45 612.142 11
-2 1 -11 8218 552.054 21
-2 1 -12 3285.41 328.044 21
-2 1 -12 2841.14 294.131 12
-2 1 -13 1294.67 193.247 21
-2 1 -14 2128.44 211.632 21
2 0 -14 706.87 109.767 11
2 0 -13 211.055 64.5823 11
2 0 -12 471.776 110.13 11
2 0 -11 7744.56 480.81 19
2 0 -11 6829.22 442.321 17
2 0 -10 683.4 146.338 10
2 0 -10 919.255 167.584 19
2 0 -10 857.667 165.413 17
2 0 -9 59.6252 24.1186 10
2 0 -9 37.6077 39.274 19
2 0 -9 87.4405 60.8743 17
2 0 -8 45.999 68.7148 26
-2 0 8 191.197 127.271 7
-2 0 8 -13.6127 47.0151 6
-2 0 8 -58.2767 89.1695 31
2 0 -8 62.6531 48.9137 2
-2 0 7 19510.9 1229.65 31
2 0 -7 20169.2 806.762 2
2 0 -7 20311.6 962.211 26
-2 0 7 17347.8 1109.76 7
-2 0 7 16260.5 1100.45 6
2 0 -6 982.531 193.591 26
-2 0 6 841.137 228.909 7
2 0 -6 691.775 132.885 2
-2 0 6 574.347 172.563 31
-2 0 6 919.612 224.546 6
-2 0 5 1325.63 239.382 31
-2 0 5 1861.99 242.345 28
2 0 -5 2214.14 254.239 26
-2 0 5 1805.87 305.762 7
2 0 -5 2236.97 211.688 4
-2 0 5 1923.35 295.959 6
-2 0 4 84744.8 1662.42 31
2 0 -4 103659 1539.62 26
2 0 -4 112794 1293.86 4
-2 0 4 88802.3 1565.59 28
-2 0 4 95542.3 1834.15 6
-2 0 3 578.262 131.039 31
2 0 -3 1068.31 152.022 26
-2 0 3 768.833 135.626 28
2 0 -3 899.278 103.908 4
-2 0 3 625.989 83.3455 5
2 0 -3 550.129 67.9496 30
-2 0 3 624.507 131.141 6
-2 0 2 1175.6 176.364 31
2 0 -2 1409.23 86.7473 30
2 0 -2 1371.16 148.336 27
2 0 -2 1453.3 160.461 26
2 0 -2 1428.7 124.29 4
-2 0 2 1114 148.533 28
-2 0 2 1634.38 193.242 6
-2 0 2 1421.58 147.875 5
-2 0 1 67931.5 1027.85 5
2 0 -1 67332.3 867.909 4
2 0 -1 62704 603.573 30
-2 0 1 60085.9 1076.26 6
-2 0 0 4410.66 259.199 5
2 0 0 4047.26 216.934 1
-2 0 0 4564.74 270.461 6
-2 0 0 5072.95 319.642 29
-2 0 -1 3858.88 279.931 29
-2 0 -1 4578.45 241.779 28
2 0 1 3600.92 199.156 1
-2 0 -1 4592.68 241.328 6
-2 0 -2 9966.55 459.914 29
-2 0 -2 9265.78 317.241 28
2 0 2 8916.62 466.452 7
-2 0 -2 8346.99 290.692 6
-2 0 -2 9152.31 304.981 2
2 0 2 8908.41 327.404 1
2 0 3 127963 1781.69 3
-2 0 -3 128136 1100.46 28
-2 0 -3 132295 1767.12 29
2 0 3 127083 1965.71 27
-2 0 -3 102675 851.944 8
2 0 3 125819 1860.77 7
2 0 3 111168 1354.35 1
-2 0 -3 114311 1360.25 32
-2 0 -3 120590 1349.27 2
-2 0 -4 6842.88 413.208 29
2 0 4 6475.35 494.984 27
-2 0 -4 6607.72 358.867 2
2 0 4 5897.58 477.305 7
2 0 4 6971.03 469.569 3
2 0 4 5637.3 624.517 31
2 0 5 13697 795.862 7
2 0 5 14557.7 807.143 27
-2 0 -5 15724.6 656.139 29
2 0 5 14494.2 1016.52 31
2 0 5 16524.9 787.083 3
-2 0 -5 15634.1 596.601 2
-2 0 -6 27612.6 794.606 5
2 0 6 23888.3 1124.6 27
-2 0 -6 30791.2 913.893 2
2 0 6 21454.1 1096.67 7
2 0 6 26727.1 1532.67 31
-2 0 -6 25621 895.376 29
2 0 6 25820.8 1052.15 3
2 0 7 8201.92 645.66 3
-2 0 -7 9601.73 589.859 29
2 0 7 7166.39 698.126 27
2 0 7 8099.09 737.329 7
-2 0 -7 11035.8 597.471 2
2 0 7 6558.29 934.436 31
-2 0 -8 14343.8 777.379 29
2 0 8 9242.19 914.622 27
2 0 8 10816.9 923.946 7
2 0 8 13311.2 899.38 3
-2 0 -8 14625.6 749.441 2
2 0 8 10514.4 1352.7 31
2 0 9 678.211 382.696 31
2 0 9 232.855 168.566 27
2 0 9 1039.75 282.9 3
-2 0 -9 1070.97 239.532 29
2 0 9 847.463 314.244 7
-2 0 -9 984.228 213.727 2
-2 0 -10 28018 999.15 12
-2 0 -11 12989.8 679.885 12
-2 0 -12 772.443 155.295 12
-2 0 -13 975.966 160.499 12
-2 0 -13 1182.99 200.945 21
-2 0 -14 2839.68 271.548 21
-2 0 -14 2242.41 220.292 12
-2 0 -15 633.369 106.804 21
2 1 -14 455.82 79.3501 11
2 1 -13 523.246 106.903 11
2 1 -12 2257.69 240.995 11
2 1 -11 9435.03 490.848 19
2 1 -11 9972.29 528.972 11
2 1 -10 12169.6 594.141 19
2 1 -10 12646.7 606.962 11
2 1 -9 1211.72 195.712 19
2 1 -9 1269.05 203.349 17
2 1 -8 709.43 186.171 26
2 1 -8 613.528 167.655 2
-2 -1 8 683.499 248.691 7
-2 -1 8 683.731 264.314 31
-2 -1 7 -270.237 141.906 31
2 1 -7 48.5291 43.3583 2
2 1 -7 15.3543 39.6425 26
-2 -1 7 -242.607 136.281 7
-2 -1 7 89.7989 117.208 6
-2 -1 6 10675.7 790.173 31
2 1 -6 12071.2 671.266 26
-2 -1 6 10010 765.4 6
2 1 -6 10473.8 535.993 2
-2 -1 5 823.876 226.269 31
2 1 -5 1052.18 172.124 26
-2 -1 5 898.615 212.118 6
2 1 -5 1092.35 157.173 2
2 1 -4 27947.1 764.424 26
-2 -1 4 25091.7 1015.91 31
-2 -1 4 17750.2 804.448 28
2 1 -4 30230.1 694.713 29
-2 -1 4 23576.9 980.769 6
2 1 -4 19959.8 590.038 2
2 1 -3 2980.31 224.834 26
2 1 -3 1842.7 130.911 4
-2 -1 3 1778.86 243.64 28
-2 -1 3 2632.3 311.778 6
2 1 -3 2107.22 174.126 2
-2 -1 2 19531.2 484.402 5
2 1 -2 20161.8 526.683 26
-2 -1 2 17900.3 700.745 28
2 1 -2 19333.6 343.244 4
-2 -1 2 18059.4 709.975 6
-2 -1 1 18265.2 563.402 32
2 1 -1 19814 346.936 4
-2 -1 1 19619.4 698.818 28
-2 -1 0 183277 1323.38 29
2 1 0 209213 1418.5 27
2 1 0 213906 1680.68 3
-2 -1 0 186986 1799.98 32
-2 -1 -1 133524 1397.53 29
2 1 1 136768 1152.27 27
2 1 1 136264 1450.04 3
-2 -1 -2 46341.4 869.019 28
2 1 2 43709.1 764.808 27
-2 -1 -2 45708.4 901.371 29
2 1 3 4765.33 320.862 1
-2 -1 -3 4912.9 262.131 28
-2 -1 -3 5750.34 317.823 32
2 1 3 5437.24 363.645 7
2 1 3 4864.4 340.128 3
-2 -1 -3 4577.36 308.563 29
2 1 3 6293.42 361.355 27
-2 -1 -4 1406.74 159.453 32
2 1 4 1115.48 190.408 27
2 1 4 1163.68 303.01 31
-2 -1 -4 1032.61 154.874 29
2 1 4 839.426 186.181 7
2 1 4 730.305 150.789 1
2 1 4 1298.9 196.792 3
-2 -1 -4 864.12 99.1262 28
2 1 5 13392.2 666.221 3
2 1 5 13072.9 692.103 27
-2 -1 -5 14111.1 614.485 29
2 1 5 12707 732.633 7
-2 -1 -5 14670.9 521.305 32
-2 -1 -6 116741 1897.31 29
2 1 6 92245.2 2036.31 27
2 1 6 91866.9 2140.55 7
2 1 6 70105 2588.18 31
-2 -1 -6 95076.6 1407.08 32
2 1 6 101625 1992.62 3
2 1 7 1146.41 417.064 31
-2 -1 -7 3293.37 343.417 29
2 1 7 1901.26 338.336 27
2 1 7 2483.34 376.484 7
2 1 7 3310.96 390.964 3
2 1 8 379.668 277.874 31
2 1 8 111.087 127.058 27
2 1 8 663.614 213.579 3
-2 -1 -8 640.571 174.658 29
2 1 8 571.273 265.636 7
-2 -1 -8 396.981 128.697 2
2 1 9 875.719 409.763 31
2 1 9 833.255 249.384 3
-2 -1 -9 1227.36 254.135 29
-2 -1 -9 1324.02 241.149 2
2 1 9 974.199 279.395 7
-2 -1 -10 217.212 60.943 10
-2 -1 -11 6183.36 423.731 10
-2 -1 -12 367.058 110.099 12
-2 -1 -13 2375.96 264.123 12
-2 -1 -14 366.13 92.8391 12
-2 -1 -14 554.064 135.38 21
-2 -1 -15 2398.85 206.144 12
-2 -1 -15 3014.36 254.866 21
2 2 -13 2453.11 205.971 11
2 2 -12 1003.14 152.242 11
2 2 -11 24.8487 26.668 11
2 2 -10 3520.13 385.208 14
2 2 -10 2622.16 265.245 19
2 2 -10 2722.63 281.513 11
2 2 -9 128.292 62.0359 14
2 2 -9 99.6511 53.2187 19
2 2 -9 83.1505 50.4322 11
2 2 -8 25755.9 864.144 19
2 2 -8 27406.1 923.738 11
-2 -2 7 8075.92 811.403 31
2 2 -7 8654.4 596.394 26
2 2 -7 8680.4 568.873 2
-2 -2 6 17251.7 1063.06 31
2 2 -6 17388.2 769.512 26
2 2 -6 16938.7 728.839 2
-2 -2 6 14393.7 955.732 6
-2 -2 5 1811.81 364.773 31
2 2 -5 2577.57 282.779 26
2 2 -5 2369.95 248.575 2
-2 -2 5 2902.63 399.464 6
-2 -2 4 221.512 110.029 28
2 2 -4 186.695 61.2815 2
-2 -2 4 266.292 153.917 31
2 2 -4 274.011 81.281 26
-2 -2 4 399.334 141.982 6
2 2 -3 2425.02 200.616 26
2 2 -3 1917.33 182.409 2
-2 -2 3 1889.35 286.843 6
-2 -2 3 1661.77 314.531 28
2 2 -2 6655.95 293.749 26
2 2 -2 6717.73 358.088 1
2 2 -2 5088.3 261.685 2
-2 -2 2 7338.94 611.542 28
-2 -2 2 4445.66 193.648 30
-2 -2 2 4779.5 338.472 32
-2 -2 1 343.014 47.2497 30
2 2 -1 354.387 62.5699 26
-2 -2 1 369.072 97.6628 32
2 2 -1 426.629 69.4965 2
-2 -2 1 323.425 115.604 28
2 2 -1 634.388 109.378 1
-2 -2 0 103125 1544.94 32
-2 -2 0 98154.5 926.714 30
-2 -2 -1 7684.79 291.2 30
2 2 1 7764.6 357.988 8
-2 -2 -1 8780.39 496.18 28
-2 -2 -1 7796.76 428.71 32
2 2 1 8249.11 321.478 3
-2 -2 -1 7061.34 286.164 29
-2 -2 -2 10316.4 515.982 28
2 2 2 8365 242.574 27
2 2 2 8615.41 344.719 8
-2 -2 -2 9050.28 359.113 30
2 2 2 11264.4 499.638 1
2 2 2 9587.56 384.498 3
-2 -2 -2 6997.72 360.802 29
-2 -2 -3 90724.8 1259.54 30
2 2 3 76666.9 964.746 8
-2 -2 -3 97909.3 1496.47 32
-2 -2 -3 115350 1641.92 28
2 2 3 104721 1434.86 3
2 2 3 111682 1616.32 7
2 2 3 82373.2 876.346 27
2 2 3 103916 1597.37 1
-2 -2 -3 79531.9 1313.77 29
-2 -2 -4 334.39 103.386 28
2 2 4 385.191 202.997 31
2 2 4 403.527 118.072 3
-2 -2 -4 396.037 103.478 29
2 2 4 288.645 74.6038 27
2 2 4 284.803 51.6378 8
2 2 4 468.501 126.541 1
-2 -2 -4 209.286 74.1157 30
-2 -2 -4 209.965 86.4817 32
2 2 4 725.373 147.479 7
-2 -2 -5 39423.7 1084.7 29
2 2 5 39806.8 1110.39 3
-2 -2 -5 46189.7 1060.91 32
2 2 5 40058.8 1207.72 7
-2 -2 -5 40102.7 1003.16 30
2 2 5 35720.1 999.498 27
2 2 5 46388.9 1748.79 31
-2 -2 -6 20271.3 814.571 29
2 2 6 19986.1 882.29 3
-2 -2 -6 20760.2 779.466 30
2 2 6 19407.5 957.203 7
2 2 6 18247.6 1294.15 31
-2 -2 -7 68353.7 1579.75 29
2 2 7 53218.5 1736.85 7
2 2 7 59631.9 1655.63 3
-2 -2 -7 74441 1476.48 32
2 2 7 43625.6 2125.22 31
2 2 8 16.6507 203.902 31
-2 -2 -8 82.6075 80.5936 29
2 2 8 211.924 142.862 3
2 2 8 -6.44546 102.703 7
2 2 9 2799.06 705.841 31
2 2 9 3706.12 489.325 3
-2 -2 -9 4475.25 472.052 29
2 2 9 3210.11 515.028 7
-2 -2 -10 1650.45 228.15 10
-2 -2 -11 1053.94 174.862 10
-2 -2 -12 244.349 87.0832 10
-2 -2 -13 475.039 130.209 12
-2 -2 -13 553.455 121.719 10
-2 -2 -14 341.467 95.1872 12
-2 -2 -15 3181.96 276.042 21
-2 -2 -15 2946.72 249.008 12
2 3 -13 124.393 43.5874 11
2 3 -12 1697.73 182.711 11
2 3 -11 5299.92 384.983 14
2 3 -11 3743.08 296.902 11
2 3 -10 2768.12 303.304 14
2 3 -10 2309.13 250.295 11
2 3 -9 1607.95 221.496 11
2 3 -9 1824.7 252.519 14
2 3 -8 20674.2 874.756 14
2 3 -8 22175.8 851.908 25
2 3 -7 5557.42 441.519 14
2 3 -7 5172.53 425.933 25
2 3 -7 4869.85 385.786 11
-2 -3 6 130.265 113.682 31
2 3 -6 178.41 71.0764 2
-2 -3 6 -12.5376 79.1749 7
2 3 -5 32541.7 968.272 2
-2 -3 5 35652.8 1506.29 6
2 3 -4 3836.3 309.9 2
-2 -3 4 4550.37 513.615 6
-2 -3 3 51147.1 1685.82 6
2 3 -3 54693 1062.29 2
-2 -3 2 3366.92 444.917 28
2 3 -2 4647.89 270.647 26
2 3 -2 4856.88 310.038 1
-2 -3 2 2526.03 304.764 32
2 3 -2 3615.03 247.908 2
2 3 -1 18329.2 441.429 26
2 3 -1 22843.1 773.258 8
2 3 -1 18970.8 565.963 2
-2 -3 1 20491.8 615.844 30
2 3 -1 23388 678.237 1
-2 -3 1 20771.4 1014.25 28
-2 -3 1 17141.8 754.464 32
-2 -3 0 26339.4 666.817 30
2 3 0 30177.2 828.147 8
2 3 0 22864.1 427.623 26
2 3 0 30325.9 801.037 1
-2 -3 0 26609.6 1075.49 28
-2 -3 0 25881.3 919.722 32
-2 -3 -1 5900.06 319.999 30
-2 -3 -1 5577.89 460.833 28
2 3 1 5359.41 339.077 8
-2 -3 -1 5282.18 421.554 32
2 3 1 5763.31 362.604 1
-2 -3 -2 17718 573.924 30
-2 -3 -2 16571.4 700.982 32
2 3 2 18019.5 621.927 8
-2 -3 -3 39416.8 1129.44 28
-2 -3 -3 40940.3 1106.56 32
-2 -3 -3 38423.3 866.033 30
-2 -3 -4 576.683 115.348 30
2 3 4 885.483 153.766 3
2 3 4 606.115 112.291 8
-2 -3 -4 496.422 140.728 28
2 3 4 469.501 128.928 7
2 3 4 560.932 143.311 1
-2 -3 -4 550.728 132.86 32
-2 -3 -5 1280.45 184.7 30
-2 -3 -5 882.539 190.126 28
-2 -3 -5 1017.67 187.188 32
2 3 5 959.806 192.97 1
2 3 5 1036.76 189.761 7
2 3 5 1354.47 205.346 3
2 3 5 1686.86 371.453 31
2 3 6 10836 639.375 3
-2 -3 -6 12263 640.184 32
-2 -3 -6 11198.5 596.843 30
2 3 6 10186.6 656.866 7
-2 -3 -7 26023.9 985.741 30
-2 -3 -7 25288.9 1035.19 29
2 3 7 22072 1009.13 3
2 3 7 23774.8 1097.45 7
2 3 7 17483.1 924.302 1
-2 -3 -7 30701 1098.84 32
2 3 7 30348.3 1720.32 31
2 3 8 763.958 200.696 3
2 3 8 882.483 339.654 31
2 3 8 608.127 179.336 1
-2 -3 -8 647.218 189.665 29
2 3 8 656.927 198.841 7
-2 -3 -8 828.614 194.688 30
-2 -3 -9 7470.55 641.892 29
2 3 9 4764.2 589.928 1
2 3 9 6560.75 675.491 3
2 3 9 6706.3 711.92 7
2 3 9 6908.34 947.141 31
-2 -3 -10 14345.1 722.835 10
2 3 10 12002.1 739.545 16
-2 -3 -11 7778.94 520.392 10
2 3 11 6697.84 562.657 16
-2 -3 -12 495.17 123.527 10
-2 -3 -13 34.4903 25.1394 10
-2 -3 -14 5307.03 400.144 12
-2 -3 -15 137.444 61.4074 12
-2 -3 -15 64.488 41.6818 21
2 4 -12 282.229 63.6018 11
2 4 -11 632.224 107.77 11
2 4 -10 3829.94 314.901 14
2 4 -10 3255.47 272.389 11
2 4 -9 2317.29 247.381 14
2 4 -9 2391.09 254.902 11
2 4 -8 1320.33 197.328 25
2 4 -8 1261.57 195.112 11
2 4 -8 1209.97 184.637 14
2 4 -7 2796.01 286.4 14
2 4 -7 3031.55 309.105 25
2 4 -7 2615.13 286.715 11
2 4 -6 2303.86 277.271 25
2 4 -6 2123.13 260.989 14
2 4 -6 1796.99 238.18 11
-2 -4 5 694.524 367.281 31
2 4 -5 9037.7 555.94 2
2 4 -4 1553.55 229.31 2
2 4 -3 17768.9 690.093 1
2 4 -3 18096.3 759.572 2
2 4 -2 3947.13 382.042 8
2 4 -2 3163.57 293.847 2
2 4 -2 3330.12 281.943 1
2 4 -1 90493.8 1715.83 8
-2 -4 1 73029.7 1477.62 30
-2 -4 1 52507.4 1616.07 32
2 4 -1 81212.5 1367.45 1
-2 -4 1 51727.3 1863.93 28
-2 -4 0 36964.3 998.542 30
2 4 0 40180.5 1086.96 8
2 4 0 38460.8 956.815 1
-2 -4 -1 61615.7 1251.62 30
2 4 1 64139.3 1370.03 8
2 4 2 35542.5 1040.32 8
2 4 2 35721 1029.76 1
-2 -4 -2 33502.2 936.336 30
-2 -4 -3 14017 619.944 30
2 4 3 14391.3 668.594 8
2 4 3 15769.7 740.488 1
-2 -4 -4 32739.9 961.032 30
2 4 4 34209 1136.95 1
2 4 5 24081.6 979.752 1
-2 -4 -5 23820 988.902 32
2 4 6 1963.51 307.571 1
-2 -4 -6 2164.14 281.255 30
2 4 6 1420.63 253.581 7
-2 -4 -6 2079.26 309.241 32
-2 -4 -7 7438.59 607.854 32
-2 -4 -7 7796.88 574.325 30
2 4 7 6388.05 588.232 1
2 4 7 6133.7 572.612 7
-2 -4 -8 2643.64 367.969 30
-2 -4 -8 2197.9 364.065 29
2 4 8 1994.95 348.097 7
2 4 8 2874.31 622.9 31
2 4 8 1864.31 347.106 1
2 4 9 5783.72 490.682 9
-2 -4 -9 7039.15 537.775 10
2 4 9 5643.66 512.846 16
-2 -4 -10 4317.58 424.629 10
2 4 10 2563.02 360.747 16
-2 -4 -11 2096.32 288.805 10
2 4 11 1417.56 261.403 16
2 4 12 725.146 169.18 16
-2 -4 -12 1164.46 199.638 10
2 4 13 -3.45603 50.8151 16
-2 -4 -13 134.878 59.3711 10
-2 -4 -14 9644.11 548.236 12
-2 -4 -15 3140.89 264.327 12
2 5 -11 208.046 52.4188 11
2 5 -10 1053.43 142.27 14
2 5 -10 781.583 120.761 11
2 5 -9 1221.88 159.169 14
2 5 -9 1019 150.234 11
2 5 -8 917.858 151.959 11
2 5 -8 1117.29 179.365 25
2 5 -8 943.057 148.964 14
2 5 -7 62.25 57.7071 14
2 5 -7 133.014 58.4075 25
2 5 -7 158.699 73.4136 11
2 5 -6 4375.97 367.15 25
2 5 -6 4491.7 348.173 14
2 5 -6 4331.11 368.513 11
2 5 -5 4291.5 379.88 25
2 5 -5 4080.93 354.938 14
2 5 -5 4054.13 368.266 11
2 5 -4 2162.51 265.753 14
2 5 -4 1835.98 251.717 25
-2 -5 3 226.572 176.191 28
2 5 -2 38.7637 62.3828 8
-2 -5 2 -72.0925 125.689 28
-2 -5 1 170.914 109.389 28
2 5 -1 615.624 131.769 1
2 5 -1 593.762 155.236 8
-2 -5 1 273.931 131.202 32
2 5 0 95591.4 1652.29 1
-2 -5 0 90096.7 1886.89 30
-2 -5 -1 3110.19 336.701 30
2 5 1 3515.16 366.863 8
2 5 1 3417.16 334.682 1
-2 -5 -2 3174.6 346.627 30
2 5 2 2902.69 305.626 1
2 5 2 3439.99 371.963 8
-2 -5 -2 2560.3 392.64 32
-2 -5 -3 1497.06 237.739 30
2 5 3 1315.44 227.394 1
-2 -5 -3 1697.2 308.772 32
2 5 3 1194.24 216.443 8
2 5 4 12365.9 727.331 8
-2 -5 -4 13898.1 885.669 32
2 5 4 12771.7 751.594 1
2 5 5 338.547 144.862 1
-2 -5 -5 353.293 152.695 32
-2 -5 -6 8099.59 692.279 32
-2 -5 -6 9594.08 658.376 30
2 5 6 7800.58 646.475 1
-2 -5 -7 9826.49 708.116 30
-2 -5 -7 8475.75 741.053 32
2 5 8 6128.69 482.014 16
2 5 8 5709.55 470.594 9
2 5 8 6348.55 505.713 22
2 5 9 146.462 90.3093 16
2 5 9 251.923 110.054 9
2 5 10 1128.72 226.066 9
2 5 10 1195.95 215.447 16
2 5 11 485.032 130.518 9
2 5 11 468.334 132.073 16
-2 -5 -11 784.716 176.377 10
-2 -5 -12 6199.55 465.064 10
2 5 12 4569.43 410.776 16
2 5 13 -85.8084 88.1553 16
-2 -5 -13 -28.5276 48.1331 10
-2 -5 -13 24.7539 38.3674 12
2 5 14 808.63 124.191 16
-2 -5 -14 1843.67 226.723 12
2 6 -10 152.192 42.0555 11
2 6 -9 142.567 51.8301 14
2 6 -9 31.1571 30.7515 11
2 6 -8 4357.72 275.852 14
2 6 -8 4719.86 296.664 25
2 6 -8 3791.56 265.014 11
2 6 -7 1354.4 164.237 14
2 6 -7 1243.37 174.887 25
2 6 -7 1185.89 165.819 11
2 6 -6 34.9018 39.5311 14
2 6 -6 51.8525 47.639 25
2 6 -6 123.646 55.8156 11
2 6 -5 8371.38 495.036 11
2 6 -5 8800.18 507.295 25
2 6 -5 8027.13 458.022 14
2 6 -4 1995.15 248.771 14
2 6 -4 2176.26 261.424 25
2 6 -4 1895.94 233.731 20
2 6 -4 1960.71 253.732 11
2 6 -3 881.162 172.125 25
2 6 -3 518.273 119.683 20
2 6 -3 526.699 132.529 11
2 6 -3 1074.27 206.716 14
2 6 -2 7522.26 517.617 15
2 6 -2 8198.17 521.409 25
2 6 -2 7465.78 477.072 14
2 6 -2 7338.7 440.964 20
2 6 -2 6799.23 468.156 11
2 6 -1 13304.8 704.119 15
2 6 -1 10451.4 758.655 8
2 6 -1 12467.1 657.728 25
2 6 -1 10718.6 540.225 20
-2 -6 0 5151.3 661.112 32
-2 -6 0 4687.75 690.589 28
-2 -6 -1 13141.3 814.312 30
2 6 1 16129.1 876.788 8
-2 -6 -2 658.106 178.831 30
2 6 2 638.704 180.587 8
2 6 2 331.209 105.91 1
-2 -6 -2 253.347 127.024 32
-2 -6 -3 23299.2 1092.32 30
2 6 3 22041.1 1062.58 8
2 6 3 15035.5 791.805 1
-2 -6 -3 16099.9 1109.25 32
2 6 4 105.075 63.5155 1
2 6 4 95.9027 50.442 8
-2 -6 -4 33.8658 28.5769 32
2 6 5 963.444 179.147 9
-2 -6 -5 785.468 203.643 30
2 6 5 507.164 168.016 1
2 6 5 991.591 182.544 22
-2 -6 -5 640.329 218.024 32
2 6 6 2191.82 285.048 16
2 6 6 2112.13 261.789 22
2 6 6 2395.91 277.758 9
2 6 7 9822.97 583.789 9
2 6 7 10257.3 602.894 22
2 6 7 11059.7 638.586 16
2 6 8 8.30574 42.6514 22
2 6 8 -47.1906 86.5496 16
2 6 8 42.9801 41.5436 9
2 6 9 245.291 101.391 16
2 6 9 254.354 106.609 9
2 6 9 188.478 97.8803 22
2 6 10 -48.3007 76.185 9
2 6 10 -66.7055 97.2827 16
2 6 11 906.406 180.58 16
2 6 11 951.638 184.472 9
2 6 12 264.296 93.0743 16
2 6 12 278.518 88.1355 9
2 6 13 -91.5585 78.5535 16
2 7 -8 260.238 59.7983 14
2 7 -8 234.256 56.3591 11
2 7 -7 2629.33 206.415 25
2 7 -7 2343.99 183.964 14
2 7 -7 1943.49 178.059 11
2 7 -6 3751.37 274.314 25
2 7 -6 3608.12 261.021 11
2 7 -6 3805.71 257.068 14
2 7 -5 1442.85 184.709 25
2 7 -5 1267.84 169.429 11
2 7 -5 1028.39 145.922 14
2 7 -4 9001.42 471.731 20
2 7 -4 10140.9 513.38 25
2 7 -4 9059.64 460.363 14
2 7 -4 8250.04 458.483 11
2 7 -3 317.561 98.8842 25
2 7 -3 358.026 95.5447 20
2 7 -3 194.865 73.6211 11
2 7 -2 3578.3 325.672 25
2 7 -2 3651.41 310.444 20
2 7 -1 11293.1 590.326 25
2 7 -1 12539.3 676.764 15
2 7 -1 11227.2 554.668 20
2 7 0 329.057 109.488 25
2 7 0 350.824 104.974 20
2 7 0 522.173 153.184 15
2 7 1 247.578 97.7841 20
2 7 1 254.323 107.364 15
2 7 1 134.358 58.01 25
2 7 2 1500.41 232.691 25
2 7 2 1968.63 295.528 15
2 7 2 1889.88 267.26 20
2 7 3 23366.2 960.672 20
2 7 3 21482.5 818.594 22
2 7 4 315.664 101.317 9
2 7 4 307.258 104.041 22
2 7 4 296.504 123.678 20
2 7 5 7004.39 468.814 22
2 7 5 6518.07 456.819 9
2 7 6 9314.91 543.744 22
2 7 6 8766.4 539.135 9
2 7 7 4583.91 394.956 9
2 7 7 4827.61 399.124 22
2 7 7 4894.85 418.414 16
2 7 8 2764.67 299.829 9
2 7 8 2462.12 295.927 22
2 7 8 2821.91 306.976 16
2 7 9 986.085 190.954 9
2 7 9 878.978 172.016 16
2 7 10 327.305 103.765 16
2 7 10 457.966 130.011 9
2 7 11 3411.64 311.028 9
2 7 11 3539.74 319.969 16
2 7 12 55.3151 41.0005 16
2 7 12 66.3594 33.7589 9
2 7 13 -16.0748 41.0776 16
2 8 -6 270.652 60.6998 25
2 8 -6 258.879 57.0647 11
2 8 -5 8565.94 357.519 25
2 8 -5 7026.58 326.83 11
2 8 -4 1362.64 158.635 25
2 8 -4 1095.63 141.337 11
2 8 -4 1363.53 162.091 20
2 8 -3 4018.32 285.125 25
2 8 -3 3193.58 257.129 11
2 8 -3 4115.27 282.04 20
2 8 -2 268.94 79.8588 25
2 8 -2 380.351 93.2774 20
2 8 -1 1192.04 170.819 25
2 8 -1 1273.07 181.31 20
2 8 0 2700.22 263.439 25
2 8 0 2595.36 271.69 20
2 8 1 3470.81 374.688 15
2 8 1 2703.22 270.162 25
2 8 1 3131.39 299.564 20
2 8 2 736.052 182.187 15
2 8 2 367.842 90.3033 25
2 8 2 494.635 140.199 20
2 8 3 3947.09 342.108 22
2 8 3 4670.64 370.928 25
2 8 4 2286.57 259.688 25
2 8 4 2381.52 273.202 9
2 8 4 2831.69 283.252 22
2 8 4 3034.01 349.008 20
2 8 5 7724.24 462.308 9
2 8 5 7500.22 459.697 22
2 8 6 2524.69 263.971 9
2 8 6 2067.92 255.078 25
2 8 6 2902.78 291.172 22
2 8 7 2036.53 233.17 9
2 8 7 2117.89 257.174 22
2 8 7 1977.53 238.443 16
2 8 8 4879.81 359.409 9
2 8 8 4427.54 348.922 16
2 8 9 1031.96 168.946 9
2 8 9 1130.87 172.424 16
2 8 10 1528.64 189.822 16
2 8 10 1609.16 193.123 9
2 8 11 1023.49 141.22 9
2 8 11 917.684 135.1 16
2 9 -4 3921.87 192.831 25
2 9 -3 21.7409 21.7207 25
2 9 -3 101.175 42.7457 20
2 9 -2 573.676 89.7247 25
2 9 -2 739.385 112.44 20
2 9 -1 111.066 47.1811 25
2 9 -1 192.639 70.7667 20
2 9 0 5339.76 331.151 20
2 9 0 4108.87 272.918 25
2 9 1 -41.6508 42.3877 25
2 9 1 22.3652 27.2266 20
2 9 2 -45.1495 47.8046 25
2 9 2 -17.5866 29.3634 20
2 9 3 684.505 117.059 25
2 9 3 830.867 168.706 20
2 9 4 1777.54 192.596 25
2 9 5 3055.72 249.703 9
2 9 5 2775.08 245.021 25
2 9 6 -22.6005 49.5602 9
2 9 6 -14.1146 24.1485 25
2 9 7 447.752 83.2445 9
2 9 7 404.052 91.2717 25
2 9 8 253.683 64.3064 9
2 9 8 217.05 62.2355 25
2 9 9 -23.8447 29.7429 25
2 9 9 -0.46765 23.9728 9
2 10 2 152.338 38.9699 25
2 10 3 2590.35 173.508 25
2 10 4 7.43818 20.0565 25
-3 8 5 109.678 49.5884 22
-3 8 4 20.0798 28.3011 15
-3 8 4 24.5182 30.7591 22
-3 8 3 -1.84182 28.5567 15
-3 8 3 82.5576 42.665 22
-3 8 2 455.41 97.0204 15
-3 8 2 523.831 91.3681 22
-3 8 1 69.1466 44.2304 15
-3 8 1 64.9263 37.5224 22
-3 8 0 1931.69 159.692 22
-3 8 0 2125.46 181.947 20
-3 8 0 2395.37 203.488 15
-3 8 -1 595.042 98.8963 15
-3 8 -1 591.332 95.2567 20
-3 8 -2 59.2293 30.6751 15
-3 8 -2 72.4829 35.202 20
-3 7 8 1622.12 180.642 16
-3 7 8 1137.48 145.926 9
3 -7 -7 102.726 39.5128 10
-3 7 7 198.272 71.374 22
3 -7 -6 141.283 64.6179 10
-3 7 6 206.549 78.5854 16
-3 7 6 209.824 94.049 15
-3 7 6 219.561 104.821 24
-3 7 6 213.338 93.1195 22
-3 7 5 1655.89 244.886 24
-3 7 5 1581.82 216.129 22
-3 7 5 1787.35 248.69 15
3 -7 -5 893.165 167.428 10
-3 7 5 1280.15 182.267 16
-3 7 4 4864.42 416.609 15
-3 7 4 4901.81 409.347 24
-3 7 4 4705.45 363.546 22
-3 7 3 2763.49 305.256 15
-3 7 3 2409.64 291.744 24
-3 7 3 2500.98 266.836 22
-3 7 2 258.882 103.091 15
-3 7 2 281.308 108.295 24
-3 7 2 218.076 91.7141 22
-3 7 1 4700.33 397.706 24
-3 7 1 4409.26 326.137 22
-3 7 1 4290.32 365.758 20
-3 7 1 4631.97 374.715 15
-3 7 0 113.584 63.5287 22
-3 7 0 65.5424 58.7076 20
-3 7 0 96.7806 70.9985 15
-3 7 -1 942.718 159.184 15
-3 7 -1 927.393 144.645 22
-3 7 -1 954.577 160.032 20
-3 7 -2 246.736 74.4674 15
-3 7 -2 343.339 94.9557 20
-3 7 -3 3907.48 273.999 15
-3 7 -3 4694.08 313.157 20
-3 7 -4 195.676 60.4145 15
-3 7 -4 222.917 68.5507 20
-3 7 -5 32.9113 29.1807 20
-3 7 -6 47.366 28.456 20
3 -6 -10 939.651 138.228 10
-3 6 10 685.273 123.582 16
3 -6 -9 69.7198 48.9867 10
-3 6 9 216.481 93.6887 16
3 -6 -8 23.3216 46.2192 10
-3 6 8 132.583 75.8188 16
3 -6 -7 -7.06353 59.2869 10
-3 6 7 86.94 46.3125 16
-3 6 7 40.124 47.579 22
-3 6 7 140.991 98.6859 24
-3 6 6 1781.25 242.797 16
-3 6 6 2030.31 311.734 24
-3 6 6 1885.99 307.591 15
-3 6 6 1833.15 276.236 22
3 -6 -6 1692.65 269.295 10
-3 6 5 4502.83 391.157 16
-3 6 5 5447.95 509.062 24
3 -6 -5 4394.49 449.759 10
-3 6 5 4459.5 418.798 22
-3 6 5 4824.21 496.464 15
3 -6 -4 3250.42 403.907 10
-3 6 4 3143.51 345.763 22
-3 6 4 3098.19 392.882 15
-3 6 4 3750.47 411.016 24
-3 6 3 -29.3525 48.7939 15
-3 6 3 114.421 80.2379 22
3 -6 -3 130.689 94.0746 10
-3 6 3 79.2426 73.737 24
3 -6 -2 369.578 148.529 10
-3 6 2 267.913 116.077 15
-3 6 2 361.547 126.534 24
-3 6 2 314.341 109.687 22
-3 6 1 5889.77 491.861 15
-3 6 1 6636.45 532.609 24
-3 6 1 6474.98 467.464 22
-3 6 1 8214.87 711.989 21
-3 6 1 6636.87 535.834 20
-3 6 1 8341.96 862.375 18
-3 6 0 4962.65 464.43 20
-3 6 0 3621.01 397.565 24
-3 6 0 5218.33 440.296 15
-3 6 0 5107.24 406.804 22
-3 6 -1 167.991 67.6556 15
-3 6 -1 291.905 96.4365 22
-3 6 -1 328.171 147.079 21
-3 6 -1 294.823 116.58 20
-3 6 -2 1125.84 188.402 22
-3 6 -2 1348.79 209.811 20
-3 6 -2 1053.51 183.113 15
-3 6 -3 6590.62 428.396 15
-3 6 -3 7233.2 584.394 21
-3 6 -3 7175.18 446.12 20
-3 6 -4 601.958 126.099 15
-3 6 -4 883.149 151.668 20
-3 6 -4 821.274 188.833 21
-3 6 -5 554.999 117.767 15
-3 6 -5 884.418 187.742 21
-3 6 -5 673.604 122.892 20
-3 6 -6 2805.46 296.779 21
-3 6 -6 2030.51 191.502 20
-3 6 -7 770.582 141.187 21
-3 6 -7 623.332 102.365 20
-3 5 11 3618.48 299.537 16
3 -5 -11 4954.02 320.752 10
-3 5 10 3473.8 335.226 16
3 -5 -10 4175.92 334.12 10
-3 5 9 3155.15 346.591 16
3 -5 -9 3052.82 316.8 10
3 -5 -8 494.47 131.912 10
-3 5 8 591.591 148.812 16
-3 5 8 457.442 168.802 24
3 -5 -7 27.3341 35.4226 10
-3 5 7 -19.1413 107.341 24
-3 5 7 -30.5311 133.166 15
-3 5 7 -49.549 73.7848 16
-3 5 7 15.4823 56.622 22
-3 5 6 1220.1 271.012 24
-3 5 6 1538.01 328.684 15
3 -5 -6 1356.98 260.979 10
-3 5 6 1377.09 251.007 22
-3 5 5 17449.8 1067.32 15
-3 5 5 15422.6 883.564 24
-3 5 5 15130.4 871.272 22
3 -5 -5 15383.5 863.434 10
-3 5 4 1491.43 310.529 15
-3 5 4 1411.43 265.531 24
-3 5 4 1249.06 238.353 22
3 -5 -4 1346.01 273.093 10
-3 5 3 86.8547 88.9136 15
-3 5 3 294.913 115.847 24
-3 5 3 67.924 46.5759 22
-3 5 3 143.473 142.007 18
-3 5 2 752.6 197.101 15
-3 5 2 816.28 195.433 24
-3 5 2 657.693 224.145 21
-3 5 2 1223 322.526 18
-3 5 1 776.11 181.935 15
-3 5 1 841.646 196.857 24
-3 5 1 653.8 172.937 21
-3 5 1 837.351 209.253 20
-3 5 1 1392.4 347.965 18
-3 5 0 2036.72 299.379 24
-3 5 0 1703.79 263.069 15
-3 5 0 2188.53 371.425 21
-3 5 0 1838.95 299.377 20
-3 5 -1 6554.4 501.916 15
-3 5 -1 7135.06 558.831 24
-3 5 -1 7994.31 700.216 21
-3 5 -1 6332.25 513.21 20
-3 5 -2 11219.7 649.522 20
-3 5 -2 11459.3 661.622 15
-3 5 -3 1729.37 295.569 21
-3 5 -3 1254.77 223.65 11
-3 5 -3 1012.35 189.475 20
-3 5 -3 1243.59 215.372 15
-3 5 -4 6394.69 546.814 21
-3 5 -4 5553.52 460.768 11
-3 5 -4 5062.58 397.748 20
-3 5 -5 861.916 193.294 21
-3 5 -5 644.593 140.959 20
-3 5 -5 820.004 169.265 11
-3 5 -6 2410.07 300.834 21
-3 5 -6 2108.51 260.709 11
-3 5 -6 1970.21 219.715 20
-3 5 -7 36.429 31.0631 21
-3 5 -7 64.4428 41.8127 20
-3 5 -7 44.0091 31.7587 11
-3 5 -8 406.336 105.155 21
-3 5 -8 384.575 87.1778 20
-3 5 -8 412.569 96.2119 11
-3 5 -9 177.378 67.2971 21
-3 5 -9 143.51 54.6744 11
-3 5 -10 3810.4 255.124 21
3 -4 -12 40.1476 33.3081 10
-3 4 11 516.306 126.443 16
3 -4 -11 787.074 142.953 10
-3 4 10 3455.36 370.79 16
3 -4 -10 4169.63 354.413 10
3 -4 -9 529.228 131.247 10
-3 4 9 629.621 178.838 16
-3 4 8 3553.56 503.719 24
-3 4 8 3840.99 423.772 16
3 -4 -8 3844.06 373.578 10
3 -4 -7 407.008 127.383 10
-3 4 7 536.268 240.391 15
-3 4 7 530.689 214.086 24
-3 4 6 4552.6 535.834 24
3 -4 -6 4732.26 453.645 10
-3 4 6 4554.12 502.851 22
3 -4 -5 132.282 92.533 10
-3 4 5 262.729 137.068 24
-3 4 5 191.186 116.766 15
-3 4 5 227.45 116.792 22
-3 4 4 3601.89 434.909 24
-3 4 4 3899.02 507.002 15
-3 4 3 3867.09 437.413 24
-3 4 3 2858.14 446.506 5
-3 4 3 2846.08 445.197 8
3 -4 -3 3355.18 429.716 4
-3 4 3 3043.41 456.343 21
3 -4 -3 2532.67 362.228 30
-3 4 3 4441.58 519.525 15
-3 4 2 21345.2 1165.89 5
-3 4 2 20049.3 1136.67 8
3 -4 -2 21712.5 1089.3 4
3 -4 -2 19684.7 1024.29 30
-3 4 1 12553.6 869.913 8
3 -4 -1 12393.8 823.236 4
3 -4 -1 11271.8 779.242 30
3 -4 0 334.03 147.135 30
-3 4 0 498.773 169.51 5
-3 4 0 490.872 161.39 8
3 -4 0 449.951 144.692 4
3 -4 1 21633.3 1193.54 27
-3 4 -1 17994.7 987.254 8
3 -4 1 15196.9 955.753 30
3 -4 1 15881.1 937.276 4
-3 4 -1 19401.5 1001.53 5
3 -4 2 6046.28 636.95 30
3 -4 2 5663.42 569.18 4
3 -4 3 4621.69 602.93 27
-3 4 -3 4256.79 408.013 11
-3 4 -3 5174.83 501.01 21
-3 4 -3 4124.7 404.732 15
-3 4 -3 3326.21 405.371 5
-3 4 -4 2150.09 323.096 21
-3 4 -4 1938.86 280.1 11
-3 4 -5 446.408 150.722 21
-3 4 -5 197.553 84.8519 20
-3 4 -5 524.786 149.195 11
-3 4 -6 2880.55 352.089 21
-3 4 -6 2875.25 341.198 11
-3 4 -6 2324.02 269.127 20
-3 4 -7 5751.05 469.918 21
-3 4 -7 5623.94 457.253 11
-3 4 -7 5033.3 385.775 20
-3 4 -8 880.902 172.716 21
-3 4 -8 808.304 161.786 11
-3 4 -9 847.656 156.453 21
-3 4 -9 799.283 144.428 11
-3 4 -10 556.365 123.773 21
-3 4 -11 3445.86 258.129 21
3 -3 -12 4654.24 312.498 10
3 -3 -11 5738.3 381.813 10
3 -3 -10 1872.64 284.699 17
3 -3 -10 1451.93 210.017 10
-3 3 9 1558.15 271.675 16
3 -3 -9 1852.54 244.139 10
-3 3 8 568.509 221.778 24
3 -3 -8 453.162 119.956 10
3 -3 -8 638.544 176.917 17
-3 3 7 728.288 225.142 24
3 -3 -7 946.22 193.918 10
3 -3 -6 463.693 143.871 10
3 -3 -6 403.838 181.114 26
-3 3 6 342.62 155.479 24
3 -3 -6 529.373 169.287 17
3 -3 -5 21295.9 1194.47 26
3 -3 -5 20851.8 1014.31 4
-3 3 5 21441.4 1260.93 6
3 -3 -4 3285.53 436.575 26
3 -3 -4 3717.84 413.344 4
-3 3 4 3682.89 486.355 6
3 -3 -3 21949.7 1089.57 27
3 -3 -3 21625.8 968.098 4
3 -3 -3 23125.4 1132.68 26
3 -3 -3 18387.3 837.375 30
-3 3 3 24509.8 1168.08 6
-3 3 3 17785.1 1015.57 5
3 -3 -2 526.219 147.67 30
3 -3 -2 165.567 91.7574 27
-3 3 2 492.079 169.339 5
3 -3 -2 415.666 144.446 4
3 -3 -2 536.24 175.541 26
3 -3 -1 2431.01 322.781 30
3 -3 -1 2918.57 385.816 27
3 -3 -1 3124.11 405.446 26
3 -3 -1 3059.73 357.414 4
-3 3 1 2603.76 350.931 5
-3 3 0 33263.9 1167.04 5
3 -3 0 28998.9 1139.89 30
-3 3 0 29463.5 1112.86 8
3 -3 0 31652.4 1154.98 4
-3 3 -1 10968.7 651.295 5
3 -3 1 9811.49 654.623 4
-3 3 -1 9818.3 658.425 8
-3 3 -2 3393.26 360.13 5
-3 3 -2 2996.12 358.191 8
3 -3 2 2284.48 332.081 4
3 -3 2 4139.68 503.581 27
-3 3 -3 21488.1 906.09 5
3 -3 3 17851.3 985.563 4
-3 3 -4 880.206 187.055 5
3 -3 4 1494.9 351.999 27
3 -3 4 649.981 197.749 4
-3 3 -4 1196.44 293.381 29
3 -3 5 198.303 112.529 27
-3 3 -5 5.93626 49.3131 5
-3 3 -5 100.244 62.5866 29
3 -3 5 105.911 62.4279 4
-3 3 -6 368.357 130.74 21
3 -3 6 264.886 169.441 4
-3 3 -7 11576.4 698.318 21
-3 3 -8 325.561 110.527 21
-3 3 -9 1260.03 211.7 21
-3 3 -10 11835.9 605.381 21
-3 3 -11 2322.04 247.918 21
-3 3 -12 1923.64 200.633 21
3 -2 -13 105.881 50.9056 11
3 -2 -13 108.674 38.1442 10
3 -2 -12 6330.51 365.93 10
3 -2 -11 7733.17 517.017 17
3 -2 -11 5352.05 359.858 10
3 -2 -10 89.625 59.6863 10
3 -2 -10 138.727 87.8984 19
3 -2 -10 109.052 74.318 17
3 -2 -9 1301.14 246.49 19
3 -2 -9 1267.38 231.179 17
3 -2 -9 996.504 183.49 10
3 -2 -8 21.0593 34.5277 10
3 -2 -8 130.246 77.0782 19
3 -2 -8 -8.11472 90.9856 17
3 -2 -7 10976 709.15 19
3 -2 -7 11437.2 732.763 17
3 -2 -7 9842.98 571.609 10
3 -2 -6 2005.86 353.745 26
3 -2 -6 1452.34 257.987 4
-3 2 6 2038.44 402.734 6
3 -2 -5 367.146 135.63 26
3 -2 -5 567.929 141.097 4
-3 2 5 633.184 191 6
3 -2 -4 1398.8 217.694 4
3 -2 -4 1559.55 277.147 26
-3 2 4 1821.03 314.519 6
3 -2 -3 670.663 194.252 27
-3 2 3 749.754 190.529 5
3 -2 -3 1045.05 236.682 26
3 -2 -3 761.158 162.253 4
-3 2 3 1004.09 225.391 6
-3 2 2 18635.2 856.128 5
3 -2 -2 18153.6 711.54 30
3 -2 -2 21145.5 937.041 26
3 -2 -2 21246.5 902.224 27
3 -2 -2 19776.8 792.243 4
-3 2 1 93537.9 1841.04 5
3 -2 -1 93015.8 1716.59 4
-3 2 0 1492.06 231.662 5
3 -2 0 1381.91 216.485 27
3 -2 0 1313.83 205.327 4
-3 2 -1 76824 1566.71 5
3 -2 1 70711.5 1628.25 4
-3 2 -2 7630 512.432 8
3 -2 2 7971.71 570.38 4
3 -2 2 8629.11 637.442 3
-3 2 -2 8564.44 519.38 5
-3 2 -3 45432.1 1509.17 29
3 -2 3 42014.4 1467.46 3
-3 2 -4 13049.1 790.657 29
3 -2 4 15329.9 999.231 27
3 -2 4 13345.4 873.206 3
-3 2 -5 6089.94 550.552 29
-3 2 -5 5586.92 437.827 5
3 -2 5 6978.27 651.407 3
3 -2 6 7374.85 750.462 27
-3 2 -6 6744.32 613.501 29
3 -2 6 7210.98 688.833 3
-3 2 -6 6209.94 483.406 5
-3 2 -7 1958.73 336.525 29
3 -2 7 2427.35 478.52 27
-3 2 -7 2940.67 357.28 21
-3 2 -8 6403.46 521.317 21
-3 2 -9 148.441 76.1023 21
-3 2 -10 3606.75 365.582 21
-3 2 -11 3799.82 351.084 21
-3 2 -12 206.043 77.7728 21
-3 2 -13 -55.1966 55.6697 21
3 -1 -13 26.2356 23.9688 11
3 -1 -11 10234.4 590.342 19
3 -1 -11 9540.28 550.051 17
3 -1 -10 5193.18 446.346 19
3 -1 -10 4618.9 401.579 17
3 -1 -9 306.986 99.3079 10
3 -1 -9 440.742 128.392 19
3 -1 -9 464.198 127.485 17
3 -1 -8 449.191 123.597 10
3 -1 -8 391.293 144.976 19
3 -1 -8 283.547 85.7242 17
3 -1 -7 2905.75 437.704 26
-3 1 7 2810.98 486.837 6
-3 1 7 2569.48 476.155 7
-3 1 6 27476.3 1401.07 7
-3 1 6 28746.9 1452.97 6
3 -1 -6 26747 1177.76 26
3 -1 -5 5309.09 400.476 4
3 -1 -5 5479.35 494.044 26
-3 1 5 5349.73 577.387 7
-3 1 5 5380.68 582.449 6
-3 1 5 4976.68 570.712 31
3 -1 -4 114.431 67.3002 26
-3 1 4 104.482 65.6095 28
3 -1 -4 79.5522 35.9141 4
3 -1 -3 11191.6 625.801 26
3 -1 -3 9387.46 472.568 4
-3 1 3 9950.36 622.133 28
-3 1 3 10442.3 636.332 6
-3 1 2 2041.11 258.891 5
-3 1 2 2495.32 284.004 28
3 -1 -2 2181.3 200.419 30
3 -1 -2 2317.33 267.683 27
3 -1 -2 2060.99 215.938 4
-3 1 2 2385.57 269.281 6
-3 1 1 16859.4 714.284 5
3 -1 -1 18173.3 715.268 27
-3 1 1 18296.1 668.34 6
-3 1 1 17119.2 672.678 28
-3 1 0 39819 993.147 28
-3 1 0 39083.2 1052.01 5
3 -1 0 36330.5 1003.18 4
3 -1 0 36696.4 996.643 27
-3 1 -1 4868.5 328.625 28
-3 1 -1 4348.35 346.076 5
3 -1 1 5536 405.534 27
-3 1 -1 4488.39 291.258 6
3 -1 1 3662.84 388.37 3
-3 1 -1 4448.13 441.219 29
-3 1 -2 60511.3 1544.13 29
-3 1 -2 62173.9 1125.05 28
-3 1 -2 55659.7 1209.2 5
3 -1 2 58115.3 1566.82 3
-3 1 -3 9560.19 506.675 5
3 -1 3 15405.8 862.669 27
-3 1 -3 11327.9 666.693 29
3 -1 3 15041.6 799.185 3
-3 1 -4 14148.8 764.545 29
-3 1 -4 12776.6 588.443 5
3 -1 4 15024.5 848.238 3
-3 1 -5 1069.27 179.487 5
-3 1 -5 802.05 180.648 29
3 -1 5 1636.36 334.265 27
3 -1 5 1364.74 260.895 3
-3 1 -6 71830.5 1500.97 5
3 -1 6 69807.2 2147.58 27
3 -1 6 76034.2 1972.39 3
-3 1 -7 1231.47 239.822 29
3 -1 7 1532.16 390.175 27
3 -1 7 1012.39 243.778 3
-3 1 -8 4182.24 462.257 29
3 -1 8 3832.61 615.329 27
3 -1 8 4141.5 517.498 3
-3 1 -8 5817.39 509.705 21
-3 1 -9 45.0172 41.3737 12
-3 1 -9 140.24 74.3746 21
-3 1 -10 388.547 120.884 12
-3 1 -10 614.384 161.849 21
-3 1 -11 3133.2 321.899 12
-3 1 -11 3519.12 364.17 21
-3 1 -12 2465.58 259.594 12
-3 1 -12 3280.25 326.875 21
-3 1 -13 78.8577 41.7636 12
-3 1 -13 23.5734 25.6024 21
-3 1 -14 706.379 114.349 21
3 0 -13 817.963 123.576 11
3 0 -12 430.737 99.575 11
3 0 -11 1071.95 185.577 19
3 0 -11 858.277 157.004 17
3 0 -10 1605.57 225.768 19
3 0 -10 1313.88 200.186 17
3 0 -9 8268.74 546.92 19
3 0 -9 7697.58 524.312 17
3 0 -8 14754.3 748.252 19
3 0 -8 14661.2 726.762 17
-3 0 7 879.704 292.226 31
3 0 -7 1287.75 282.285 26
-3 0 7 1032.5 292.576 7
-3 0 7 962.872 280.227 6
-3 0 6 6580.97 661.663 31
3 0 -6 9010.78 642.36 26
-3 0 6 8638.69 794.535 7
-3 0 6 8155.81 755.551 6
3 0 -5 10615.3 635.918 26
-3 0 5 9282.79 716.435 6
-3 0 5 10230.3 699.915 28
-3 0 4 12494.4 730.988 31
3 0 -4 15203.7 722.418 26
3 0 -4 15189.5 560.696 4
-3 0 4 13394.4 707.964 28
-3 0 4 13758.1 797.894 6
-3 0 3 7438.22 500.773 31
3 0 -3 10010.6 536.803 26
3 0 -3 6405.6 339.713 4
-3 0 3 9031.99 540.89 28
-3 0 3 8180.06 553.806 6
-3 0 2 1278.79 214.457 31
-3 0 2 1681.66 213.552 5
-3 0 2 1761.48 220.709 28
3 0 -2 1330.56 195.52 27
3 0 -2 1650.35 167.542 4
-3 0 2 1392.65 210.663 6
-3 0 1 11806.2 558.405 5
3 0 -1 9866.45 412.793 4
-3 0 1 10515.1 494.211 28
-3 0 1 10502.8 520.639 6
3 0 -1 10885.3 481.687 27
-3 0 0 39229.6 892.463 28
-3 0 0 41285.7 1013.25 5
3 0 0 40577.4 910.533 27
3 0 0 39899.6 914.695 4
-3 0 0 40099 936.954 6
3 0 1 793.733 131.477 1
-3 0 -1 1494.91 172.29 28
-3 0 -1 1360.84 179.63 5
-3 0 -1 965.183 183.974 29
3 0 1 1082.07 180.525 3
-3 0 -1 1469.03 174.775 6
3 0 1 1826.29 194.012 27
-3 0 -2 38496.9 1115.52 29
-3 0 -2 38748.7 793.226 28
3 0 2 46381.1 1079.17 27
-3 0 -2 36823.2 922.16 5
3 0 2 29851.6 690.468 1
-3 0 -2 28496 708.13 6
3 0 2 41676.6 1134.17 3
-3 0 -3 50291.2 864.714 28
3 0 3 67294.3 1517.23 27
-3 0 -3 43384.1 1005.71 5
3 0 3 34381.1 746.378 1
-3 0 -3 47374.2 1220.22 29
3 0 3 63165.5 1464.44 3
-3 0 -4 4582.99 401.153 29
-3 0 -4 5440.16 312.69 28
-3 0 -4 4482.74 328.064 5
3 0 4 5201.21 455.409 7
3 0 4 5761.53 463.855 3
-3 0 -5 41484.3 1244.68 29
3 0 5 46324.6 1442.37 27
-3 0 -5 38637.7 1048.8 5
3 0 5 47643.8 1474.38 7
-3 0 -5 40294.1 1051.75 2
3 0 5 49089.1 1398.8 3
-3 0 -6 14341.4 754.629 29
-3 0 -6 16999.8 691.519 5
3 0 6 15656.6 918.329 27
3 0 6 17388.4 950.654 7
3 0 6 17381.1 899.309 3
3 0 7 18462.9 985.519 3
-3 0 -7 16664.1 854.446 29
3 0 7 15382.4 1023.24 27
3 0 7 17239.6 1031.76 7
-3 0 -8 1081.31 229.877 29
3 0 8 1016.57 342.522 27
3 0 8 1121.73 255.167 3
3 0 8 1251.3 308.076 7
3 0 9 2553.4 452.656 7
-3 0 -9 3465.17 367.682 12
-3 0 -10 1302.22 223.127 12
-3 0 -10 1534.59 273.509 21
-3 0 -11 1028.15 187.83 12
-3 0 -11 1194.27 225.562 21
-3 0 -12 161.456 76.9115 12
-3 0 -12 62.9257 36.7168 21
-3 0 -13 51.1233 38.4611 12
-3 0 -13 82.5858 55.7537 21
-3 0 -14 95.2124 43.2232 12
-3 0 -14 101.297 46.8849 21
3 1 -13 89.5429 43.8005 11
3 1 -12 8490.05 429.443 11
3 1 -11 7590.56 431.407 19
3 1 -11 6970.17 417.728 11
3 1 -11 6115.64 386.505 17
3 1 -10 57.8117 67.6346 19
3 1 -10 -4.98683 47.1144 11
3 1 -10 49.8818 34.678 17
3 1 -9 2285.03 273.41 19
3 1 -9 2256.7 271.425 17
3 1 -8 8770.84 548.781 19
3 1 -8 8020.01 514.631 17
-3 -1 7 3339.5 523.811 31
3 1 -7 3947.8 469.435 26
-3 -1 7 2593.01 508.223 7
-3 -1 7 3231.33 525.075 6
-3 -1 6 4326.79 554.574 31
3 1 -6 5036.76 480.068 26
-3 -1 6 3291.27 520.992 7
-3 -1 6 4575.71 565.937 6
-3 -1 5 8037.05 683.433 31
-3 -1 5 8816.06 725.584 6
3 1 -5 8248.67 478.813 2
-3 -1 4 30744.6 1235.86 31
-3 -1 4 31254.6 1170.65 28
-3 -1 4 32729.4 1269.28 6
3 1 -4 27951.7 789.847 2
-3 -1 3 12514.8 734.182 31
-3 -1 3 13279.6 716.58 28
3 1 -3 11688.5 456.136 2
-3 -1 3 13196.3 743.537 6
3 1 -2 311.307 87.1403 26
-3 -1 2 313.135 97.6877 28
3 1 -2 286.503 64.2399 2
3 1 -2 637.621 88.0206 4
-3 -1 2 242.632 98.4022 6
-3 -1 2 401.438 93.9087 5
3 1 -1 13498.6 489.225 27
-3 -1 1 13480.4 581.634 5
3 1 -1 13523.5 544.228 1
3 1 -1 14845.1 439.194 4
-3 -1 1 13574 642.057 6
-3 -1 1 12350.9 592.182 28
3 1 0 152323 1541.31 27
-3 -1 0 150972 1954.34 32
-3 -1 0 149455 1955.69 28
-3 -1 0 155968 2048.99 6
-3 -1 -1 7435.11 418.138 28
3 1 1 7910.13 351.959 27
-3 -1 -1 7374.59 425.825 32
3 1 1 8725.63 434.852 1
3 1 1 8199.64 442.478 3
-3 -1 -2 239.425 91.3965 29
-3 -1 -2 156.863 63.8607 28
3 1 2 297.355 71.3083 27
-3 -1 -2 224.869 78.504 32
3 1 2 252.255 89.436 1
-3 -1 -3 177752 2351.74 29
-3 -1 -3 172477 1746.04 28
-3 -1 -3 158159 1908.77 32
3 1 3 170781 1915.05 27
3 1 3 196015 2177.22 1
3 1 3 198706 2398.1 3
-3 -1 -4 10241.5 425.005 2
-3 -1 -4 14325.5 675.812 29
-3 -1 -4 10943 425.096 28
3 1 4 15884.4 673.613 1
3 1 4 14879.8 680.746 3
3 1 4 16712.6 795.394 7
-3 -1 -4 14496.5 576.215 32
3 1 4 18660.3 731.009 27
3 1 5 324.632 186.223 31
-3 -1 -5 627.445 145.415 29
-3 -1 -5 273.196 86.6495 2
3 1 5 799.925 180.603 27
3 1 5 762.957 178.589 3
3 1 5 604.524 146.001 1
3 1 5 734.25 195.22 7
-3 -1 -5 597.983 130.434 32
-3 -1 -6 45545.4 1125.45 2
3 1 6 48987.4 1402.69 3
3 1 6 50727.7 1514.57 27
-3 -1 -6 47099.2 1325.88 29
3 1 6 51311.1 1570.89 7
-3 -1 -6 53852.3 1179.49 32
3 1 7 21390.9 1014.98 3
-3 -1 -7 23997 994.596 29
3 1 7 19269.1 1033.09 27
3 1 7 24152.3 1159.48 7
-3 -1 -7 25530.2 922.438 2
3 1 8 128.311 233.406 31
3 1 8 459.041 175.5 3
-3 -1 -8 496.557 157.074 29
3 1 8 526.82 209.707 7
3 1 9 2531.1 412.299 3
-3 -1 -9 3033.66 409.577 29
3 1 9 2452.4 442.691 7
-3 -1 -9 3185.45 359.463 12
-3 -1 -10 650.015 161.464 12
-3 -1 -11 5292.34 444.171 12
-3 -1 -12 -19.8926 53.4034 12
-3 -1 -12 17.0202 33.1685 21
-3 -1 -13 402.549 110.155 12
-3 -1 -13 578.957 150.225 21
-3 -1 -14 1743.75 201.867 12
-3 -1 -14 2367.14 263.211 21
-3 -1 -15 131.518 49.9973 12
-3 -1 -15 124.803 50.7995 21
3 2 -13 -14.6099 17.4848 11
3 2 -12 5244.9 315.642 11
3 2 -11 1965.07 202.993 19
3 2 -11 2091.61 220.648 11
3 2 -10 85.8094 61.8333 14
3 2 -10 79.3332 41.5229 19
3 2 -10 51.1687 51.783 11
3 2 -9 10121.5 540.987 19
3 2 -9 10833.9 557.62 11
3 2 -8 2090.86 313.301 14
3 2 -8 1687.16 233.207 19
3 2 -8 1469.46 212.352 11
3 2 -8 1503.91 222.146 17
3 2 -7 19937.9 1003.26 26
3 2 -7 37902.7 1211.41 25
3 2 -7 38820.6 1327.54 14
3 2 -7 30831.7 985.429 19
-3 -2 7 15751.6 1172.06 6
3 2 -7 27009.2 935.264 17
-3 -2 6 1081.87 301.441 31
3 2 -6 1735.03 281.908 26
3 2 -6 1260.12 207.299 2
-3 -2 6 1195.82 293.742 6
-3 -2 5 10078.8 842.645 31
3 2 -5 12694.9 611.607 2
-3 -2 5 11568.4 876.101 6
-3 -2 4 3240.16 471.767 31
-3 -2 4 3534.36 445.589 28
3 2 -4 4525.23 336.62 2
-3 -2 4 4382.41 515.246 6
-3 -2 3 25388.7 1131.43 28
3 2 -3 27006.1 723.368 2
-3 -2 3 26871.8 1170.35 6
3 2 -2 234.462 59.3958 2
3 2 -2 372.91 81.5867 26
-3 -2 2 390.265 138.063 28
-3 -2 2 373.955 111.742 32
3 2 -2 171.127 63.4052 1
-3 -2 2 463.17 145.064 6
-3 -2 1 52920 1436.65 28
-3 -2 1 46812.8 1188.25 32
3 2 -1 56036.3 1159.55 1
-3 -2 1 44091.1 1286.23 6
-3 -2 0 48276.2 1313.72 28
3 2 0 49349.5 1072.9 1
-3 -2 -1 27791.5 1030.71 28
3 2 1 25455 584.613 27
3 2 1 27462 717.229 3
-3 -2 -1 24723.2 861.521 32
-3 -2 -2 9359.35 476.345 29
3 2 2 8861.22 346.749 27
-3 -2 -2 9566.34 533.271 28
-3 -2 -2 8402.2 482.494 32
3 2 2 9721.6 462.994 3
-3 -2 -3 114153 1792.73 29
3 2 3 98776.7 1201.92 27
3 2 3 146532 2092.61 1
-3 -2 -3 127408 1814.01 28
3 2 3 139440 1881.11 3
-3 -2 -3 114520 1749.22 32
-3 -2 -4 5735.31 425.791 29
-3 -2 -4 6186.87 383.832 28
3 2 4 7511.12 512.81 7
-3 -2 -4 6270.96 425.174 32
3 2 4 7256.8 507.464 1
3 2 4 6437.36 417.633 3
3 2 5 13278.5 663.685 3
3 2 5 14767.7 757.241 7
-3 -2 -5 13225.2 686.264 29
3 2 5 14986.5 769.199 1
-3 -2 -5 14682.3 653.623 32
3 2 5 14519 615.035 27
-3 -2 -6 38898 1237.5 29
3 2 6 35031 1191.95 3
-3 -2 -6 39121.3 1051.98 32
3 2 6 41288.1 1360.92 7
3 2 6 33256.1 1211.39 1
3 2 7 15124.3 832.958 3
-3 -2 -7 18095.7 882.907 29
3 2 7 17543 952.273 7
-3 -2 -7 18011.1 762.704 32
3 2 7 18264.9 1415.24 31
3 2 8 10183.4 764.147 3
-3 -2 -8 12557.9 785.59 29
3 2 8 11722.6 858.643 7
3 2 8 9539.58 1117.73 31
3 2 9 586.903 347.18 31
-3 -2 -9 340.891 139.448 29
3 2 9 413.417 177.263 3
3 2 9 536.389 209.646 7
-3 -2 -9 425.499 123.845 10
-3 -2 -10 10122.5 599.169 10
-3 -2 -11 176.61 69.5264 12
-3 -2 -11 311.81 95.372 10
-3 -2 -12 245.168 89.777 12
-3 -2 -13 45.4177 36.9497 12
-3 -2 -13 42.1035 62.0142 21
-3 -2 -14 6583.25 417.062 12
-3 -2 -14 7513.79 494.459 21
-3 -2 -15 792.61 124.592 12
-3 -2 -15 824.767 130.148 21
3 3 -12 12.2178 18.0726 11
3 3 -11 1706.48 185.358 11
3 3 -10 190.129 82.5344 14
3 3 -10 102.162 36.7848 19
3 3 -10 164.532 58.081 11
3 3 -9 7651.95 466.228 11
3 3 -9 4835.34 358.873 19
3 3 -8 1056.62 189.268 11
3 3 -8 1115.37 180.342 19
3 3 -7 11503.4 687.107 25
3 3 -7 12714.6 739.734 14
3 3 -7 9170.07 543.634 11
3 3 -7 9288.49 536.889 19
-3 -3 6 567.489 246.467 31
3 3 -6 1464.48 227.56 2
-3 -3 6 275.927 204.884 7
-3 -3 6 1088.83 310.544 6
3 3 -5 11911 608.105 2
-3 -3 5 10648.1 911.026 6
3 3 -4 6688.5 420.479 2
-3 -3 4 5859.89 639.558 6
3 3 -3 2457.88 236.376 2
-3 -3 3 2262.34 420.577 28
-3 -3 3 2159.21 376.588 6
3 3 -2 1622.62 174.867 26
3 3 -2 1465.82 210.339 1
-3 -3 2 1366.27 330.435 28
3 3 -2 1142.05 157.587 2
-3 -3 2 1100.05 246.768 6
3 3 -1 14558.3 615.331 1
3 3 -1 14600.4 499.701 26
-3 -3 1 15714 1010.13 28
3 3 0 382017 3160.14 1
-3 -3 0 338489 3736.54 32
-3 -3 -1 4532.35 299.974 30
-3 -3 -1 4583.78 421.985 32
3 3 1 5748.83 403.112 1
-3 -3 -1 5389.27 521.047 28
-3 -3 -2 2490.95 241.998 30
3 3 2 3517.24 319.634 1
-3 -3 -2 2949.4 371.243 28
-3 -3 -2 2906.97 325.439 32
3 3 2 2590.34 226.574 3
-3 -3 -3 17688.6 681.138 30
-3 -3 -3 16338.6 695.498 29
-3 -3 -3 23524.9 1010.49 28
3 3 3 25118.1 903.304 1
3 3 3 18830.1 667.038 3
-3 -3 -3 19963.3 837.257 32
-3 -3 -4 2385.82 270.627 30
-3 -3 -4 2837.56 363.173 28
-3 -3 -4 1821.54 252.717 29
3 3 4 2955.8 339.76 1
-3 -3 -4 2710.51 312.323 32
3 3 4 2816.84 272.431 3
-3 -3 -5 41547.1 1196.95 30
-3 -3 -5 61864.8 1609.26 28
-3 -3 -5 42020.8 1266.72 29
3 3 5 49206.8 1389.72 7
3 3 5 55616 1557.72 1
-3 -3 -5 49805.6 1332.83 32
3 3 5 47079.7 1216.89 3
3 3 6 12739.4 703.586 3
-3 -3 -6 13323.2 722.502 30
3 3 6 13539.1 779.546 7
-3 -3 -6 13986.3 772.742 29
3 3 6 13315 788.809 1
-3 -3 -6 15549.6 755.932 32
3 3 7 24995.6 1076.67 3
-3 -3 -7 29287.3 1179.8 29
3 3 7 27640.6 1195.97 7
-3 -3 -7 30400.2 1105.31 32
3 3 7 22615.9 1099.42 1
3 3 8 1656.53 523.652 31
3 3 8 947.762 221.097 3
-3 -3 -8 1190.84 258.271 29
3 3 8 726.331 219.565 1
3 3 8 1071.21 261.29 7
-3 -3 -8 1535.99 257.36 32
3 3 9 2359.74 389.851 3
-3 -3 -9 2823.89 420.737 29
3 3 9 3068.19 467.169 7
3 3 9 3251.27 759.297 31
3 3 9 1953.49 367.22 1
-3 -3 -9 3340.06 361.263 10
3 3 9 2558.55 342.712 16
-3 -3 -10 16604.1 823.586 10
3 3 10 13325 762.285 16
3 3 11 1131.73 234.608 16
-3 -3 -11 1590.04 270.973 12
-3 -3 -11 1845.04 265.25 10
-3 -3 -12 157.504 72.122 12
-3 -3 -12 207.537 76.5709 10
-3 -3 -13 78.3668 48.0783 12
-3 -3 -14 2000.9 243.867 12
-3 -3 -14 2139.48 263.27 21
-3 -3 -15 125.152 51.5625 12
3 4 -11 55.9419 38.1894 11
3 4 -10 252.329 76.816 14
3 4 -10 155.352 60.7224 11
3 4 -9 1616.77 215.319 14
3 4 -9 1010.32 158.284 11
3 4 -8 17078.9 775.086 25
3 4 -8 18469.2 766.098 14
3 4 -7 430.797 128.437 25
3 4 -7 544.148 145.977 14
3 4 -7 564.735 130.418 11
3 4 -6 2.81586 50.9947 25
3 4 -6 -5.54015 30.6879 14
3 4 -6 1.27934 34.9928 11
3 4 -5 12704.9 732.334 14
3 4 -5 11518.1 691.252 25
3 4 -4 15825.2 761.418 2
-3 -4 4 10841.8 930.956 6
-3 -4 3 730.766 274.13 28
-3 -4 3 761.875 266.119 6
-3 -4 2 4204.07 643.304 28
3 4 -2 6394.5 447.538 1
-3 -4 1 337.538 180.187 28
3 4 -1 318.216 101.799 1
-3 -4 1 258.18 130.018 32
-3 -4 0 15989.2 1030.93 28
-3 -4 0 14148.4 847.016 32
-3 -4 -1 32464.8 1362.78 28
-3 -4 -1 30620.6 1217.02 32
3 4 1 40727.3 1170.32 8
3 4 1 43780 1163.18 1
3 4 2 28370.2 961.974 1
-3 -4 -2 24158.4 806.888 30
-3 -4 -2 21282 1065.6 28
3 4 2 29819.2 986.355 8
-3 -4 -2 20837.8 1004.29 32
-3 -4 -3 70118.7 1469.15 30
3 4 3 70691 1512.89 8
-3 -4 -3 64549.9 1805.04 28
-3 -4 -3 61798.6 1660.21 32
-3 -4 -4 13843.6 679.305 30
-3 -4 -4 11663.7 767.167 28
3 4 4 14256.2 745.215 1
-3 -4 -4 10787.6 691.635 32
-3 -4 -5 8689.71 570.988 30
-3 -4 -5 9460.33 730.15 28
-3 -4 -5 7080.23 561.848 29
-3 -4 -5 7693.51 608.435 32
3 4 5 9501.84 652.296 1
-3 -4 -6 596.3 165.335 30
-3 -4 -6 623.65 184.21 29
-3 -4 -6 748.131 202.071 32
3 4 6 779.954 187.683 1
-3 -4 -7 4739.99 487.925 30
-3 -4 -7 5341.11 516.551 32
3 4 7 3874.45 455.825 7
-3 -4 -7 4290.39 486.395 29
3 4 7 3516.31 446.584 1
-3 -4 -8 7082.22 622.891 30
-3 -4 -8 7165.82 672.161 29
3 4 8 6701.27 645.641 7
-3 -4 -8 7741.98 648.987 32
3 4 8 5631.12 610.896 1
3 4 9 709.206 184.213 16
3 4 9 951.776 203.072 9
-3 -4 -9 1048.98 212.151 10
-3 -4 -10 22896.6 1007.93 10
3 4 10 17416.9 853.612 16
3 4 11 -8.94279 118.83 16
-3 -4 -11 441.254 138.669 10
-3 -4 -12 3017.56 374.707 12
-3 -4 -12 3032.75 330.899 10
3 4 12 1974.35 273.209 16
-3 -4 -13 3220.41 356.279 12
3 4 13 1682.21 220.046 16
-3 -4 -14 -43.9171 70.3147 12
-3 -4 -15 8.06453 21.6645 12
3 5 -10 254.906 72.7894 14
3 5 -10 200.233 55.2403 11
3 5 -9 153.474 72.2276 14
3 5 -9 111.584 49.2056 11
3 5 -8 9248.89 503.966 25
3 5 -8 8715.01 459.292 14
3 5 -7 2497.07 276.958 25
3 5 -7 2485.57 261.415 14
3 5 -7 1887.28 233.641 11
3 5 -6 7810.91 517.339 25
3 5 -6 8333.05 505.909 14
3 5 -5 25200.7 978.02 25
3 5 -5 28718.5 995.015 14
3 5 -4 68010.7 1633.38 25
3 5 -4 71025.5 1587.19 14
-3 -5 3 2043.75 530.737 28
-3 -5 3 2655.12 490.658 6
3 5 -2 165.289 81.833 1
-3 -5 2 243.782 144.069 28
-3 -5 1 9534.41 973.312 28
3 5 -1 19679.6 820.448 1
-3 -5 0 4973.79 642.878 28
3 5 0 11801 722.425 8
3 5 0 9481.27 572.467 1
-3 -5 0 4352.63 541.467 32
3 5 1 1398.62 247.26 8
-3 -5 -1 555.79 225.9 28
3 5 1 1471.63 227.543 1
-3 -5 -1 796.966 229.29 32
3 5 2 5594.88 479.021 8
-3 -5 -2 2910.11 476.596 28
3 5 2 5712.93 467.957 1
-3 -5 -2 2867.44 420.771 32
-3 -5 -3 14841.1 928.631 32
-3 -5 -3 19228.9 854.457 30
-3 -5 -3 16037.9 1076.42 28
3 5 3 18839.8 880.272 8
3 5 3 19877 885.701 1
-3 -5 -4 132.048 109.555 28
3 5 4 105.948 73.9384 1
-3 -5 -4 74.9675 76.3191 30
-3 -5 -4 48.5454 62.558 32
-3 -5 -5 3533.74 494.078 28
3 5 5 2544.95 350.462 1
-3 -5 -5 3066.49 378.699 30
-3 -5 -5 2812.03 404.972 32
-3 -5 -6 4946.88 502.793 30
-3 -5 -6 5266.11 560.499 32
3 5 6 3728.49 460.365 1
-3 -5 -7 17382.6 995.526 30
-3 -5 -7 18023.2 1058.7 32
3 5 7 15715.1 740.976 9
3 5 7 16490.9 769.735 16
3 5 8 8178.05 554.419 9
3 5 8 8088.55 547.482 16
3 5 9 1802.38 270.172 9
3 5 9 1663.69 255.427 16
3 5 10 239.761 111.37 16
3 5 10 275.457 76.4161 9
3 5 11 2524.21 303.125 9
-3 -5 -11 4221.18 483.736 12
-3 -5 -11 4155.94 419.114 10
3 5 11 2982.27 329.774 16
3 5 12 198.994 69.2416 16
-3 -5 -12 449.193 145.41 12
-3 -5 -12 328.262 103.467 10
3 5 13 2971.59 285.702 16
-3 -5 -13 4454.96 408.855 12
3 5 14 341.564 75.0779 16
-3 -5 -14 728.391 142.214 12
3 6 -9 0.6963 20.8295 14
3 6 -9 -16.0531 27.5844 11
3 6 -8 131.941 57.9231 25
3 6 -8 41.7542 29.1382 14
3 6 -7 2613.11 232.473 14
3 6 -7 2567.69 251.925 25
3 6 -7 2134.63 218.046 11
3 6 -6 1367.58 198.886 25
3 6 -6 1493.35 197.983 14
3 6 -6 1397.81 192.302 11
3 6 -5 48606.3 1232.68 25
3 6 -5 46594 1147.08 14
3 6 -4 506.474 148.663 14
3 6 -4 472.679 148.092 25
3 6 -3 13075.1 695.996 25
3 6 -3 13547.3 649.103 14
3 6 -3 11518.5 570.782 20
3 6 -2 9857.34 556.027 14
3 6 -2 10858.4 637.981 25
3 6 -1 30293.3 935.617 14
3 6 -1 28788.9 869.052 20
3 6 0 7914.78 655.241 8
3 6 0 8893.03 486.664 20
-3 -6 -1 199.432 140.94 28
3 6 1 67.248 73.2207 8
3 6 1 125.952 62.7884 1
-3 -6 -1 -165.586 117.59 32
3 6 2 1382.27 270.07 8
-3 -6 -2 634.142 253.218 28
3 6 2 1124.73 221.212 1
-3 -6 -2 519.627 206.37 32
-3 -6 -3 3238.94 546.707 28
3 6 3 4019.7 460.612 8
-3 -6 -3 2510.84 442.178 32
3 6 3 3968.64 420.172 1
-3 -6 -4 2312.83 424.311 32
-3 -6 -4 3235.43 417.64 30
3 6 4 2414.32 343.197 1
-3 -6 -4 2350.7 473.098 28
-3 -6 -5 3459.53 440.389 30
3 6 5 3546.78 341.333 9
-3 -6 -5 2718.98 501.309 28
3 6 5 3557.32 337.561 22
3 6 5 3313.27 349.536 16
3 6 6 2344.51 277.731 9
3 6 6 2263.52 278.952 22
3 6 6 2067.96 280.11 16
3 6 7 1509.66 221.765 9
3 6 7 1359.72 218.639 22
3 6 7 1434.91 221.877 16
3 6 8 8953.85 566.802 9
3 6 8 10101 606.016 16
3 6 9 212.916 105.373 16
3 6 9 214.988 95.6137 9
3 6 10 7339.87 515.672 9
3 6 10 7411.27 503.998 16
3 6 11 9.04699 49.9415 16
3 6 11 46.7604 35.8867 9
3 6 12 356.225 108.319 16
3 6 12 325.251 93.8257 9
3 6 13 844.29 136.997 16
3 7 -8 1335.7 124.113 14
3 7 -7 320.66 73.6724 25
3 7 -7 250.351 61.9398 14
3 7 -6 27.706 31.3905 25
3 7 -6 42.9758 34.4926 14
3 7 -5 300.236 88.177 25
3 7 -5 331.627 86.8691 14
3 7 -4 20477.7 758.026 25
3 7 -4 19618.2 662.112 14
3 7 -4 19951.6 694.464 20
3 7 -3 1018.4 166.487 14
3 7 -3 1054.96 183.985 25
3 7 -3 989.203 159.415 20
3 7 -2 1434.96 212.736 25
3 7 -2 1529.7 198.248 20
3 7 -2 1706.79 240.834 14
3 7 -1 4874.12 401.152 25
3 7 -1 5249.35 370.246 20
3 7 0 8726.74 552.857 25
3 7 0 8954.52 528.113 14
3 7 0 7993.82 470.688 20
3 7 1 1985.98 265.941 25
3 7 1 2032.26 247.888 20
3 7 2 5860.52 465.655 25
3 7 2 6177.54 436.485 20
3 7 3 734.45 162.617 9
3 7 3 586.283 137.06 25
3 7 3 691.163 146.778 22
3 7 3 628.036 158.982 20
3 7 4 8602.74 530.061 9
3 7 4 7264.79 526.037 25
3 7 4 8221 507.352 22
3 7 4 8286.81 564.133 20
3 7 5 22832.1 852.829 9
3 7 5 23088.9 849.205 22
3 7 6 136.608 97.5642 16
3 7 6 325.413 127.959 9
3 7 6 343.257 135.252 22
3 7 7 5712.53 428.054 9
3 7 7 6012.57 460.742 16
3 7 8 416.658 116.701 16
3 7 8 374.44 116.876 9
3 7 9 1587.16 226.634 9
3 7 9 1926.2 249.699 16
3 7 10 13778 639.54 9
3 7 10 13999.4 635.699 16
3 7 11 3724.83 316.521 9
3 7 11 4366.97 340.089 16
3 7 12 671.361 125.181 16
3 7 12 650.428 122.614 9
3 7 13 200.091 64.4976 16
3 8 -6 429.336 74.2405 25
3 8 -6 218.498 47.2802 14
3 8 -5 2973.41 196.157 14
3 8 -5 3589.59 240.726 25
3 8 -4 2772.42 233.551 25
3 8 -4 2582.78 202.826 14
3 8 -3 3335.36 276.455 25
3 8 -3 2900.87 232.985 14
3 8 -3 3330.52 252.224 20
3 8 -2 777.924 140.391 25
3 8 -2 774.188 125.674 20
3 8 -1 1716.44 215.127 25
3 8 -1 1614.57 202.531 20
3 8 0 1202.23 183.608 25
3 8 0 1370.19 187.119 20
3 8 1 233.477 73.717 25
3 8 1 243.469 87.3507 20
3 8 2 5627.83 418.905 25
3 8 2 5706.17 427.047 20
3 8 3 5575.92 421.808 25
3 8 3 7101.27 484.121 20
3 8 4 1008.59 168.572 9
3 8 4 817.143 157.603 25
3 8 5 7584.29 460.118 9
3 8 5 6170.23 448.55 25
3 8 6 4484.1 384.693 25
3 8 6 5543.72 383.584 9
3 8 7 224.174 104.521 9
3 8 7 157.38 86.0964 25
3 8 8 9238.42 489.556 9
3 8 8 8369.97 478.062 16
3 8 9 411.437 101.521 16
3 8 9 413.284 104.234 9
3 8 10 5243.38 341.149 9
3 8 10 4550.14 310.769 16
3 8 11 -46.2885 48.3699 16
3 8 11 -12.9483 44.3098 9
3 8 12 79.3115 49.778 25
3 9 -4 25.2415 21.2104 25
3 9 -3 -25.0609 27.686 25
3 9 -2 -76.6782 50.6121 25
3 9 -1 4878.74 298.529 25
3 9 0 235.831 76.1364 25
3 9 1 1932.1 203.428 25
3 9 2 363.429 94.753 25
3 9 3 3940.97 302.631 25
3 9 4 1316.92 174.423 25
3 9 5 2820.61 239.302 9
3 9 5 2790.25 259.715 25
3 9 5 2357.16 223.547 13
3 9 6 232.104 75.2328 9
3 9 6 264.456 90.756 25
3 9 7 6893.17 359.573 9
3 9 7 5808.6 360.928 25
3 9 8 1027.17 135.319 9
3 9 8 858.735 131.21 25
3 9 9 -22.4953 34.865 9
3 9 9 -19.3828 39.0904 25
3 9 10 44.3533 31.7087 25
3 9 10 45.6262 24.4936 9
3 10 0 1047.69 105.076 25
3 10 1 615.87 84.4109 25
3 10 2 566.157 82.0941 25
3 10 3 50.2015 26.4047 25
3 10 4 432.725 76.9978 25
3 10 5 309.47 65.9031 25
3 10 6 3437.75 210.315 25
-4 7 5 2850.67 249.806 15
-4 7 5 2634.91 222.888 22
4 -7 -4 90.6609 51.4411 10
-4 7 4 230.049 82.9393 15
-4 7 4 285.558 92.8097 24
-4 7 4 207.255 79.5371 22
4 -7 -3 239.848 80.5828 10
-4 7 3 446.941 105.285 15
-4 7 3 483.373 111.093 24
-4 7 3 558.353 109.459 22
-4 7 2 243.086 79.0723 15
-4 7 2 267.073 89.0371 24
-4 7 2 247.124 71.0551 22
-4 7 1 553.812 108.841 15
-4 7 1 459.299 104.672 24
-4 7 1 565.646 101.708 22
-4 7 0 223.801 70.7273 15
-4 7 0 221.558 60.7035 22
-4 7 0 214.649 69.7449 20
-4 7 -1 104.944 41.2807 15
-4 7 -1 130.5 47.9416 22
-4 7 -1 128.713 52.5157 20
-4 7 -2 1137.45 133.352 15
-4 7 -2 1354.36 152.994 20
-4 7 -3 183.564 50.4527 15
-4 7 -3 300.604 69.7302 20
-4 7 -4 196.312 51.2373 20
4 -6 -8 46.8404 36.3026 10
-4 6 8 52.5195 49.8401 16
4 -6 -7 144.489 59.3417 10
-4 6 7 336.526 86.0004 16
-4 6 7 262.315 79.7917 15
-4 6 7 336.719 116.348 24
-4 6 7 228.092 74.0564 22
4 -6 -6 12.898 40.6265 10
-4 6 6 -0.30122 50.3631 16
-4 6 6 50.3292 48.5189 15
-4 6 6 109.048 76.0672 24
-4 6 6 14.9509 54.6109 22
4 -6 -5 155.658 76.433 10
-4 6 5 67.4722 42.4214 15
-4 6 5 171.491 90.7367 24
-4 6 5 82.0101 46.855 22
-4 6 5 4.57804 55.8402 16
-4 6 4 2003.3 249.633 16
-4 6 4 2570.85 318.372 15
-4 6 4 3000.54 347.312 24
4 -6 -4 2170.42 292.459 10
-4 6 4 2765.88 298.264 22
-4 6 3 97.8577 79.3738 24
-4 6 3 92.2503 52.0949 15
4 -6 -3 162.852 86.7133 10
-4 6 3 103.88 65.106 22
-4 6 2 3774.07 372.887 15
-4 6 2 4340.71 396.516 24
-4 6 2 3821.21 341.101 22
4 -6 -2 3667.26 396.121 10
-4 6 1 3511.8 337.749 15
-4 6 1 3592.13 350.819 24
-4 6 1 3483.75 322.559 22
-4 6 0 939.906 170.294 15
-4 6 0 841.296 173.693 24
-4 6 0 1102.17 174.114 22
-4 6 0 1017.39 224.374 21
-4 6 0 1144.96 204.726 20
-4 6 0 1508.11 336.179 18
-4 6 -1 5155.1 371.59 15
-4 6 -1 6082.44 450.232 24
-4 6 -1 5269.76 362.334 22
-4 6 -1 6004.4 435.699 20
-4 6 -2 1301.57 176.262 15
-4 6 -2 1481.77 191.257 22
-4 6 -2 2044.17 298.979 21
-4 6 -2 1434.83 204.571 20
-4 6 -3 281 105.983 21
-4 6 -3 235.439 79.1504 20
-4 6 -3 107.727 46.2302 15
-4 6 -4 21.0816 21.2558 15
-4 6 -4 -22.8972 56.3925 21
-4 6 -4 1.45314 36.2983 20
-4 6 -5 454.909 118.916 21
-4 6 -5 376.042 82.0891 20
-4 6 -6 2165.05 234.373 21
-4 6 -6 1528.32 151.211 20
-4 6 -7 155.262 43.1238 20
4 -5 -10 267.706 71.7428 10
-4 5 10 274.234 83.3248 16
-4 5 9 2948.98 284.397 16
4 -5 -9 2491.78 242.082 10
4 -5 -8 -64.813 66.6273 10
-4 5 8 -53.4163 63.7801 16
-4 5 8 21.3877 38.1454 24
4 -5 -7 -219.115 88.5978 10
-4 5 7 -134.632 103.343 16
-4 5 7 -88.4246 114.528 15
-4 5 7 39.9625 52.2115 24
4 -5 -6 631.526 156.485 10
-4 5 6 565.824 168.39 15
-4 5 6 663.755 186.798 24
-4 5 6 412.252 121.699 22
4 -5 -5 122.781 77.4748 10
-4 5 5 110.447 90.1291 24
-4 5 5 96.1165 42.4306 22
-4 5 4 5517.6 532.428 15
-4 5 4 5395.97 512.73 24
-4 5 4 5361.5 493.472 22
4 -5 -4 5033.65 478.513 10
-4 5 3 20.6716 103.812 15
-4 5 3 69.1346 77.0612 24
-4 5 3 -22.7295 68.1743 22
4 -5 -3 33.6795 39.7606 10
-4 5 3 36.0147 73.9159 18
-4 5 2 631.972 163.146 15
-4 5 2 533.551 165.599 24
-4 5 2 179.289 56.6285 21
-4 5 1 6053.34 533.401 24
-4 5 1 6355.46 625.216 21
-4 5 1 5070.92 502.402 20
-4 5 1 4734.79 448.696 15
-4 5 0 20337.1 877.559 15
-4 5 0 22218.8 957.204 24
-4 5 0 21505.8 993.112 20
-4 5 -1 1319.08 223.202 15
-4 5 -1 1357.54 241.096 24
-4 5 -1 1685.57 316.518 21
-4 5 -1 1329.67 230.499 20
-4 5 -2 247.435 90.5715 15
-4 5 -2 43.1698 40.7071 24
-4 5 -2 195.407 92.707 21
-4 5 -2 71.2626 43.0574 20
-4 5 -2 112.72 72.3777 18
-4 5 -3 4750.97 392.8 15
-4 5 -3 4997.27 406.567 20
-4 5 -4 92.7058 46.8622 15
-4 5 -4 158.147 49.6715 20
-4 5 -5 210.934 90.6699 21
-4 5 -5 122.97 43.0673 20
-4 5 -6 811.374 173.862 21
-4 5 -6 615.423 118.668 20
-4 5 -7 213.409 86.3101 21
-4 5 -7 128.193 50.3505 20
-4 5 -8 630.426 128.033 21
-4 5 -8 338.856 73.8831 20
-4 5 -9 996.855 140.141 21
4 -4 -11 442.877 85.8823 10
4 -4 -10 91.8479 49.0623 10
-4 4 10 52.6727 67.2909 16
-4 4 9 679.165 160.518 16
4 -4 -9 822.534 155.14 10
-4 4 8 1425.54 230.287 16
-4 4 8 1197.92 278.569 24
-4 4 8 1802.49 335.143 15
4 -4 -8 1561.96 229.875 10
-4 4 7 4873.16 573.226 15
-4 4 7 3767.29 491.88 24
4 -4 -7 4132.34 390.313 10
4 -4 -6 13.9397 48.3934 10
-4 4 6 41.3961 96.4272 15
-4 4 6 119.975 123 24
4 -4 -5 730.565 179.587 10
-4 4 5 1005.23 254.478 15
-4 4 5 911.79 245.843 24
-4 4 5 927.008 225.146 22
4 -4 -4 -14.5673 36.8158 10
-4 4 4 142.237 121.854 15
-4 4 4 -2.62316 69.0755 24
-4 4 4 16.0124 75.6158 18
-4 4 3 290.428 133.318 15
-4 4 3 129.501 91.6707 24
-4 4 3 349.822 192.902 18
-4 4 2 146.657 83.5809 15
-4 4 2 187.887 105.189 24
-4 4 2 74.2458 74.8978 21
-4 4 2 155.834 123.058 18
-4 4 1 25126.8 1077.43 24
-4 4 1 24475.9 1047.66 15
-4 4 1 23821.8 1244.61 21
-4 4 0 181.344 109.006 15
-4 4 0 319.115 122.022 24
-4 4 0 -20.2307 151.666 21
-4 4 0 247.5 151.511 18
-4 4 -1 15635.5 962.183 21
-4 4 -1 18269.7 1055.67 18
-4 4 -2 877.28 193.463 15
-4 4 -2 850.065 223.58 21
-4 4 -2 1210.14 276.427 18
-4 4 -3 12879.8 829.561 21
-4 4 -3 14869.9 907.007 18
-4 4 -4 91.7994 66.948 21
-4 4 -4 100.22 69.8331 18
-4 4 -5 2315.83 318.196 21
-4 4 -5 1790.17 241.47 20
-4 4 -6 2912.12 344.252 21
-4 4 -6 2378.6 261.578 20
-4 4 -7 2232.06 289.828 21
-4 4 -7 1831.94 215.61 20
-4 4 -8 1967.39 249.657 21
-4 4 -8 1494.56 183.347 20
-4 4 -9 -21.3788 48.8394 21
-4 4 -10 177.53 64.3045 21
-4 4 -11 1418.92 152.076 21
4 -3 -11 3609.6 267.492 10
-4 3 10 1923.9 261.046 16
4 -3 -10 3423.9 288.444 10
-4 3 9 2023.72 295.929 16
4 -3 -9 3067.38 292.203 10
-4 3 8 2234.02 405.967 15
4 -3 -8 1799.58 284.956 17
4 -3 -8 1227.34 207.262 10
-4 3 7 1547.84 350.544 24
4 -3 -7 2445.43 349.819 17
4 -3 -7 2332.86 286.807 10
4 -3 -6 732.7 172.168 10
-4 3 6 652.104 214.5 24
-4 3 5 7975.12 734.804 24
-4 3 5 11006.4 1191.19 18
4 -3 -5 10230.8 646.822 10
-4 3 4 194.815 140.721 24
-4 3 4 237.996 208.536 18
-4 3 3 2335.48 355.646 24
4 -3 -3 2072.52 339.044 4
-4 3 3 2899.31 557.313 18
4 -3 -2 651.774 220.125 27
-4 3 2 668.025 212.881 5
-4 3 2 814.279 213.572 24
-4 3 2 567.612 205.725 21
4 -3 -2 823.106 216.817 4
-4 3 2 1011.34 305.595 18
-4 3 1 2212.84 358.599 5
4 -3 -1 1607.22 317.279 27
4 -3 -1 1913.6 319.617 4
4 -3 0 14600.8 879.359 30
-4 3 0 15970.5 935.343 8
4 -3 0 16056.4 923.639 4
-4 3 -1 3408.3 420.841 5
4 -3 1 2437.68 383.625 30
-4 3 -1 2800.54 397.313 8
4 -3 1 2778.08 392.141 4
4 -3 1 4103.22 489.713 27
4 -3 2 1244.2 270.705 27
-4 3 -2 1000.1 216.899 5
4 -3 2 755.228 205.892 4
4 -3 3 1350.06 328.662 27
-4 3 -3 500.173 163.548 5
-4 3 -3 965.216 222.465 21
4 -3 3 579.085 195.5 4
-4 3 -3 947.536 217.067 18
-4 3 -4 3673.97 425.521 21
-4 3 -4 4008.89 441.218 18
-4 3 -5 2228.37 324.924 21
-4 3 -5 2375.46 336.682 18
-4 3 -6 12069.6 741.03 21
-4 3 -6 14339.6 833.853 18
-4 3 -7 2082.61 298.622 21
-4 3 -8 305.996 111.614 21
-4 3 -8 85.567 48.7481 20
-4 3 -9 155.608 82.4652 21
-4 3 -10 297.555 92.3508 21
-4 3 -11 81.8262 48.6306 21
-4 3 -12 1101.11 139.929 21
4 -2 -12 88.0996 40.4664 11
4 -2 -11 -33.0448 39.6759 10
4 -2 -10 4318.75 392.523 17
4 -2 -10 3016.04 273.772 10
4 -2 -9 10093.4 647.662 19
4 -2 -9 10124.5 648.581 17
4 -2 -8 1235.91 242.253 19
4 -2 -8 1122.96 220.52 17
4 -2 -8 926.098 175.928 10
4 -2 -7 786.732 179.265 17
4 -2 -7 866.709 175.236 10
4 -2 -6 132.22 64.8481 10
4 -2 -6 12.6391 74.5264 17
4 -2 -5 29701.1 1445.85 26
-4 2 5 23697.1 1235.97 24
4 -2 -5 24587.4 1124.76 4
-4 2 5 34315.3 2060.76 18
4 -2 -5 33696.5 1334.64 17
4 -2 -5 35201.6 1119.04 10
4 -2 -4 8811.08 747.952 26
4 -2 -4 7904.75 610.233 4
4 -2 -3 1132.78 297.892 26
4 -2 -3 868.918 204.549 4
-4 2 3 1277.31 272.733 6
-4 2 2 7590.29 638.315 5
4 -2 -2 8788.08 698.069 27
4 -2 -2 9210.99 728.906 26
4 -2 -2 8865.63 625.202 4
-4 2 1 6282.5 564.142 5
4 -2 -1 8023.79 647.122 27
4 -2 -1 7520.14 568.896 4
-4 2 0 14652 839.043 5
4 -2 0 15704.6 868.426 27
4 -2 0 13985.8 784.394 4
-4 2 -1 2419.86 336.91 5
4 -2 1 2215.42 324.51 4
4 -2 2 8583.27 656.629 4
-4 2 -2 9542.69 634.438 5
-4 2 -3 6610.19 527.865 5
4 -2 3 6236.98 577.752 4
4 -2 3 6340.88 643.368 3
-4 2 -4 21318.5 1257.95 29
-4 2 -4 14488.1 790.518 5
4 -2 4 20863.7 1133.7 27
4 -2 4 16546.9 1067.47 3
-4 2 -5 5067.68 593.908 29
-4 2 -5 3948.15 415.733 5
4 -2 5 5520.29 621.74 27
-4 2 -6 727.469 172.071 12
-4 2 -6 773.203 194.831 21
-4 2 -7 4180.87 417.685 12
-4 2 -7 4395.53 450.111 21
-4 2 -8 881.085 186.041 12
-4 2 -8 1524.65 253.75 21
-4 2 -9 74.0287 55.3505 12
-4 2 -9 131.017 82.9375 21
-4 2 -10 7516.47 477.469 12
-4 2 -10 9390.76 578.821 21
-4 2 -11 3295.02 314.932 21
-4 2 -12 -2.78758 34.1027 21
-4 2 -13 888.87 122.988 21
4 -1 -12 4949.93 299.155 11
4 -1 -11 687.068 142.913 17
4 -1 -10 224.249 99.63 19
4 -1 -10 -61.9849 63.7724 17
4 -1 -9 273.701 93.3269 10
4 -1 -9 282.427 132.096 19
4 -1 -9 335.486 113.43 17
4 -1 -8 10011.6 694.609 19
4 -1 -8 8369.09 594.026 17
4 -1 -7 1096.49 231.743 19
4 -1 -7 859.434 183.363 17
4 -1 -7 933.707 178.666 10
4 -1 -6 1499.04 225.355 10
4 -1 -6 1676.41 279.533 19
4 -1 -6 1790.41 294.487 17
4 -1 -5 -10.8738 26.4555 26
-4 1 5 162.051 112.446 6
4 -1 -4 53749.6 1761.49 26
4 -1 -4 49006.5 1352.15 4
-4 1 3 3830.22 447.226 28
4 -1 -3 3516.66 434.811 26
4 -1 -3 3366.91 344.83 4
-4 1 3 4215 482.178 6
-4 1 2 3457.33 403.555 5
-4 1 2 4334.44 437.606 28
4 -1 -2 3993.39 439.927 26
4 -1 -2 3697.17 352.081 4
-4 1 2 4890.25 461.85 6
4 -1 -2 3607.61 408.21 27
-4 1 1 7564.54 576.893 5
-4 1 1 9717.74 614.208 28
4 -1 -1 7967.99 559.028 27
4 -1 -1 7441.22 497.554 4
-4 1 1 10713 640.047 6
4 -1 0 32563.5 1101.19 27
4 -1 0 32025.8 1059.94 4
-4 1 -1 6988.57 524.972 5
-4 1 -1 7747.38 498.161 28
4 -1 1 6002.51 471.979 27
4 -1 1 5404.76 466.944 4
-4 1 -2 9455.06 763.082 29
-4 1 -2 8972.4 578.969 5
4 -1 2 10055.6 628.29 27
4 -1 2 9356.05 699.941 3
-4 1 -3 24138.6 1194.74 29
4 -1 3 26876.8 1129.09 27
4 -1 3 24992.4 1166.85 3
-4 1 -4 12111.2 833.927 29
-4 1 -4 10159.9 610.642 5
4 -1 4 13683.5 831.978 27
4 -1 4 12524.3 875.643 3
-4 1 -5 316.097 132.671 29
4 -1 5 276.662 127.452 27
-4 1 -5 187.322 85.4828 5
4 -1 5 205.439 135.606 3
-4 1 -6 7767.87 679.558 29
-4 1 -6 8171.46 569.309 5
4 -1 6 9425.43 823.829 27
4 -1 6 8605.57 787.483 3
-4 1 -7 8385.63 718.287 29
-4 1 -7 8522.18 605.958 5
4 -1 7 8988.64 833.716 27
-4 1 -7 9770.54 616.976 12
-4 1 -7 10736.5 733.764 21
4 -1 7 8398.51 784.945 3
-4 1 -8 161.374 78.314 12
-4 1 -8 139.282 81.5987 21
-4 1 -9 376.982 124.467 12
-4 1 -9 344.519 132.918 21
-4 1 -10 1243.79 205.651 12
-4 1 -10 1544.92 253.059 21
-4 1 -11 151.112 63.9189 12
-4 1 -11 195.171 85.0142 21
-4 1 -12 72.69 48.6618 12
-4 1 -12 97.8135 61.4754 21
-4 1 -13 2114.36 189.908 12
-4 1 -13 3455.45 284.237 21
-4 1 -14 305.371 69.3518 21
4 0 -12 3415.53 247.987 11
4 0 -11 3005.64 286.924 19
4 0 -11 2658.15 262.371 17
4 0 -10 671.906 146.808 19
4 0 -10 448.782 117.186 17
4 0 -9 7798.96 542.294 19
4 0 -9 7362.3 506.973 17
4 0 -8 3513.41 384.143 19
4 0 -8 3598.85 366.097 17
4 0 -7 14991 819.868 19
4 0 -7 14041.3 746.77 17
4 0 -6 3067.05 425.56 26
4 0 -6 4460.17 493.179 23
4 0 -6 3680.47 405.897 19
4 0 -6 3714.96 396.122 17
-4 0 5 10496 840.792 28
4 0 -5 10298.9 712.319 26
-4 0 5 10076.7 840.192 6
-4 0 4 6965.42 605.228 28
4 0 -4 7144.24 582.06 26
-4 0 4 6883.05 642.395 6
-4 0 3 4661.77 451.74 28
4 0 -3 4941.73 454.605 26
-4 0 3 4578.05 477.82 6
-4 0 2 889.081 185.683 28
4 0 -2 705.598 162.654 27
4 0 -2 660.68 167.888 26
4 0 -2 759.593 141.777 4
-4 0 2 688.436 176.068 6
-4 0 1 115788 2157.51 5
-4 0 1 125181 2004.25 28
4 0 -1 108075 1849.14 27
4 0 -1 107213 1684.58 4
-4 0 1 122831 2065.06 6
-4 0 0 516.087 128.821 28
4 0 0 287.66 83.639 27
-4 0 0 520.285 148.334 5
4 0 0 348.7 105.411 4
-4 0 0 488.85 126.06 6
-4 0 -1 81694.4 1461.67 28
-4 0 -1 83022.6 1709.2 5
4 0 1 68566.2 1416.87 27
4 0 1 66329 1678.48 3
-4 0 -1 89137.5 1557.77 6
-4 0 -2 2206.18 337.247 29
-4 0 -2 2458.83 238.277 28
-4 0 -2 2148.62 272.324 5
4 0 2 2707.35 344.192 3
4 0 2 2508.72 281.152 27
-4 0 -3 50180.5 1564.73 29
-4 0 -3 52503.1 1106.65 28
4 0 3 58491.9 1415.89 27
-4 0 -3 50506.5 1282.15 5
4 0 3 61915.8 1655.54 3
-4 0 -4 10816.3 738.916 29
-4 0 -4 11337.6 547.864 28
4 0 4 12600 712.489 27
4 0 4 12508.9 779.478 3
-4 0 -5 2964.94 384.31 29
-4 0 -5 2868.63 322.503 5
4 0 5 3686.65 431.025 27
4 0 5 4243.85 476.129 3
-4 0 -6 1709.82 287.866 29
4 0 6 2123.19 369.516 27
4 0 6 2487.03 382.17 3
-4 0 -6 1759.67 258.543 5
-4 0 -7 5329.63 525.684 29
4 0 7 6609.54 663.684 27
-4 0 -7 6877.53 521.737 5
4 0 7 7367.44 682.423 3
4 0 8 1914.29 372.894 27
-4 0 -8 2624.05 331.276 12
-4 0 -8 3128.22 417.292 21
-4 0 -9 238.786 99.5027 12
-4 0 -9 358.256 147.897 21
-4 0 -10 3251.18 344.43 12
-4 0 -10 4308.69 469.588 21
-4 0 -11 96.1287 71.8037 12
-4 0 -11 148.26 87.3123 21
-4 0 -12 258.259 86.676 12
-4 0 -12 285.899 98.1193 21
-4 0 -13 1556.04 185.332 12
-4 0 -13 2027.59 245.542 21
-4 0 -14 -0.55018 18.6335 12
-4 0 -14 79.1789 43.6323 21
4 1 -12 -65.0554 45.9112 11
4 1 -11 6827.13 384.774 11
4 1 -11 7453.84 405.744 17
4 1 -10 53.2336 35.6928 19
4 1 -10 60.7495 50.7783 11
4 1 -10 8.14412 26.1077 17
4 1 -9 4364.7 379.9 19
4 1 -9 3858.39 345.522 17
4 1 -8 1649.19 241.333 19
4 1 -8 1700.11 248.413 17
4 1 -7 21601.8 904.638 19
4 1 -7 21256.8 887.466 17
-4 -1 6 7464.96 791.193 31
4 1 -6 7980.88 658.403 26
4 1 -6 12901.9 782.333 23
-4 -1 6 5510.37 728.234 7
4 1 -6 12655.4 707.797 19
-4 -1 6 8146.47 839.892 6
4 1 -6 12161.7 685.97 17
-4 -1 5 5839.91 662.188 31
4 1 -5 7289.36 575.198 26
-4 -1 5 6105.6 669.083 6
-4 -1 4 7358.33 679.77 31
-4 -1 4 8521.08 669.71 28
4 1 -4 9147.57 593.364 26
-4 -1 4 7527.76 676.402 6
-4 -1 3 10715.1 775.276 31
-4 -1 3 13342.2 797.252 28
4 1 -3 14213.1 747.179 26
-4 -1 3 10400 747.696 6
-4 -1 2 5933.37 493.378 28
4 1 -2 5035.54 404.151 26
-4 -1 2 5361.88 504.682 6
-4 -1 1 100390 1890.07 28
-4 -1 1 98390.9 1916.9 5
4 1 -1 97052.3 1434.63 4
-4 -1 1 98479.9 1993.97 6
-4 -1 0 27645.9 1005.03 5
4 1 0 26629.7 876.722 1
-4 -1 0 25552.9 887.454 28
-4 -1 0 27228.9 965.709 6
4 1 0 24685.9 768.336 27
-4 -1 -1 1458.02 199.349 28
4 1 1 1190.06 166.295 27
-4 -1 -1 1536.76 228.367 5
4 1 1 1373.35 198.536 1
4 1 1 1175.55 202.377 3
-4 -1 -1 1370.03 208.26 6
-4 -1 -2 34318.1 1199.92 29
-4 -1 -2 47872 1104.52 28
4 1 2 38909.6 946.917 27
4 1 2 45381 1133.28 1
4 1 2 48117.4 1299.05 3
-4 -1 -2 36433.5 1044.56 6
-4 -1 -3 21615 944.641 29
-4 -1 -3 22825.4 740.94 28
4 1 3 21189.2 782.498 1
4 1 3 21098.2 718.264 27
-4 -1 -3 22337.9 839.073 32
-4 -1 -3 23343.5 836.726 6
-4 -1 -4 45489.1 1405.84 29
-4 -1 -4 48348.8 1056.16 28
4 1 4 49652.5 1251.36 27
-4 -1 -4 45678.5 1207.42 32
-4 -1 -5 3946.82 425.021 29
4 1 5 4993.17 420.917 27
4 1 5 5179.46 489.03 3
-4 -1 -6 4396.11 470.14 29
4 1 6 5716.17 510.552 27
-4 -1 -6 4701.28 439.135 5
4 1 6 5382.09 508.888 3
4 1 7 12265.9 847.276 27
-4 -1 -7 13174.6 709.618 5
-4 -1 -7 11137.5 767.022 29
4 1 7 12305.3 818.045 3
-4 -1 -8 1097.99 252.185 29
-4 -1 -8 1418.61 247.067 5
4 1 8 929.021 230.458 3
-4 -1 -8 1294.29 234.553 12
4 1 8 1140.51 302.885 7
-4 -1 -9 272.274 101.66 12
-4 -1 -9 310.638 134.536 21
-4 -1 -10 20581 889.111 12
-4 -1 -10 25163.9 1209.07 21
-4 -1 -11 396.603 127.854 12
-4 -1 -11 370.428 148.351 21
-4 -1 -12 1784.37 241.696 12
-4 -1 -12 2079.22 302.32 21
-4 -1 -13 573.138 127.968 12
-4 -1 -13 615.106 145.967 21
-4 -1 -14 97.9287 44.0682 12
-4 -1 -14 64.5344 32.0925 21
4 2 -12 675.504 96.1848 11
4 2 -11 597.518 111.001 11
4 2 -11 729.413 123.14 19
4 2 -10 892.949 149.129 11
4 2 -10 898.927 147.113 19
4 2 -10 745.384 130.375 17
4 2 -9 939.796 168.876 19
4 2 -9 793.865 151.252 11
4 2 -9 743.691 148.16 17
4 2 -8 9770.61 562.282 19
4 2 -8 9338.18 555.574 17
4 2 -7 4792.4 411.946 19
4 2 -7 4073.85 372.176 11
4 2 -7 4640.8 403.113 17
4 2 -6 137.165 103.218 26
4 2 -6 149.286 53.73 19
4 2 -6 180.425 71.5772 17
-4 -2 5 11061.1 938.633 31
-4 -2 5 13398.7 1037.19 6
-4 -2 4 66452.1 2044.99 28
-4 -2 4 62152.4 2075.51 6
4 2 -3 1288.01 211.715 26
-4 -2 3 964.402 241.455 28
-4 -2 3 984.708 245.254 6
-4 -2 2 2672.3 360.157 28
4 2 -2 3096.19 292.883 26
-4 -2 2 2654.53 378.092 6
4 2 -1 550.291 128.399 1
-4 -2 1 337.142 112.606 28
-4 -2 1 436.611 147.438 6
-4 -2 0 5736.03 479.505 28
4 2 0 5731.84 425.913 1
-4 -2 0 6047.65 485.456 32
-4 -2 0 5052.95 460.253 6
-4 -2 -1 181856 2575.17 28
4 2 1 183081 2275.17 3
-4 -2 -2 173090 2363.62 28
4 2 2 167048 2231.49 3
-4 -2 -2 168014 2451.6 32
-4 -2 -3 9907.79 613.586 29
-4 -2 -3 11526.9 582.61 28
4 2 3 7970.39 413.809 27
-4 -2 -3 11046.5 610.264 32
4 2 3 14083.4 700.169 1
4 2 3 12234.4 646.105 3
-4 -2 -4 7063.44 547.63 29
-4 -2 -4 7581.58 463.935 28
4 2 4 8029.58 565.394 3
4 2 4 5941.54 380.431 27
-4 -2 -4 6892.53 487.331 32
4 2 4 8404.72 559.126 1
-4 -2 -5 16693.6 880.341 29
4 2 5 16016.2 799.021 1
-4 -2 -5 17851.1 784.854 32
-4 -2 -6 35411.8 1131.91 32
4 2 6 34856.3 1255.51 3
-4 -2 -7 5565.38 541.59 29
4 2 7 6745.29 678.792 7
-4 -2 -7 7212.74 530.935 32
4 2 7 6703.74 577.373 3
-4 -2 -8 286.098 139.4 29
4 2 8 332.69 135.26 3
4 2 8 261.597 137.607 7
-4 -2 -8 306.08 131.84 32
4 2 9 136.018 78.6919 16
-4 -2 -9 195.535 95.4445 12
-4 -2 -10 26974.3 1076.33 12
-4 -2 -10 31594.7 1408.76 21
-4 -2 -11 54.4014 59.6535 12
-4 -2 -11 124.92 76.3667 21
-4 -2 -12 1672.47 249.639 12
-4 -2 -12 2089.08 315.623 21
-4 -2 -13 9742.33 539.163 12
-4 -2 -13 11266.3 656.071 21
-4 -2 -14 1278.4 173.43 12
-4 -2 -14 1325.22 187.765 21
-4 -2 -15 1160.83 138.576 12
4 3 -11 217.401 58.4116 11
4 3 -10 1715.3 193.402 11
4 3 -10 1487.46 171.803 19
4 3 -9 42.0801 43.4634 14
4 3 -9 24.9389 33.8343 11
4 3 -8 6248.97 445.008 11
4 3 -8 7940.7 472.249 19
4 3 -7 13669.2 808.263 14
4 3 -7 9642.55 547.565 19
4 3 -6 9380.18 630.094 25
4 3 -6 7787.84 505.806 19
4 3 -5 6677.66 477.417 23
4 3 -5 6610.29 464.992 19
-4 -3 4 38965.8 1749.92 28
-4 -3 4 42478.3 1839.91 6
-4 -3 3 1537.08 340.047 28
-4 -3 3 1606.4 342.573 6
-4 -3 2 3815.89 495.098 28
4 3 -2 4773.9 412.342 1
4 3 -2 5153.33 388.448 26
-4 -3 2 3406.53 462.779 6
-4 -3 1 29347 1306.59 28
4 3 -1 31852 890.796 26
-4 -3 0 84.2147 61.1341 28
-4 -3 0 50.7742 61.4199 32
-4 -3 -1 9044.02 649.737 28
-4 -3 -1 9048.04 635.221 32
-4 -3 -2 20555.3 966.048 28
-4 -3 -2 19099.1 900.12 32
4 3 2 19216.1 725.213 3
-4 -3 -3 2147.77 295.396 28
-4 -3 -3 2387.66 314.699 32
4 3 3 2435.6 278.289 3
4 3 3 2816.42 331.43 1
4 3 4 9724.77 630.408 1
-4 -3 -4 8092.9 555.879 28
4 3 4 8714.97 570.537 3
-4 -3 -4 8324.98 571.987 32
-4 -3 -5 4850.41 475.408 29
4 3 5 5573.63 496.319 1
-4 -3 -5 5042.17 460.088 32
4 3 5 5454.55 468.333 3
-4 -3 -6 15422.5 885.879 29
4 3 6 15894.9 891.032 1
4 3 6 17353.1 894.743 3
-4 -3 -6 17834.5 851.053 32
-4 -3 -7 22231.9 1109.87 29
-4 -3 -7 24343.7 1009.32 32
4 3 7 22220.5 1053.63 3
4 3 8 441.644 136.351 16
-4 -3 -8 672.035 211.4 29
4 3 8 654.422 186.985 3
-4 -3 -8 1137.62 230.742 32
-4 -3 -9 4419.2 485.253 12
4 3 9 3424.72 370.324 16
4 3 10 82.1363 59.4019 16
-4 -3 -10 381.129 142.683 12
-4 -3 -11 6851.12 567.976 12
4 3 11 4369.14 415.432 16
-4 -3 -12 1949.19 283.009 12
4 3 12 1357.14 218.076 16
-4 -3 -13 4955.87 411.439 12
4 3 14 967.425 167.709 23
-4 -3 -14 1510.2 198.623 12
-4 -3 -15 660.342 108.573 12
4 4 -10 108.05 52.2972 14
4 4 -10 98.4184 39.0263 11
4 4 -9 2987 292.517 14
4 4 -9 1941.62 209.886 11
4 4 -8 1721.85 248.8 14
4 4 -8 1153.43 176.998 11
4 4 -8 1237.15 178.267 19
4 4 -7 28014.3 1035.24 25
4 4 -7 28088.1 1045.67 14
4 4 -6 302.73 119.819 25
4 4 -6 114.064 46.293 14
4 4 -6 136.209 75.4033 19
4 4 -5 55671.7 1575.52 25
4 4 -5 52113.4 1306.65 19
4 4 -4 12986.7 772.346 25
4 4 -4 11607.3 608.827 23
4 4 -4 12582.3 637.009 19
-4 -4 3 6789.02 793.055 28
-4 -4 3 7198.31 764.786 6
-4 -4 2 149.902 138.894 28
-4 -4 2 51.1734 36.0467 6
4 4 -2 304.409 109.241 1
-4 -4 1 29889.5 1589.36 28
4 4 -1 40607.6 1232.37 1
4 4 0 38.5361 36.5265 1
-4 -4 0 67.1674 51.7602 32
-4 -4 0 45.4111 110.451 28
-4 -4 -1 39.2025 64.3006 28
-4 -4 -1 81.3903 71.8466 32
4 4 1 102.542 57.2587 1
-4 -4 -2 1874.57 370.804 28
4 4 2 2907.08 335.286 1
-4 -4 -2 2048.24 329.077 32
-4 -4 -3 19524.9 1127.15 28
4 4 3 20228.8 913.985 1
4 4 4 12909.2 742.447 1
-4 -4 -4 12129.7 843.004 28
-4 -4 -4 10651.2 731.906 32
4 4 5 422.442 141.4 1
-4 -4 -5 326.587 127.018 30
-4 -4 -5 540.374 164.59 32
-4 -4 -5 372.131 169.632 28
4 4 6 5004.49 523.367 1
-4 -4 -6 5813.03 545.391 32
4 4 7 5362.17 567.404 1
-4 -4 -7 7999.21 641.917 32
4 4 8 151.374 73.3708 16
4 4 8 361.706 123.243 9
4 4 9 6972.59 525.863 9
-4 -4 -9 8377.65 703.265 12
4 4 9 6922.15 515.344 16
-4 -4 -10 24535 1201.48 12
4 4 10 19485.6 863.731 16
-4 -4 -11 4442.72 479.097 12
4 4 11 3494.16 357.552 16
-4 -4 -12 3886.77 416.043 12
4 4 12 2773.6 300.594 16
4 4 13 71.4425 33.223 16
-4 -4 -13 114.04 61.7498 12
-4 -4 -14 1715.74 214.475 12
4 5 -10 1701.02 160.34 14
4 5 -9 6940.42 377.114 14
4 5 -8 232.187 88.503 14
4 5 -7 3669.7 344.4 25
4 5 -7 3369.58 319.305 14
4 5 -6 2518.23 312.51 25
4 5 -6 2576.12 292.54 14
4 5 -5 425.631 139.229 25
4 5 -5 378.905 128.837 14
4 5 -4 77508.8 1887.74 25
4 5 -4 83171.7 1760.87 14
4 5 -3 451.391 157.499 25
4 5 -3 489.546 127.217 14
4 5 -2 5.43514 53.0851 25
4 5 -2 50.3569 39.2165 14
4 5 -2 35.2449 25.2095 1
-4 -5 2 -61.4357 76.1053 6
-4 -5 1 5443.03 813.742 28
4 5 -1 10901.6 671.803 1
-4 -5 0 2310 497.981 28
4 5 0 3181.13 363.124 1
-4 -5 -1 2882.15 523.577 28
4 5 1 3762.57 393.056 1
-4 -5 -1 2258.72 392.086 32
-4 -5 -2 34013.4 1791.36 28
4 5 2 39092.4 1268.43 1
-4 -5 -3 8294.55 868.146 28
-4 -5 -3 6180.26 652.028 32
4 5 3 8600.96 623.214 1
-4 -5 -4 36703.5 1760.18 28
-4 -5 -4 32315.1 1468.3 32
4 5 4 33703.1 1267.65 1
-4 -5 -5 11806 967.721 28
4 5 5 9600.92 705.857 1
-4 -5 -5 10623.5 818.537 32
4 5 6 40.9092 89.6786 16
4 5 6 171.552 121.553 1
4 5 6 192.807 73.0845 9
-4 -5 -6 24.0161 129.724 32
4 5 7 3064.87 342.856 9
4 5 7 3389.43 338.218 16
4 5 8 -5.63027 85.5959 16
4 5 8 -31.8009 70.153 9
4 5 9 2069.28 294.729 9
4 5 9 1996.43 262.776 16
4 5 10 20029.2 875.173 9
4 5 10 19178.5 819.08 16
4 5 11 927.122 175.846 16
4 5 11 850.412 175.475 9
-4 -5 -11 1337.73 265.031 12
4 5 12 118.465 66.0851 16
-4 -5 -12 254.671 98.1386 12
-4 -5 -13 2047.28 259.844 12
4 5 13 1374.05 182.839 16
-4 -5 -14 2404.69 234.781 12
4 5 14 1382.99 150.232 16
4 6 -9 1169.62 125.232 14
4 6 -8 448.146 90.0038 14
4 6 -7 831.697 144.137 25
4 6 -7 683.16 124.548 14
4 6 -6 614.257 134.302 25
4 6 -6 631.683 124.025 14
4 6 -5 6.96217 46.0465 25
4 6 -5 -48.358 63.024 14
4 6 -4 2587.31 317.197 25
4 6 -4 2588.41 301.868 14
4 6 -3 2326.56 315.609 25
4 6 -3 2227.38 267.353 14
4 6 -2 304.708 116.035 25
4 6 -2 193.153 65.7183 14
4 6 -1 1966.2 296.6 25
4 6 -1 1690.91 218.226 14
4 6 -1 1598.47 202.661 20
4 6 0 2830.58 311.659 13
4 6 0 2563.12 270.22 20
4 6 1 11187.4 602.057 13
4 6 1 11028.7 542.267 20
4 6 2 44163.7 1487.66 25
-4 -6 -2 14554.9 1113.03 32
4 6 3 4414.81 371.453 9
4 6 3 5164.8 506.052 25
4 6 4 1158.22 190.202 9
4 6 5 4034.72 363.717 9
4 6 5 4044.34 388.964 16
4 6 6 78918.6 1579.7 9
4 6 6 81290.9 1696.8 16
4 6 7 7175.41 481.079 9
4 6 7 8091.1 528.565 16
4 6 8 1031.94 195.118 9
4 6 8 1208.75 211.803 16
4 6 9 838.671 171.862 9
4 6 9 955.568 180.663 16
4 6 10 1334.45 206.397 9
4 6 10 1661.45 234.577 16
4 6 11 321.31 106.898 16
4 6 11 459.266 120.708 9
4 6 12 119.371 61.4565 16
4 6 12 132.019 60.3382 9
4 6 13 3555.86 265.931 16
4 7 -7 700.439 99.7447 14
4 7 -6 214.085 70.1517 25
4 7 -6 200.505 68.0911 14
4 7 -5 191.003 66.4716 25
4 7 -5 95.9668 51.8847 14
4 7 -4 108.718 52.4381 25
4 7 -4 126.532 56.8408 14
4 7 -3 108.465 58.0452 25
4 7 -3 -11.8716 56.9396 14
4 7 -2 3323.27 344.073 25
4 7 -2 3090.48 302.464 14
4 7 -1 8575.4 586.306 25
4 7 -1 7532.35 468.839 14
4 7 0 4501 425.28 25
4 7 0 3524.02 324.172 14
4 7 0 3504.65 309.051 20
4 7 1 13303 738.955 25
4 7 1 9924.73 556.265 14
4 7 1 8963.71 542.576 13
4 7 1 11651.7 554.465 20
4 7 2 -81 140.832 25
4 7 2 6.98105 25.9454 13
4 7 3 2326.4 276.191 9
4 7 3 2363.28 320.312 25
4 7 4 17935.5 760.171 9
4 7 4 18397.5 918.98 25
4 7 5 22289.1 824.136 9
4 7 5 23458.5 1041.57 25
4 7 6 32822 992.775 9
4 7 6 25255.1 952.198 16
4 7 7 11753.1 591.947 9
4 7 7 12153.8 636.816 16
4 7 8 3204.44 308.349 9
4 7 8 3311.93 315.774 16
4 7 9 17138.1 705.025 9
4 7 9 17684.8 697.246 16
4 7 10 464.448 117.407 16
4 7 10 433.015 104.571 9
4 7 11 980.149 148.15 9
4 7 11 1067.46 154.807 16
4 7 12 14.4818 32.8206 16
4 7 12 112.958 61.223 9
4 7 13 1192.86 132.421 16
4 8 -5 2513.57 195.395 25
4 8 -5 1964.84 156.597 14
4 8 -4 190.798 66.2105 25
4 8 -4 178.457 54.0588 14
4 8 -3 1358.95 180.832 25
4 8 -3 1139.41 143.111 14
4 8 -2 -20.68 42.3869 25
4 8 -2 -36.271 63.3489 14
4 8 -1 6195.68 417.836 25
4 8 -1 4508.79 341.493 14
4 8 0 2344.21 265.804 25
4 8 0 1762.15 218.566 14
4 8 1 576.851 138.811 25
4 8 1 620.7 129.957 14
4 8 2 1770.5 243.029 25
4 8 2 1457.54 198.456 13
4 8 3 2729.25 309.946 25
4 8 3 2402.69 253.254 13
4 8 4 3847.27 324.432 9
4 8 4 3845.24 368.781 25
4 8 4 3258.81 293.436 13
4 8 5 143.144 59.2485 9
4 8 5 164.406 74.6788 25
4 8 6 7473.45 425.452 9
4 8 6 7329.13 505.465 25
4 8 7 136.67 65.2141 9
4 8 7 127.754 81.7644 25
4 8 8 160.711 48.1824 16
4 8 8 262.243 74.4759 9
4 8 8 319.445 116.912 25
4 8 9 5676.01 359.673 9
4 8 9 4593.72 378.865 25
4 8 9 5172.77 330.337 16
4 8 10 -10.3004 48.7644 16
4 8 10 28.7785 46.1069 9
4 8 10 106.914 63.8547 25
4 8 11 764.056 112.528 9
4 8 11 557.123 110.192 25
4 8 11 668.2 101.363 16
4 9 -3 402.372 72.5153 25
4 9 -2 55.0706 30.9436 25
4 9 -1 518.783 99.2085 25
4 9 0 3082.46 250.12 25
4 9 1 646.294 118.139 25
4 9 2 2231.85 231.825 25
4 9 3 -4.29147 36.0575 25
4 9 4 731.509 125.997 25
4 9 4 576.736 107.509 13
4 9 5 1679.61 200.301 25
4 9 5 1396.84 166.711 13
4 9 6 1670.63 175.868 9
4 9 6 1811.96 211.541 25
4 9 6 1430.83 168.9 13
4 9 7 1754.42 174.764 9
4 9 7 1761.92 201.128 25
4 9 7 1633.8 177.861 13
4 9 8 201.911 61.1717 9
4 9 8 186.192 64.5579 25
4 9 8 210.789 59.8407 13
4 9 9 41.1603 40.3691 9
4 9 9 -16.012 29.8706 25
4 9 9 -10.2651 21.6611 13
4 10 1 103.585 31.9124 25
4 10 2 1295.34 128.271 25
4 10 3 -9.31589 29.5814 25
4 10 4 151.614 42.1231 25
4 10 5 968.607 112.497 25
4 10 6 180.051 50.105 25
-5 6 6 -18.5291 28.2385 16
5 -6 -5 51.1829 34.5438 10
-5 6 5 6.85394 27.6578 16
-5 6 5 -23.0883 50.5475 15
-5 6 5 63.2893 51.1416 24
-5 6 5 -49.0279 46.8009 22
5 -6 -4 493.185 113.57 10
-5 6 4 428.787 92.7642 16
-5 6 4 679.06 129.884 15
-5 6 4 833.532 156.285 24
-5 6 4 655.927 118.266 22
5 -6 -3 -1.86187 39.7211 10
-5 6 3 -17.8186 46.4167 16
-5 6 3 77.9215 51.8691 15
-5 6 3 95.362 48.9984 24
-5 6 3 72.0985 38.9256 22
5 -6 -2 333.399 106.802 10
-5 6 2 433.224 103.76 15
-5 6 2 511.356 124.409 24
-5 6 2 453.498 99.2983 22
-5 6 1 3425.18 281.979 15
-5 6 1 4244.73 337.735 24
-5 6 1 3784.24 292.522 22
5 -6 0 78.267 55.8909 10
-5 6 0 160.836 72.209 15
-5 6 0 153.784 63.7012 24
-5 6 0 138.975 60.1985 22
-5 6 -1 4413.42 292.187 15
-5 6 -1 5429.91 359.921 24
-5 6 -1 5257.78 319.318 22
-5 6 -1 4223.71 307.312 20
-5 6 -2 127.595 58.1221 15
-5 6 -2 180.48 64.708 22
-5 6 -2 193.667 96.1284 21
-5 6 -2 127.067 58.4976 20
-5 6 -3 37.9959 25.4585 15
-5 6 -3 37.258 22.5576 22
-5 6 -3 83.1361 54.176 21
-5 6 -3 42.6183 31.7718 20
-5 6 -4 36.6761 29.3868 21
-5 6 -4 18.7607 27.3903 20
-5 6 -5 2932.67 248.981 21
-5 6 -5 1862.39 147.711 20
5 -5 -8 262.051 70.0909 10
-5 5 8 406.743 97.0705 16
5 -5 -7 379.943 95.1655 10
-5 5 7 638.259 123.556 16
-5 5 7 600.724 132.004 15
-5 5 7 520.501 134.764 24
5 -5 -6 333.163 94.2146 10
-5 5 6 307.396 100.088 16
-5 5 6 251.175 94.4219 15
-5 5 6 384.336 129.887 24
-5 5 5 1476.71 236.937 15
-5 5 5 1545.37 256.103 24
-5 5 5 1149.47 185.068 22
5 -5 -5 1326.28 206.915 10
-5 5 4 1107.26 204.083 15
-5 5 4 1115.53 226.264 24
-5 5 4 954.503 187.571 22
5 -5 -4 986.921 193.422 10
5 -5 -3 365.441 129.494 10
-5 5 3 259.355 75.7365 15
-5 5 3 453.261 144.584 24
-5 5 3 381.175 114.125 22
5 -5 -2 44.7698 73.817 10
-5 5 2 90.7704 54.5596 15
-5 5 2 184.804 98.2813 24
-5 5 2 98.4517 70.9434 22
-5 5 2 155.8 123.826 18
-5 5 1 1632.47 233.897 15
-5 5 1 1997.03 280.232 24
-5 5 0 788.677 153.821 15
-5 5 0 1102.36 203.929 24
-5 5 0 1106.79 253.595 21
-5 5 0 897.438 182.855 20
-5 5 -1 426.901 108.876 15
-5 5 -1 450.414 120.018 24
-5 5 -1 580.675 170.672 21
-5 5 -1 346.408 112.33 20
-5 5 -2 159.667 71.8864 15
-5 5 -2 109.284 64.8661 24
-5 5 -2 226.007 103.121 21
-5 5 -2 62.8462 36.694 20
-5 5 -2 157.521 98.2842 18
-5 5 -3 296.315 79.4914 15
-5 5 -3 588.015 132.427 24
-5 5 -3 806.611 188.678 21
-5 5 -3 644.992 139.493 20
-5 5 -3 1026.71 233.71 18
-5 5 -4 1174.15 223.734 21
-5 5 -4 863.754 144.568 20
-5 5 -5 478.758 132.336 21
-5 5 -5 413.514 95.4923 20
-5 5 -6 183.871 80.2731 21
-5 5 -6 82.7222 31.0349 20
-5 5 -7 697.527 130.464 21
-5 5 -7 436.331 76.063 20
-5 5 -8 1602 173.074 21
-5 4 9 3646.89 293.826 16
5 -4 -9 4276.12 284.181 10
-5 4 8 928.821 168.196 16
-5 4 8 1000.95 193.714 15
5 -4 -8 1223.81 175.913 10
-5 4 7 1379.37 258.904 24
-5 4 7 2197.89 327.235 15
5 -4 -7 1764.72 228.736 10
5 -4 -6 223.284 95.6116 10
-5 4 6 473.756 169.825 15
-5 4 6 304.838 146.253 24
-5 4 5 8601.64 658.643 15
-5 4 5 8112.34 669.929 24
-5 4 5 6906.78 555.712 22
5 -4 -5 7632.17 522.266 10
-5 4 4 6320.91 546.333 15
-5 4 4 5860.54 572.434 24
-5 4 4 5840.14 523.29 22
5 -4 -4 5429.8 459.697 10
-5 4 3 2519.56 362.045 24
-5 4 3 2379.71 324.352 15
-5 4 2 44.5617 68.3774 15
-5 4 2 50.4287 62.199 24
-5 4 2 151.184 125.372 18
-5 4 1 486.141 141.313 15
-5 4 1 521.468 166.116 24
-5 4 1 577.063 188.613 21
-5 4 1 1015.5 292.322 18
-5 4 0 466.373 133.372 15
-5 4 0 506.672 143.221 24
-5 4 0 317.105 134.176 21
-5 4 0 293.598 49.1739 20
-5 4 -1 3199.81 345.341 15
-5 4 -1 4005.2 406.405 24
-5 4 -1 4697.15 524.884 21
-5 4 -2 1302.24 223.249 15
-5 4 -2 1241.09 213.005 24
-5 4 -2 1952.8 335.126 21
-5 4 -2 1907.7 338.678 18
-5 4 -3 4319.79 477.357 21
-5 4 -3 5050.26 523.563 18
-5 4 -4 1108.81 231.528 21
-5 4 -4 1026.76 221.175 18
-5 4 -5 2644.47 348.378 21
-5 4 -5 1914.7 230.312 20
-5 4 -5 2227.66 315.57 18
-5 4 -6 2203.84 301.524 21
-5 4 -6 1623.4 195.84 20
-5 4 -7 46.0372 39.7637 21
-5 4 -7 29.7517 25.9481 20
-5 4 -8 603.954 133.218 21
-5 4 -8 330.1 75.8327 20
-5 4 -9 151.218 69.6947 21
5 -3 -10 52.7065 29.5668 10
-5 3 9 617.027 137.227 16
5 -3 -9 1106.67 157.391 10
-5 3 8 5936.9 566.282 15
5 -3 -8 5826.18 449.781 17
5 -3 -8 5091.37 367.576 10
5 -3 -7 -41.944 60.5046 10
-5 3 7 217.623 140.028 15
-5 3 6 801.793 232.275 24
5 -3 -6 1080.53 203.879 10
-5 3 5 1264.21 289.696 15
-5 3 5 789.505 251.084 24
5 -3 -5 847.266 184.999 10
-5 3 4 27884.6 1357.51 24
5 -3 -4 28988.9 1062.35 10
-5 3 3 519.496 178.447 15
-5 3 3 269.232 150.158 24
-5 3 3 410.759 235.554 18
-5 3 2 3226.63 397.928 15
-5 3 2 3345.22 428.981 24
-5 3 1 3762.01 407.586 15
-5 3 1 3542.43 415.803 24
-5 3 1 4740.57 605.239 18
-5 3 0 12855.3 951.711 21
-5 3 0 11755.1 718.856 15
-5 3 -1 3315.49 383.777 15
-5 3 -1 4060.07 526.51 21
-5 3 -2 475.118 139.493 15
-5 3 -2 765.635 216.985 21
-5 3 -2 1052.93 246.176 18
-5 3 -3 221.925 126.191 21
-5 3 -3 195.472 113.09 18
-5 3 -4 45.1546 37.6647 21
-5 3 -4 93.5786 54.7485 18
-5 3 -5 331.974 135.794 21
-5 3 -5 450.803 141.239 18
-5 3 -6 2651.65 347.012 21
-5 3 -6 2927.39 353.532 18
-5 3 -7 16.963 39.5698 21
-5 3 -7 155.872 75.2287 18
-5 3 -8 340.882 103.855 21
-5 3 -8 249.073 77.9609 20
-5 3 -9 2661.39 280.488 21
-5 3 -9 1700.93 186.98 20
-5 3 -10 2616.43 256.998 21
-5 3 -11 104.871 52.7857 21
5 -2 -10 146.675 45.0767 10
5 -2 -10 249.53 85.6635 17
-5 2 9 2620.05 385.829 15
5 -2 -9 3222.66 329.626 17
5 -2 -9 2651.01 251.376 10
5 -2 -8 4631.28 433.069 17
5 -2 -8 3320.6 304.236 10
5 -2 -7 4710.99 469.926 17
5 -2 -7 3875.41 355.518 10
5 -2 -6 286.797 103.61 10
5 -2 -6 108.659 54.5256 17
-5 2 5 1571.16 332.416 24
5 -2 -5 2377.22 370.366 17
5 -2 -5 2696.12 320.44 10
-5 2 4 2753.65 443 24
-5 2 4 3070.17 643.858 18
5 -2 -4 2886.42 424.041 17
5 -2 -4 3223.34 349.747 10
-5 2 3 7193.8 681.694 24
-5 2 3 8637.84 985.284 18
-5 2 2 1491.39 359.37 21
-5 2 2 5228.11 713.023 18
-5 2 1 16188 1052.37 5
5 -2 -1 16394.1 1110.37 26
5 -2 -1 16381.7 961.148 4
5 -2 0 560.661 186.161 27
-5 2 0 390.458 152.69 5
-5 2 0 343.734 124.636 21
5 -2 0 477.973 164.775 4
-5 2 0 647.397 212.695 18
-5 2 -1 4779.09 538.152 5
5 -2 1 5161.18 559.176 27
-5 2 -1 5887.55 505.84 15
-5 2 -1 5811.55 641.2 21
5 -2 1 3435.18 447.332 4
-5 2 -1 7342.67 667.62 18
5 -2 2 2300.45 381.342 27
-5 2 -2 2567.5 413.915 21
-5 2 -2 3113.58 424.144 18
-5 2 -3 10447.4 811.063 21
-5 2 -3 12784 823.016 18
-5 2 -4 4728.43 532.221 21
-5 2 -4 5739.66 541.883 18
-5 2 -5 795.668 208.875 21
-5 2 -6 4117.63 402.675 12
-5 2 -6 5369.88 533.362 21
-5 2 -7 33.821 37.9398 12
-5 2 -7 85.9613 56.9562 21
-5 2 -8 5.03113 53.0983 12
-5 2 -8 23.6386 37.4915 21
-5 2 -9 1911.04 232.929 12
-5 2 -9 3538.42 370.509 21
-5 2 -10 70.7739 45.5169 12
-5 2 -10 142.188 79.476 21
-5 2 -11 1219.39 177.62 21
-5 2 -12 208.902 63.9575 21
5 -1 -11 2161.71 179.851 11
5 -1 -10 1633.94 214.038 19
5 -1 -10 1616.32 215.449 17
5 -1 -9 2828.97 313.757 19
5 -1 -9 2834.89 310.649 17
5 -1 -8 853.957 194.058 19
5 -1 -8 650.588 159.046 17
5 -1 -7 3194.46 392.07 19
5 -1 -7 3094.99 378.398 17
5 -1 -7 2546.94 291.849 10
5 -1 -6 70.5499 29.6969 10
5 -1 -6 91.6746 65.2168 17
5 -1 -5 24605 1172.43 17
5 -1 -5 22460.9 913.063 10
5 -1 -4 2803.7 410.46 17
5 -1 -4 2545.05 302.964 10
5 -1 -3 5572.55 645.565 26
-5 1 3 3317.22 451.411 24
-5 1 3 6650.57 714.04 6
-5 1 3 3896.18 642.873 18
5 -1 -2 646.735 217.397 27
5 -1 -2 835.722 237.64 26
5 -1 -2 788.983 194.567 4
-5 1 2 1165.23 279.277 6
-5 1 1 11925.1 854.597 5
5 -1 -1 13388.4 848.239 27
5 -1 -1 12781.1 770.703 4
-5 1 0 10485.4 779.821 5
5 -1 0 9922.74 687.175 27
5 -1 0 8392.97 629.156 4
-5 1 -1 2279.66 351.684 5
5 -1 1 2294.85 340.477 27
5 -1 1 1925.24 307.278 4
-5 1 -2 2769.33 378.836 5
5 -1 2 2969.87 381.502 27
5 -1 2 2762.26 400.383 4
-5 1 -3 17645.3 936.915 5
5 -1 3 18915.2 983.672 27
5 -1 3 15844.1 958.921 4
5 -1 3 20842.7 1186.3 3
-5 1 -4 19204.4 1268.24 29
-5 1 -4 15528.5 872.935 5
5 -1 4 17680.6 983.767 27
5 -1 4 18689.9 1118.33 3
-5 1 -5 1809.85 389.189 29
5 -1 5 1970.65 398.599 23
-5 1 -5 2091.07 309.15 12
-5 1 -5 2347.08 376.71 21
5 -1 5 2244.65 405.358 3
5 -1 6 482.48 215.439 23
-5 1 -6 196.138 105.261 12
-5 1 -6 156.16 109.091 21
-5 1 -7 595.077 154.316 12
-5 1 -7 561.112 182.638 21
-5 1 -8 367.756 114.92 12
-5 1 -8 509.958 156.169 21
-5 1 -9 3990.82 363.043 12
-5 1 -9 5516.49 505.766 21
-5 1 -10 960.107 165.141 12
-5 1 -10 1224.89 224.502 21
-5 1 -11 713.489 158.418 21
-5 1 -11 443.979 105.964 12
5 -1 12 20.8647 37.3185 23
-5 1 -12 107.405 42.4087 12
-5 1 -12 122.981 51.7704 21
-5 1 -13 144.608 55.5297 21
5 0 -11 2927.33 242.404 17
5 0 -10 6974.99 436.82 19
5 0 -10 6165.78 401.393 17
5 0 -9 58.9396 45.0286 19
5 0 -9 88.5906 43.5664 17
5 0 -8 1663.97 266.788 19
5 0 -8 1520.36 240.227 17
5 0 -7 1628.17 278.531 19
5 0 -7 1537.01 250.447 17
5 0 -6 1382.32 277.362 19
5 0 -6 1294.71 247.199 17
5 0 -5 83507.6 2122.74 19
5 0 -5 85325.1 2066.85 17
-5 0 4 13298.5 986.604 28
5 0 -4 13989.1 867.949 19
-5 0 3 2429.6 385.85 28
5 0 -3 1931.47 363.084 26
-5 0 3 2535.2 401.464 6
-5 0 2 27191.1 1176.09 28
-5 0 2 31462.6 1346.66 6
-5 0 1 2456.93 332.104 28
5 0 -1 1434.19 265.289 27
5 0 -1 1689.27 254.588 4
-5 0 1 2692.83 368.938 6
-5 0 0 6213.88 570.752 5
-5 0 0 5343.1 458.648 28
5 0 0 3556.27 375.928 27
5 0 0 3839.88 391.435 4
-5 0 -1 18929 973.285 5
5 0 1 17705.5 854.837 27
5 0 1 16190.7 850.274 4
-5 0 -2 53912.4 1385.37 28
-5 0 -2 51368.9 1569.62 5
5 0 2 48538.3 1417.04 27
5 0 2 44989.9 1454.21 4
5 0 2 56679.6 1769.69 3
-5 0 -3 13038.6 996.545 29
-5 0 -3 16382.8 776.598 28
-5 0 -3 13827.5 804.687 5
5 0 3 13221.3 756.143 27
5 0 3 15199.8 921.099 3
-5 0 -4 3023.51 458.197 29
-5 0 -4 3708.78 404.993 5
5 0 4 3695.55 406.205 27
5 0 4 3704.49 485.155 3
-5 0 -5 6591.76 676.699 29
-5 0 -5 7149.26 567.615 5
5 0 5 7777.75 623.968 27
5 0 5 7850.6 714.265 3
-5 0 -6 35062.2 1562 29
-5 0 -6 38299.7 1344.16 5
5 0 6 39920.3 1514.17 27
-5 0 -6 39209.9 1306.94 12
5 0 6 40060.6 1650.2 3
-5 0 -7 3554.8 385.64 12
-5 0 -7 3604.8 467.887 21
-5 0 -8 7866.68 557.461 12
-5 0 -8 9461.26 746.41 21
-5 0 -9 787.109 178.528 12
-5 0 -9 992.598 243.96 21
-5 0 -10 2632.65 299.797 12
-5 0 -10 3523.08 416.859 21
-5 0 -11 849.565 191.465 21
-5 0 -11 560.781 128.18 12
-5 0 -12 208.011 65.6072 12
-5 0 -12 270.163 87.0897 21
-5 0 -13 149.225 53.0819 12
-5 0 -13 78.0193 36.0897 21
5 1 -11 72.1214 42.0916 19
5 1 -10 491.83 109.918 19
5 1 -10 385.092 94.4364 17
5 1 -9 322.938 106.666 19
5 1 -9 8.5945 40.6282 17
5 1 -8 13609.6 697.692 19
5 1 -8 12698.5 649.983 17
5 1 -7 7104.84 538.604 19
5 1 -7 6631.44 493.924 17
5 1 -6 1512.8 289.66 23
5 1 -6 1180.31 229.483 19
5 1 -6 1335.74 237.726 17
5 1 -5 294.48 144.028 23
5 1 -5 345.362 147.264 19
5 1 -5 281.251 135.607 17
-5 -1 4 12198.2 886.195 28
5 1 -4 12521.4 815.854 26
5 1 -4 18958 968.802 23
5 1 -4 17421.8 907.963 19
-5 -1 4 12999.3 1018.04 6
-5 -1 3 18343.4 1033.96 28
5 1 -3 17487 975.488 26
-5 -1 3 17606.1 1088.71 6
-5 -1 2 72091.2 1907.75 28
-5 -1 2 68741.1 2002.25 6
-5 -1 1 2830.03 357.614 28
-5 -1 1 2399.74 358.664 6
-5 -1 0 18623.1 863.223 28
-5 -1 0 18317.4 974.878 5
-5 -1 0 20837.8 997.448 6
-5 -1 -1 23033.3 920.874 28
5 1 1 17801.2 765.837 27
-5 -1 -1 24289.6 1079.32 5
5 1 1 20381.4 898.902 4
-5 -1 -1 25966.6 1063.88 6
-5 -1 -2 33782.5 1074.41 28
-5 -1 -2 34409.2 1254.42 5
5 1 2 34066.7 1284.93 3
-5 -1 -3 14227.8 674.307 28
5 1 3 12480.7 667.379 27
-5 -1 -3 14478 793.924 5
5 1 3 15423.7 870.191 3
-5 -1 -4 507.752 174.164 29
-5 -1 -4 528.293 130.888 28
5 1 4 418.035 121.231 27
-5 -1 -4 291.835 125.995 5
5 1 4 472.67 138.598 3
-5 -1 -5 1300.96 290.174 29
5 1 5 1537.38 251.255 27
-5 -1 -5 1821.06 284.239 5
5 1 5 1657.12 318.579 3
-5 -1 -6 31310.8 1437.85 29
5 1 6 34180.5 1281.56 27
-5 -1 -6 38950.7 1312.71 5
5 1 6 38858.1 1541.9 3
5 1 7 726.027 173.683 16
-5 -1 -7 787.519 214.421 29
-5 -1 -7 1233.17 242.961 12
-5 -1 -8 6661.42 535.654 12
5 1 8 5225.6 449.111 16
-5 -1 -9 17339.2 832.05 12
-5 -1 -9 21379.5 1140.48 21
-5 -1 -10 993.42 196.526 12
-5 -1 -10 1233.41 264.374 21
-5 -1 -11 19420.1 805.993 12
-5 -1 -11 22312.1 1019.03 21
-5 -1 -12 223.091 84.6497 12
-5 -1 -12 216.435 109.56 21
5 1 13 295.921 109.421 23
-5 -1 -13 339.154 91.1209 12
-5 -1 -13 476.231 114.374 21
5 1 14 70.8555 38.8617 23
-5 -1 -14 73.8237 32.9633 12
5 2 -10 1839.97 197.878 19
5 2 -10 1458.74 168.248 17
5 2 -9 5.58189 35.8242 19
5 2 -9 44.3401 33.4373 17
5 2 -8 3874.3 351.146 19
5 2 -8 3532.29 317.766 17
5 2 -7 6771.98 484.033 19
5 2 -7 6661.33 466.785 17
5 2 -6 40.164 31.5538 19
5 2 -6 68.3438 72.8145 17
5 2 -5 46163.6 1385.12 23
5 2 -5 45845.5 1331.78 19
5 2 -5 48936 1401.94 17
-5 -2 4 5465.29 688.202 31
-5 -2 4 7540.55 735.452 28
5 2 -4 6994.06 585.358 26
5 2 -4 10232.8 638.228 13
5 2 -4 10962.9 682.949 23
5 2 -4 10979.2 666.152 19
-5 -2 3 29220.4 1376.47 28
5 2 -3 27294.9 1131.32 26
-5 -2 3 25174.4 1360.2 6
-5 -2 2 3695.74 458.694 28
5 2 -2 3218.04 369.466 26
-5 -2 2 3439.55 475.759 6
-5 -2 1 5240.31 511.073 28
-5 -2 1 5515.68 575.497 6
-5 -2 0 5925.04 526.046 28
5 2 0 6235.33 501.459 1
-5 -2 0 6549.66 589.346 6
-5 -2 -1 14519.3 784.548 28
-5 -2 -1 14382.2 841.709 5
5 2 1 14950.6 775.721 1
-5 -2 -1 15832.5 881.242 6
-5 -2 -2 8462.88 579.619 28
5 2 2 6309.53 435.489 27
5 2 2 8903.76 597.12 1
-5 -2 -2 8779.71 637.754 32
5 2 2 7460.91 573.022 3
-5 -2 -2 8334.21 647.858 6
-5 -2 -3 68785 1572.21 28
-5 -2 -3 70651.2 1767.17 32
5 2 3 68484.5 1671.78 1
5 2 3 72613.2 1798.28 3
-5 -2 -4 130.604 85.8583 28
5 2 4 146.243 67.0102 27
5 2 4 234.546 125.489 3
-5 -2 -4 131.964 102.895 32
5 2 5 396.763 142.302 3
-5 -2 -5 300.159 123.5 32
5 2 6 1776.05 331.255 3
-5 -2 -7 1074.76 265.828 29
-5 -2 -7 1460.59 276.167 12
5 2 7 1733.15 335.653 3
5 2 7 1535.25 241.093 16
-5 -2 -8 4163.4 456.394 12
5 2 8 3628.54 376.148 16
-5 -2 -9 18261.3 923.934 12
5 2 9 16328.8 805.019 16
5 2 10 47.2378 49.8823 16
-5 -2 -10 105.02 70.9932 12
-5 -2 -11 2799.97 330.265 12
-5 -2 -12 406.609 119.465 12
5 2 13 2239.05 262.196 23
-5 -2 -13 3283.21 295.353 12
5 2 14 1062.28 156.227 23
-5 -2 -14 1956 194.205 12
5 3 -10 1435.88 151.991 19
5 3 -9 1904.95 201.726 19
5 3 -8 119.878 61.4494 19
5 3 -8 222.528 80.3558 17
5 3 -7 1303.92 198.979 19
5 3 -7 731.152 142.228 17
5 3 -6 387.44 124.032 14
5 3 -6 255.43 66.4342 19
5 3 -6 178.525 73.545 17
5 3 -5 2048.78 280.418 13
5 3 -5 2314.32 288.804 23
5 3 -5 2464.92 295.281 19
5 3 -5 2398.9 303.157 17
5 3 -4 48447 1360.17 13
5 3 -4 52619.1 1372.26 23
5 3 -4 51663 1385.45 19
-5 -3 3 225.716 119.871 31
-5 -3 3 357.85 156.285 28
5 3 -3 380.522 125.952 23
5 3 -3 481.578 141.142 13
-5 -3 3 295.282 182.509 6
-5 -3 2 196.59 70.1834 28
-5 -3 2 151.847 126.54 6
-5 -3 1 5516.95 579.823 28
5 3 -1 5705.98 496.165 1
5 3 -1 4815.97 419.32 26
-5 -3 1 5111.63 584.463 6
-5 -3 0 4780.75 521.066 28
5 3 0 5886.76 502.147 1
-5 -3 0 5281.16 573.717 6
-5 -3 0 5618.13 565.202 32
-5 -3 -1 191.052 118.785 28
5 3 1 139.771 73.0189 1
-5 -3 -1 276.612 139.883 6
-5 -3 -1 344.615 141.962 32
-5 -3 -2 5795.36 527.912 28
-5 -3 -2 6365.69 570.073 32
-5 -3 -3 50475.4 1507.96 28
5 3 3 46592.3 1377.51 3
-5 -3 -3 48910.8 1569.55 32
-5 -3 -4 5577.93 488.932 28
-5 -3 -4 5666.99 524.045 32
5 3 4 4980.17 474.417 1
5 3 4 5253.96 484.756 3
5 3 5 13626.4 820.79 1
5 3 5 14650.9 852.022 3
-5 -3 -5 15709.3 857.518 32
5 3 6 16208.1 944.635 3
-5 -3 -6 18399.8 945.732 32
5 3 7 11557.2 694.664 23
-5 -3 -7 12172 826.994 12
5 3 7 11561.2 842.064 3
5 3 7 12617.1 662.556 16
-5 -3 -8 7835.07 670.312 12
5 3 8 7864.42 528.746 16
-5 -3 -9 1404.31 279.389 12
5 3 9 1158.1 206.681 16
-5 -3 -10 4723.98 485.862 12
5 3 10 3778.69 379.187 16
-5 -3 -11 8822.38 621.595 12
5 3 11 6480.29 469.399 16
5 3 12 641.935 135.456 16
5 3 12 822.207 172.607 23
-5 -3 -12 936.123 189.22 12
5 3 13 1185.88 187.93 23
-5 -3 -13 2187.13 253.158 12
5 3 14 264.769 74.1596 23
-5 -3 -14 675.041 121.375 12
5 4 -9 1689.98 189.107 14
5 4 -9 1156.35 136.073 19
5 4 -8 3439.78 317.565 14
5 4 -8 2113.27 212.888 19
5 4 -7 608.641 156.494 14
5 4 -7 494.944 112.607 19
5 4 -6 2331.24 328.978 14
5 4 -6 1678.16 219.737 19
5 4 -5 6060.17 481.272 13
5 4 -5 8818.84 534.255 19
5 4 -4 3560.05 433.831 14
5 4 -4 2439.47 285.026 23
5 4 -4 2613.63 305.16 13
5 4 -4 2704.2 298.064 19
5 4 -3 319.568 102.646 23
5 4 -3 270.93 77.9079 13
5 4 -2 18031.6 770.491 23
5 4 -2 18755.6 814.386 13
-5 -4 1 175.27 138.009 28
-5 -4 1 240.178 137.483 6
5 4 -1 111.973 79.5741 1
-5 -4 0 40649.9 1706.38 28
-5 -4 0 33373.1 1583.69 6
-5 -4 -1 2390.82 401.953 28
5 4 1 3134.84 375.724 1
-5 -4 -1 2529.19 396.369 32
-5 -4 -2 10759 827.33 28
-5 -4 -2 11094 814.949 32
5 4 2 12544.9 762.455 1
-5 -4 -3 328.279 141.737 28
-5 -4 -3 201.123 139.614 32
-5 -4 -4 135.956 86.5814 28
5 4 4 251.58 130.097 1
-5 -4 -4 150.778 96.3477 32
5 4 5 112.172 72.6416 1
-5 -4 -5 14.1761 86.0542 32
-5 -4 -6 131434 2677.7 32
5 4 6 138166 2106.58 16
5 4 7 745.705 169.913 16
5 4 7 600.048 190.235 9
5 4 7 370.582 137.548 23
5 4 8 5286.64 467.855 9
5 4 8 3896.98 413.12 23
5 4 8 5009.87 406.61 16
5 4 9 3535.12 374.59 9
-5 -4 -9 3881.53 478.783 12
5 4 9 3368.97 336.337 16
-5 -4 -10 2843.53 391.537 12
5 4 10 2082.23 269.692 16
5 4 11 3712.05 379.029 23
5 4 11 4944.39 399.531 16
5 4 12 542.333 143.467 23
5 4 12 787.882 157.261 16
5 4 13 67.8518 43.0238 16
-5 -4 -13 72.1441 55.61 12
-5 -4 -14 -11.9133 27.3076 12
5 5 -9 40.7893 36.0258 14
5 5 -8 12558 523.942 14
5 5 -7 131.285 69.9091 14
5 5 -6 784.457 162.875 25
5 5 -6 888.946 171.429 14
5 5 -6 532.537 111.075 19
5 5 -5 4239.66 403.967 25
5 5 -5 4530.82 430.645 14
5 5 -4 3276.98 389.2 25
5 5 -4 4209.49 422.342 14
5 5 -3 1032.11 202.401 14
5 5 -3 934.43 188.1 13
5 5 -3 714.913 158.665 23
5 5 -3 779.796 164.123 19
5 5 -2 43687.5 1212.65 23
5 5 -2 44843.1 1252.21 13
5 5 -1 11594.8 635.015 14
5 5 -1 10435.2 594.817 13
5 5 0 25939.2 947.564 13
5 5 1 8448.46 539.383 13
5 5 1 5622.38 517.458 1
-5 -5 -2 13732.2 1030.29 28
-5 -5 -2 11906.5 925.984 32
5 5 3 49486.3 1237.18 9
-5 -5 -3 38889.9 1688.86 28
5 5 3 48750.3 1311.03 13
5 5 3 42193.6 1448.81 1
-5 -5 -3 36480.3 1589.84 32
5 5 4 466.401 128.351 16
-5 -5 -4 269.787 150.497 28
5 5 4 318.763 97.4756 9
5 5 4 336.834 115.109 13
5 5 5 24226.5 880.045 9
5 5 5 24537.8 897.595 16
5 5 6 10716.2 583.177 9
5 5 6 11706.3 614.405 16
5 5 7 22753.7 874.845 9
5 5 7 24963.4 894.123 16
5 5 8 1061.91 191.627 9
5 5 8 1133.03 188.726 16
5 5 9 22719.3 907.504 9
5 5 9 19859.1 778.642 16
5 5 10 160.432 87.8587 16
5 5 10 -8.91644 39.8316 9
5 5 11 4429.67 350.418 16
5 5 12 268.365 90.8409 16
5 5 13 56.2316 35.7953 16
5 6 -8 454.783 80.1211 14
5 6 -7 2005.55 193.854 14
5 6 -6 192.394 74.4714 25
5 6 -6 207.304 81.459 14
5 6 -5 7168.7 465.817 25
5 6 -5 6807.49 437 14
5 6 -4 3881.67 378.587 25
5 6 -4 4666.63 399.025 14
5 6 -3 8845.02 608.391 25
5 6 -3 8181.48 514.722 14
5 6 -2 1406.3 252.335 25
5 6 -2 977.162 176.12 14
5 6 -1 76.2961 57.4043 25
5 6 -1 88.8803 43.6959 14
5 6 -1 24.8294 63.1535 13
5 6 0 9345.52 529.266 14
5 6 0 9962.54 573.896 13
5 6 1 7884.76 644.639 25
5 6 1 6386.89 460.667 13
5 6 2 37989.2 1433.46 25
5 6 2 29283.5 991.774 13
5 6 3 9911.98 565.529 9
5 6 3 8928.93 549.674 13
5 6 4 8463.58 507.915 9
5 6 4 9836.38 742.084 25
5 6 4 8173.73 525.174 13
5 6 5 13260.6 638.372 9
5 6 5 15207.6 930.56 25
5 6 5 14806.7 709.96 16
5 6 6 26255.5 894.809 9
5 6 6 29891.8 999.083 16
5 6 7 6385.28 434.144 9
5 6 7 6918.71 462.548 16
5 6 8 90.6951 69.6928 16
5 6 8 75.2133 46.2444 9
5 6 9 5969.01 434.403 9
5 6 9 6284.86 422.069 16
5 6 10 645.684 140.678 16
5 6 10 651.591 146.802 9
5 6 11 3477.79 290.276 16
5 6 12 2004.44 210.344 16
5 6 13 580.835 99.672 16
5 7 -7 1645.76 135.498 14
5 7 -6 151.67 52.2827 14
5 7 -5 3382.83 267.274 25
5 7 -5 3346.42 256.319 14
5 7 -4 1675.19 212.591 25
5 7 -4 1426.69 185.621 14
5 7 -3 1865.75 239.505 25
5 7 -3 2003.88 234.185 14
5 7 -2 1393.28 225.179 25
5 7 -2 1114.15 175.019 14
5 7 -1 4423.18 416.875 25
5 7 -1 3846.77 325.614 14
5 7 -1 3395.95 320.293 13
5 7 0 12317.9 584.778 14
5 7 0 9930.09 549.34 13
5 7 1 1619.56 219.588 14
5 7 1 1920.27 239.201 13
5 7 2 127.712 74.2494 25
5 7 2 115.362 56.7641 13
5 7 3 63.3199 27.1486 9
5 7 3 47.7193 76.445 25
5 7 3 48.7396 45.8396 13
5 7 4 -49.2008 81.5677 9
5 7 4 -30.073 89.9081 25
5 7 4 9.99141 44.5279 13
5 7 5 182.665 30.8009 9
5 7 5 403.113 143.774 25
5 7 5 368.28 108.57 13
5 7 6 466.811 109.941 16
5 7 6 422.148 92.6611 9
5 7 6 513.735 155.388 25
5 7 7 -49.5526 71.8066 16
5 7 7 1.92911 80.2115 9
5 7 7 -7.67821 33.8678 25
5 7 8 -1.03035 55.7439 16
5 7 8 -42.3002 78.4028 9
5 7 9 256.487 70.183 16
5 7 9 184.564 54.1847 9
5 7 10 2698.58 256.647 9
5 7 10 2518.36 235.998 16
5 7 11 384.664 85.5218 16
5 7 11 231.643 72.8005 13
5 7 12 511.19 90.6018 16
5 8 -5 994.419 105.599 14
5 8 -4 630.524 100.731 25
5 8 -4 552.566 91.5647 14
5 8 -3 96.2942 43.9227 25
5 8 -3 70.2902 26.7341 14
5 8 -2 3780.09 305.023 25
5 8 -2 3185.7 255.08 14
5 8 -1 118.118 70.0185 25
5 8 -1 126.464 61.7133 14
5 8 0 3786.66 339.698 25
5 8 0 2938.53 253.99 14
5 8 1 58.4176 45.8152 25
5 8 1 81.4485 47.242 14
5 8 1 187.42 70.4557 13
5 8 2 4803.24 344.776 14
5 8 2 4381.85 327.116 13
5 8 3 215.734 99.0416 25
5 8 3 31.4831 34.4384 14
5 8 3 138.703 65.0811 13
5 8 4 601.049 151.36 25
5 8 4 178.407 62.6571 14
5 8 4 398.037 96.1563 13
5 8 5 -76.4576 62.5624 9
5 8 5 29.027 38.5201 25
5 8 5 17.6162 31.9674 13
5 8 6 654.148 117.288 9
5 8 6 892.828 176.96 25
5 8 6 704.306 136.188 13
5 8 7 -58.9177 61.6589 9
5 8 7 2.91866 43.4801 25
5 8 7 11.9347 34.5438 13
5 8 8 136.422 57.1332 16
5 8 8 96.7066 37.5289 9
5 8 8 115.175 56.0744 25
5 8 8 117.489 32.1618 13
5 8 9 132.583 45.8595 16
5 8 9 61.3912 35.6996 9
5 8 9 165.338 56.4068 13
5 8 10 1875.37 190.107 9
5 8 10 1352.6 178.422 25
5 8 10 1578.58 175.123 13
5 8 10 1842.7 173.698 16
5 8 11 668.775 98.6396 13
5 8 11 943.587 113.846 16
5 9 -2 1371.2 132.209 25
5 9 -1 86.0878 41.3364 25
5 9 -1 90.2 39.8997 14
5 9 0 2762.84 228.053 25
5 9 0 2091.63 182.476 14
5 9 1 4117.21 291.365 25
5 9 1 3360.85 246.239 14
5 9 2 804.363 134.713 25
5 9 3 5978.48 369.572 25
5 9 3 4386.25 279.9 13
5 9 4 717.048 125.278 25
5 9 4 499.862 94.2709 13
5 9 5 -130.196 76.1539 25
5 9 5 -6.28274 32.464 13
5 9 6 1086.77 157.46 25
5 9 6 790.506 120.117 13
5 9 7 381.424 90.1391 25
5 9 7 300.687 75.143 13
5 9 8 6.04608 27.2103 25
5 9 8 28.0912 30.8622 13
5 9 9 2037.42 170.808 13
6 -5 -5 -6.23168 18.4207 10
-6 5 5 20.999 27.1184 16
-6 5 5 93.2547 87.8603 15
-6 5 5 83.5859 54.7914 24
-6 5 4 1634.44 194.976 15
-6 5 4 1718.71 224.593 24
-6 5 4 1165.99 148.801 22
6 -5 -4 1216.31 166.319 10
6 -5 -3 337.961 96.4316 10
-6 5 3 490.404 112.35 15
-6 5 3 724.615 148.467 24
-6 5 3 524.874 120.302 22
-6 5 2 1098.11 161.442 15
-6 5 2 1435.92 204.216 24
-6 5 2 1297.74 174.747 22
6 -5 -2 750.215 149.938 10
-6 5 1 1405.78 185.054 15
-6 5 1 1594.89 219.723 24
-6 5 1 1585.98 197.81 22
6 -5 -1 1040.35 169.674 10
-6 5 0 842.14 138.135 15
-6 5 0 1321.07 187.765 24
-6 5 0 1183.27 165.145 22
-6 5 -1 42.6795 43.2211 15
-6 5 -1 38.4534 44.1778 24
-6 5 -1 116.931 50.3091 22
-6 5 -1 81.7035 54.1158 20
-6 5 -1 91.9411 80.0771 18
-6 5 -2 986.036 130.208 15
-6 5 -2 1587.28 190.379 24
-6 5 -2 1558.68 171.959 22
-6 5 -2 1206 160.345 20
-6 5 -3 149.854 58.2273 24
-6 5 -3 148.372 54.1268 22
-6 5 -3 305.736 103.804 21
-6 5 -3 183.635 65.3801 20
-6 5 -3 402.511 123.244 18
-6 5 -4 54.4558 30.0046 22
-6 5 -4 48.3177 34.6388 21
-6 5 -4 68.7691 31.9644 20
-6 5 -4 53.9453 31.3615 18
-6 5 -5 137.04 57.7914 21
-6 5 -5 73.5237 33.0879 20
6 -4 -7 301.236 73.2761 10
-6 4 7 318.979 88.5466 16
6 -4 -6 -28.7337 31.8835 10
-6 4 6 71.5581 44.431 15
-6 4 6 -38.8745 65.134 24
-6 4 5 1436.11 222.229 15
-6 4 5 1545.93 252.019 24
6 -4 -5 921.743 161.29 10
-6 4 4 1223.86 205.358 15
-6 4 4 1172.52 230.896 24
-6 4 4 992.208 179.946 22
6 -4 -4 757.556 159.685 10
-6 4 3 5718.86 441.806 15
-6 4 3 7026.68 548.718 24
-6 4 3 6025.45 464.592 22
6 -4 -2 591.627 144.771 10
-6 4 2 623.808 146.093 15
-6 4 2 842.058 196.52 24
-6 4 1 198.888 79.3057 15
-6 4 1 320.506 124.664 24
-6 4 0 85.0112 49.8986 15
-6 4 0 124.703 73.8217 21
-6 4 -1 100.102 68.1578 15
-6 4 -1 -8.37188 48.3749 24
-6 4 -1 -158.514 99.0523 21
-6 4 -1 15.4252 45.8687 20
-6 4 -1 0.32556 66.2002 18
-6 4 -2 6230 415.732 15
-6 4 -2 8139.43 505.428 24
-6 4 -2 11361 755.259 21
-6 4 -2 8119.42 514.718 20
-6 4 -2 13539.4 858.97 18
-6 4 -3 385.017 111.068 24
-6 4 -3 502.153 165.295 21
-6 4 -3 439.341 115.381 20
-6 4 -3 655.085 181.843 18
-6 4 -4 53.4913 32.6189 24
-6 4 -4 42.6491 53.6357 21
-6 4 -4 82.9281 67.485 20
-6 4 -4 42.5501 64.2167 18
-6 4 -5 353.628 91.0511 24
-6 4 -5 370.182 124.009 21
-6 4 -5 342.518 88.2905 20
-6 4 -5 477.669 134.935 18
-6 4 -6 5654.6 428.931 21
-6 4 -6 5877.2 433.533 18
-6 4 -7 147.418 67.3428 21
-6 4 -7 120.476 48.5242 20
-6 4 -8 151.066 57.0121 21
6 -3 -8 9.27832 16.7603 10
-6 3 8 -19.8233 42.7797 16
-6 3 8 -43.6514 79.2939 15
6 -3 -7 428.984 98.2476 10
-6 3 7 531.547 143.965 15
6 -3 -6 421.279 106.073 10
-6 3 6 926.478 199.898 15
-6 3 5 3017.18 391.263 24
6 -3 -5 2648.87 285.899 10
6 -3 -4 88.6711 62.1574 10
-6 3 4 27.4526 75.4522 15
-6 3 4 21.5958 56.4267 24
-6 3 3 3415.25 378.174 15
-6 3 3 3392.3 426.033 24
6 -3 -3 2526.09 303.089 10
-6 3 2 1165.94 227.607 15
-6 3 2 1170.75 247.56 24
-6 3 2 1787.75 411.718 18
-6 3 1 1700.08 262.398 15
-6 3 1 1925.61 307.437 24
-6 3 1 1173.38 295.63 21
-6 3 0 3240.21 346.112 15
-6 3 0 4581.94 448.716 24
-6 3 0 4352.52 550.403 21
-6 3 -1 3743.86 508.181 21
-6 3 -1 4952.32 576.316 18
-6 3 -2 1574.4 242.876 15
-6 3 -2 2300.27 385.622 21
-6 3 -2 2863.91 404.775 18
-6 3 -3 4240.08 509.588 21
-6 3 -3 5209.68 523.444 18
-6 3 -4 156.162 89.7372 21
-6 3 -4 165.725 91.2872 18
-6 3 -5 8019 626.727 21
-6 3 -5 8027.19 561.207 18
-6 3 -6 732.834 181.939 21
-6 3 -6 711.084 155.394 18
-6 3 -7 2782.47 321.46 21
-6 3 -7 1813.62 195.435 20
-6 3 -7 2404.98 279.961 18
-6 3 -8 217.77 86.9962 21
-6 3 -8 144.266 53.7195 20
-6 3 -8 157.888 60.6605 18
-6 3 -9 2880.62 269.408 21
-6 3 -9 1174.63 122.42 20
6 -2 -9 1024.61 142.053 17
-6 2 8 954.721 202.035 15
6 -2 -8 1182.97 175.839 17
6 -2 -7 107.797 49.6606 10
6 -2 -7 116.962 62.1786 17
6 -2 -6 251.081 85.4521 10
6 -2 -6 413.054 138.791 17
6 -2 -5 13138.9 777.718 17
6 -2 -5 12690.9 632.743 10
-6 2 4 1500 306.214 24
-6 2 4 1888.23 502.653 18
6 -2 -4 2408.59 292.272 10
-6 2 3 423.018 178.727 24
-6 2 3 579.882 291.384 18
-6 2 2 5419.55 576.47 24
-6 2 2 7163.98 851.482 18
-6 2 1 3182.55 381.197 15
-6 2 1 3320.05 539.191 18
-6 2 0 6197.57 516.17 15
-6 2 0 5014.01 660.069 21
-6 2 -1 1036.76 220.981 15
-6 2 -1 1644.81 348.414 21
-6 2 -2 2279.31 419.705 21
-6 2 -2 2950.34 420.998 18
-6 2 -3 892.729 268.111 21
-6 2 -3 929.768 238.006 18
-6 2 -4 93.1292 105.285 21
-6 2 -4 168.578 100.955 18
-6 2 -5 3801.09 479.585 21
-6 2 -5 3701.22 410.35 18
-6 2 -6 9607.45 709.714 21
-6 2 -6 9434.97 623.881 18
-6 2 -7 1392.57 261.649 21
-6 2 -7 1227.54 207.754 18
-6 2 -8 6.09509 57.5512 21
-6 2 -8 -6.3949 31.1305 18
-6 2 -9 379.444 89.4358 20
-6 2 -9 579.164 125.326 18
-6 2 -10 2204.98 242.896 21
-6 2 -11 -0.35497 18.6937 21
-6 1 9 3931.77 367.764 15
6 -1 -9 10202.7 493.928 17
6 -1 -8 2012.03 253.058 17
6 -1 -7 423.96 117.305 17
6 -1 -6 2114.14 308.464 17
6 -1 -5 175.686 116.658 17
6 -1 -4 17907.3 1017.31 17
6 -1 -4 13186.5 695.936 10
-6 1 3 5034.93 595.598 24
-6 1 3 5843.76 864.09 18
6 -1 -3 4446.48 409.097 10
-6 1 2 22813.3 1601.8 18
-6 1 1 1771.66 409.842 21
-6 1 1 6709.7 802.66 18
-6 1 0 3615.47 553.464 21
-6 1 0 9888.27 904.234 18
-6 1 -1 17413.4 1190.51 21
-6 1 -1 36221.3 1620.12 18
-6 1 -2 14266.2 1060.01 21
-6 1 -2 22394.5 1194.09 18
-6 1 -3 14714.8 1072.64 21
-6 1 -3 19853.5 1068.9 18
-6 1 -4 9693.36 839.831 21
-6 1 -4 10635.7 755.353 18
6 -1 5 518.121 201.833 23
-6 1 -5 1056.01 271.086 21
6 -1 6 3301.7 457.484 23
-6 1 -6 3566.93 469.156 21
6 -1 7 579.226 185.424 23
-6 1 -7 364.544 112.594 12
-6 1 -7 350.507 144.428 21
6 -1 8 108.615 95.5742 23
-6 1 -8 51.5596 35.7623 12
-6 1 -8 88.0527 44.5661 21
6 -1 9 1464.18 258.112 23
-6 1 -9 1668.83 210.8 12
6 -1 10 1940.13 257.685 23
-6 1 -10 3369.43 337.671 21
6 -1 11 1336.73 183.119 23
-6 1 -11 1981.98 230.387 21
-6 1 -11 1997.26 203.564 18
6 0 -10 49.2263 26.7728 17
6 0 -9 2410.71 246.777 19
6 0 -9 2398.04 239.862 17
6 0 -8 -1.50025 60.5794 19
6 0 -8 29.1676 32.2514 17
6 0 -7 486.419 133.838 19
6 0 -7 345.958 78.8552 17
6 0 -6 6657.3 554.74 19
6 0 -6 6377.8 519.342 17
6 0 -5 4617.86 524.898 23
6 0 -5 3752.97 439.704 19
6 0 -5 4121.56 450.884 17
6 0 -4 1787.73 344.172 23
6 0 -4 1601.56 302.287 19
6 0 -4 1619.96 299.701 17
6 0 -3 6617.96 660.386 23
6 0 -3 5544.62 565.943 19
6 0 -2 4890.88 563.747 23
6 0 -1 8001.33 717.991 23
6 0 0 649.328 194.529 23
-6 0 0 653.281 221.877 18
-6 0 -1 3102.68 451.958 5
6 0 1 4078.88 528.076 23
-6 0 -1 3661.27 517.918 18
6 0 2 26258.2 1273.55 23
-6 0 -2 27785.2 1385.46 18
6 0 3 12529.3 900.488 23
6 0 4 12040 891.463 23
6 0 4 7874.76 554.995 16
-6 0 -5 9262.46 643.258 12
6 0 5 8294.9 602.592 16
6 0 6 297.484 126.876 16
6 0 6 715.257 231.482 23
-6 0 -6 635.767 170.158 12
-6 0 -6 670.965 215.665 21
6 0 7 16286.5 972.83 23
-6 0 -7 15677.6 797.87 12
-6 0 -7 17967.3 1067.88 21
6 0 8 324.887 145.95 23
-6 0 -8 200.293 78.0099 12
-6 0 -8 340.512 139.77 21
6 0 9 1712.7 307.255 23
-6 0 -9 1950.27 255.155 12
-6 0 -9 2395.06 342.733 21
6 0 10 52.831 74.3486 23
-6 0 -10 18.4407 29.8177 12
-6 0 -10 87.5093 56.6597 21
6 0 11 160.435 87.9101 23
-6 0 -11 180.412 67.6985 12
-6 0 -11 209.293 90.6303 21
6 0 12 100.865 63.0087 23
-6 0 -12 48.6045 39.0145 12
-6 0 -12 63.1601 40.1757 21
6 1 -10 653.015 105.137 19
6 1 -10 617.607 96.4238 17
6 1 -9 2617.04 248.533 19
6 1 -9 2330.51 228.697 17
6 1 -8 26.7853 47.0734 19
6 1 -8 147.847 60.8323 17
6 1 -7 1031.9 195.751 19
6 1 -7 900.092 162.406 17
6 1 -6 4848.36 452.16 19
6 1 -6 4886.93 425.04 17
6 1 -5 1188.25 255.791 23
6 1 -5 866.953 200.501 19
6 1 -5 774.349 192.485 17
6 1 -4 4041.56 482.015 23
6 1 -4 3503.07 435.231 19
6 1 -4 2952.68 370.201 17
6 1 -3 11744 818.091 23
6 1 -3 10872.2 765.371 19
6 1 -2 445.754 147.436 13
6 1 -2 693.578 193.622 23
6 1 -1 23510.7 1047.92 13
-6 -1 1 25495 1305.85 6
6 1 0 852.401 194.875 27
6 1 0 1028.96 220.601 13
-6 -1 -1 9500.85 664.643 28
-6 -1 -1 9036.97 769.877 5
6 1 1 7257.7 585.03 27
6 1 2 -70.7733 90.9846 16
-6 -1 -2 229.934 98.9552 28
6 1 2 189.649 83.1993 27
-6 -1 -2 159.356 76.5902 5
6 1 2 365.816 132.725 23
-6 -1 -3 4944.35 463.991 28
-6 -1 -3 5170.69 550.661 5
6 1 3 4401.18 467.305 27
6 1 3 6304.12 597.305 23
6 1 3 4895.08 536.193 4
6 1 3 5076.55 428.828 16
6 1 4 5967.89 547.148 27
6 1 4 8414.79 684.364 23
-6 -1 -4 6010.67 570.125 12
6 1 4 7548.69 508.089 16
-6 -1 -5 40484.9 1450.79 12
6 1 5 42035.6 1230.97 16
6 1 6 197.414 116.75 16
6 1 6 202.585 151.583 23
-6 -1 -6 201.617 118.314 12
6 1 7 13510.9 842.38 23
-6 -1 -7 14337.5 803.746 12
6 1 8 701.724 173.619 16
6 1 8 1038.3 259.369 23
-6 -1 -8 1038.15 209.694 12
6 1 9 4035.34 450.174 23
6 1 9 2940.88 324.512 16
6 1 10 2374.29 332.97 23
-6 -1 -10 3053.87 319.382 12
6 1 11 375.067 125.512 23
-6 -1 -11 376.502 106.18 12
6 1 12 799.2 156.334 23
-6 -1 -12 1026.07 153.485 12
6 1 13 1260.16 160.201 23
-6 -1 -13 1799.34 174.486 12
6 2 -10 12.5262 16.0577 19
6 2 -9 5229.99 327.642 19
6 2 -9 4550.67 293.535 17
6 2 -8 2516.46 255.421 19
6 2 -8 2095.17 225.913 17
6 2 -7 955.509 180.766 19
6 2 -7 900.422 156.341 17
6 2 -6 4772.06 416.093 19
6 2 -6 4676.53 405.45 17
6 2 -5 4988.89 473.39 23
6 2 -5 4890.07 446.757 19
6 2 -5 5182.97 453.405 17
6 2 -4 7565.32 577.988 23
6 2 -4 7208.46 554.912 19
6 2 -3 9604.07 619.688 13
6 2 -3 11804.7 724.664 23
6 2 -3 11292.1 732.001 19
6 2 -2 8897.22 614.54 13
6 2 -2 9407.36 650.808 23
6 2 -1 16632.9 840.499 13
6 2 -1 17876.6 901.765 23
6 2 0 12364.5 732.82 13
6 2 0 12286.1 747.071 23
-6 -2 0 11970.9 892.802 6
-6 -2 -1 596.363 172.748 28
6 2 1 917.662 200.089 23
-6 -2 -1 838.02 238.853 6
-6 -2 -2 14079.7 809.714 28
-6 -2 -2 15171.4 964.122 5
6 2 2 15605.6 843.41 23
6 2 3 342.322 108.431 16
-6 -2 -3 49.7805 57.806 28
-6 -2 -3 282.878 138.854 5
6 2 3 252.785 127.628 23
-6 -2 -4 9784.46 746.824 5
6 2 4 10740.9 704.914 23
6 2 4 9974.28 782.994 3
6 2 4 10608.8 609.217 16
6 2 5 2154.31 336.096 23
-6 -2 -5 1632.58 306.852 12
6 2 5 1882.27 263.542 16
6 2 6 35315.8 1276.01 23
-6 -2 -6 33784 1378.62 12
6 2 6 36059.8 1104.11 16
6 2 7 3372.14 408.152 23
-6 -2 -7 3770.55 449.033 12
6 2 7 3301.58 352.095 16
6 2 8 -9.17783 65.1645 16
6 2 8 144.097 85.3351 23
-6 -2 -8 78.1692 50.8107 12
6 2 9 2144.28 327.836 23
-6 -2 -9 2776.56 350.085 12
6 2 9 1869.17 271.512 16
6 2 10 843.482 173.826 16
6 2 10 1626.99 259.993 23
-6 -2 -10 1431.77 237.783 12
6 2 11 229.006 112.499 23
-6 -2 -11 125.49 69.9184 12
6 2 12 3475.89 315.195 23
-6 -2 -12 5160.76 370.326 12
6 2 13 53.9068 38.6687 23
-6 -2 -13 67.6015 38.6369 12
6 3 -9 2678.67 209.672 19
6 3 -8 3388.5 274.035 19
6 3 -8 2780 237.149 17
6 3 -7 5743.42 393.345 19
6 3 -7 4760.25 346.116 17
6 3 -6 3401.87 333.555 19
6 3 -6 2995.75 298.987 17
6 3 -5 7892.19 531.985 23
6 3 -5 7525.19 517.821 19
6 3 -5 7414.83 505.481 17
6 3 -4 14493.5 736.035 13
6 3 -4 15481.1 757.806 23
6 3 -4 15756.2 762.879 19
6 3 -3 227.763 99.3754 23
6 3 -3 174.624 65.2237 13
6 3 -2 13483.4 714.515 13
6 3 -2 13490.7 718.587 23
6 3 -1 5986.92 483.356 13
6 3 -1 5884.41 476.359 23
6 3 0 5318.09 460.72 23
6 3 0 5719.16 480.527 13
6 3 1 171.937 111.016 1
6 3 1 211.291 46.0634 23
6 3 1 332.838 121.671 13
-6 -3 -1 296.52 152.476 6
-6 -3 -2 37442.2 1408.9 28
-6 -3 -2 35078 1514.43 5
6 3 2 35473.2 1356.74 1
6 3 2 40976.6 1299.98 23
-6 -3 -2 37107.5 1582.95 6
6 3 2 43001.3 1194.13 16
6 3 3 19887.7 910.22 23
6 3 3 21854 956.36 13
6 3 3 21015.1 834.247 16
-6 -3 -4 5492.68 517.376 28
6 3 4 6470.26 524.786 23
6 3 4 5728.67 520.577 13
6 3 4 5765.14 566.336 3
6 3 4 7349.53 495.601 16
6 3 5 21120.1 963.151 23
6 3 5 24911.1 915.079 16
6 3 6 711.881 199.717 23
-6 -3 -6 528.524 180.294 12
6 3 6 1018.02 191.871 16
6 3 7 26393 1085.26 23
-6 -3 -7 27113.8 1266 12
6 3 7 28920.3 971.859 16
6 3 8 372.495 121.454 16
6 3 8 389.799 136.703 23
-6 -3 -8 442.329 160.139 12
6 3 9 1354.99 250.9 23
-6 -3 -9 1729.5 293.296 12
6 3 9 1309.86 214.3 16
6 3 10 432.105 118.673 16
6 3 10 594.155 161.062 23
-6 -3 -10 903.644 201.307 12
6 3 11 111.843 61.9226 16
6 3 11 93.2256 73.2309 23
-6 -3 -11 140.212 81.9136 12
6 3 12 359.785 96.153 16
6 3 12 423.066 109.064 23
-6 -3 -12 661.356 140.328 12
6 3 13 228.726 69.8232 23
-6 -3 -13 367.171 94.5488 12
6 4 -8 475.368 90.9299 19
6 4 -7 1434.09 172.561 19
6 4 -6 19178 840.135 14
6 4 -6 13856.5 589.64 19
6 4 -5 512.153 171.442 14
6 4 -5 572.603 142.851 19
6 4 -5 491.437 142.403 17
6 4 -4 48047.4 1259.97 13
6 4 -4 49694.9 1278.86 23
6 4 -4 51091.3 1282.51 19
6 4 -3 7284.28 493.449 23
6 4 -3 6980.32 498.893 13
6 4 -3 7194.99 500.639 19
6 4 -2 5011.21 496.657 14
6 4 -2 4038.35 373.127 23
6 4 -2 4348.93 396.388 13
6 4 -1 26064.7 962.728 23
6 4 -1 28172.7 1016.93 13
6 4 0 1792.99 251.482 23
6 4 0 1839.54 258.583 13
6 4 1 85.3446 72.9039 23
6 4 1 122.668 67.6556 13
6 4 2 18041.8 816.615 23
6 4 2 19509.9 825.338 16
6 4 3 15534.7 796.376 13
6 4 3 14194.8 695.908 16
6 4 4 5963.5 483.243 23
6 4 4 7758.15 580.907 13
6 4 4 7156.15 489.004 16
6 4 5 12017.2 725.014 13
6 4 5 13756.9 663.714 16
6 4 6 27442.3 1069.17 23
6 4 6 28577.8 1114.2 13
6 4 7 7785.37 573.933 23
6 4 7 9826.22 550.697 16
6 4 8 628.065 150.441 16
6 4 8 505.517 145.312 23
6 4 9 323.409 130.148 16
6 4 9 194.96 86.7794 23
-6 -4 -9 134.275 80.9542 12
6 4 10 197.875 89.0347 16
6 4 10 144.828 80.0245 23
-6 -4 -10 278.628 124.72 12
6 4 11 232.652 80.1243 16
6 4 11 277.25 83.1718 23
6 4 12 -14.4608 29.3146 16
6 4 12 2.48918 50.4376 23
-6 -4 -12 13.3431 35.9096 12
6 4 13 1177.7 149.716 23
6 4 13 1293.16 138.851 16
6 5 -7 7576.36 387.968 14
6 5 -7 5153.65 281.843 19
6 5 -6 3462.09 309.438 14
6 5 -6 2362.01 220.373 19
6 5 -5 96.6098 46.811 14
6 5 -5 28.0547 45.088 19
6 5 -4 1958.89 242.5 13
6 5 -4 2363.03 252.026 19
6 5 -3 2263.11 260.446 23
6 5 -3 2494.72 279.81 13
6 5 -3 2253.79 251.987 19
6 5 -2 8876.29 532.993 23
6 5 -2 9187.36 548.565 13
6 5 -1 21516.7 930.522 14
6 5 -1 18735.1 800.191 13
6 5 0 3086.01 329.289 23
6 5 0 3694.08 353.771 13
6 5 1 10763.2 626.099 23
6 5 1 11885.4 639.385 13
6 5 2 851.343 177.105 13
6 5 2 617.914 152.323 23
6 5 3 10766.3 647.446 23
6 5 3 13444.2 710.881 13
6 5 4 239.571 84.5017 16
6 5 4 82.1197 52.5373 23
6 5 4 141.496 60.5007 13
6 5 5 811.271 166.245 16
6 5 5 889.618 192.525 13
6 5 6 265.289 89.9728 16
6 5 6 119.52 68.7437 13
6 5 7 1684.53 270.682 13
6 5 7 2112.47 258.248 16
6 5 8 657.102 168.048 13
6 5 8 857.139 163.733 16
6 5 9 97.9069 63.0387 16
6 5 10 7530.15 444.439 16
6 5 11 105.557 50.8993 16
6 5 12 102.194 53.2545 16
6 5 13 400.136 75.707 16
6 6 -7 733.72 98.7892 14
6 6 -6 1009.87 139.797 14
6 6 -5 2615.54 255.111 14
6 6 -4 7077.6 462.532 14
6 6 -3 271.299 98.5213 14
6 6 -3 157.826 70.1965 13
6 6 -3 218.447 76.474 19
6 6 -2 213.725 84.7995 14
6 6 -2 100.931 36.112 13
6 6 -2 174.674 67.0967 19
6 6 -1 937.565 173.993 14
6 6 -1 707.032 139.709 13
6 6 0 234.795 80.5728 14
6 6 0 273.677 81.9766 13
6 6 1 3895.8 351.242 13
6 6 2 9994.18 578.082 13
6 6 3 2140.07 269.099 13
6 6 4 101.231 70.1262 13
6 6 5 2995.19 325.968 13
6 6 5 2381.49 277.846 16
6 6 6 353.637 107.448 16
6 6 6 216.247 104.248 13
6 6 7 3229.58 352.254 13
6 6 7 3820.27 315.409 16
6 6 8 499.715 111.732 16
6 6 8 489.935 132.819 13
6 6 9 538.01 129.306 13
6 6 9 847.924 144.573 16
6 6 10 8982.06 448.347 16
6 6 11 318.132 82.7101 16
6 6 12 107.976 46.0039 16
6 7 -5 833.668 118.088 14
6 7 -4 8586.39 409.821 14
6 7 -3 -2.05339 56.4504 14
6 7 -2 1276.95 187.416 14
6 7 -2 883.623 142.438 13
6 7 -1 432.354 119.096 14
6 7 -1 408.359 102.797 13
6 7 0 3215.92 290.874 14
6 7 0 2882.17 270.595 13
6 7 1 2577.66 277.952 14
6 7 1 2688.89 270.364 13
6 7 2 9145.87 508.89 13
6 7 3 4836.12 374.707 13
6 7 4 3324.96 314.933 13
6 7 5 165.908 75.0569 13
6 7 6 2822.58 292.156 13
6 7 7 1268.76 197.776 13
6 7 7 1268.98 175.518 16
6 7 8 544.076 111.233 16
6 7 8 418.987 112.213 13
6 7 9 454.523 103.72 16
6 7 9 417.553 108.48 13
6 7 10 631.169 118.889 13
6 7 10 1031.63 139.965 16
6 7 11 1002.08 126.442 16
6 8 -3 59.5022 38.5779 14
6 8 -2 11.6162 22.2446 14
6 8 -1 7802.57 421.563 14
6 8 0 1181.2 169.041 25
6 8 0 1087.04 153.361 14
6 8 0 882.038 130.213 13
6 8 1 1550.74 202.743 25
6 8 1 1553.13 181.1 14
6 8 1 1340.66 165.179 13
6 8 2 1170.15 180.96 25
6 8 2 1036.92 154.836 14
6 8 2 948.794 144.592 13
6 8 3 1050.76 174.244 25
6 8 3 833.324 131.61 14
6 8 3 973.813 148.112 13
6 8 4 395.785 90.401 14
6 8 4 465.559 98.3336 13
6 8 5 3462.73 283.19 13
6 8 6 102.571 59.0494 13
6 8 7 4715.4 325.395 13
6 8 8 43.8519 34.9083 13
6 8 9 1067.44 142.089 13
6 8 9 1213.7 130.575 16
6 8 10 608.906 95.6871 13
6 9 0 -50.614 34.4168 14
6 9 1 32.848 15.6402 25
6 9 1 -15.3233 37.524 14
6 9 2 59.8497 17.9706 25
6 9 2 117.295 46.6393 14
6 9 2 82.7576 32.0518 13
6 9 3 1019.12 130.254 25
6 9 3 1042.13 131.255 14
6 9 3 1103.48 129.599 13
6 9 4 507.423 91.3015 25
6 9 4 427.282 83.229 14
6 9 4 613.788 97.9205 13
6 9 5 411.73 81.4267 25
6 9 5 515.129 90.4996 13
6 9 6 62.2451 25.582 13
6 9 7 360.734 71.8533 13
6 9 8 292.038 60.7786 13
-7 4 4 311.954 78.1027 15
7 -4 -3 127.136 53.4277 10
-7 4 3 316.278 84.1047 15
-7 4 3 303.16 94.957 24
7 -4 -2 54.8771 45.8459 10
-7 4 2 159.913 60.9451 15
-7 4 2 123.198 55.3836 24
-7 4 2 180.134 62.9751 22
-7 4 1 976.731 140.851 15
-7 4 1 1478.01 200.493 24
-7 4 1 1410.17 175.194 22
7 -4 0 40.8859 37.176 10
-7 4 0 18.6284 23.1807 15
-7 4 0 82.1032 54.0772 24
-7 4 0 37.2741 29.2883 22
-7 4 0 44.5812 73.8711 18
-7 4 -1 465.548 88.3527 15
-7 4 -1 1090.18 163.338 24
-7 4 -2 350.581 92.0765 24
-7 4 -2 276.014 73.1313 20
-7 4 -3 767.437 124.993 24
-7 4 -3 741.338 158.571 21
-7 4 -3 569.455 100.092 20
-7 4 -3 1082.17 200.632 18
-7 4 -4 140.57 47.6838 24
-7 4 -4 209.162 80.8913 21
-7 4 -4 124.098 46.5793 20
-7 4 -4 258.18 90.0691 18
-7 4 -5 1743.99 204.648 21
-7 4 -5 1083.17 115.014 20
-7 3 6 1011.38 133.863 16
-7 3 6 1076.89 151.864 15
7 -3 -5 159.224 58.4546 10
-7 3 5 133.188 63.0919 15
-7 3 4 6538.67 432.814 15
-7 3 4 5824.18 434.341 24
-7 3 3 1129.67 191.915 15
-7 3 3 1250.67 222.694 24
-7 3 3 1008.87 170.024 22
7 -3 -3 788.339 151.843 10
7 -3 -2 200.266 84.8276 10
-7 3 2 61.4926 40.9548 15
-7 3 2 264.91 119.093 24
-7 3 2 111.162 149.679 18
-7 3 1 547.912 121.772 15
-7 3 1 873.414 184.094 24
-7 3 0 -4.21284 54.7739 15
-7 3 0 130.25 71.5868 24
-7 3 0 133.875 62.4939 18
-7 3 -1 261.343 81.4647 15
-7 3 -1 358.795 118.082 24
-7 3 -1 272.442 89.2441 20
-7 3 -1 496.163 192.724 18
-7 3 -2 3856.49 345.196 24
-7 3 -2 4409.81 475.459 21
-7 3 -3 151.49 75.0046 24
-7 3 -3 113.799 70.3667 21
-7 3 -3 119.371 90.8302 18
-7 3 -4 439.759 106.995 24
-7 3 -4 642.154 165.619 21
-7 3 -4 784.674 181.171 18
-7 3 -5 234.178 76.4207 24
-7 3 -5 355.028 123.848 21
-7 3 -5 226.07 76.1783 20
-7 3 -5 362.58 125.793 18
-7 3 -6 1306.85 156.429 24
-7 3 -6 1638.61 230.513 21
-7 3 -6 1287.9 147.402 20
-7 3 -7 21.6871 30.6542 21
-7 3 -7 20.0057 18.776 20
-7 3 -7 9.97844 27.9506 18
-7 2 7 76.8543 59.7646 15
-7 2 6 2679.12 293.277 15
7 -2 -5 180.812 67.5959 10
-7 2 5 196.179 99.7611 15
-7 2 4 1933.3 269.051 15
7 -2 -4 1320.3 187.834 10
-7 2 3 1572.22 244.476 15
-7 2 3 1310.19 254.886 24
-7 2 3 1556.51 380.626 18
7 -2 -3 959.312 169.659 10
-7 2 2 2635.58 303.718 15
-7 2 2 2649.88 369.106 24
7 -2 -2 2198.22 256.382 10
-7 2 1 10313.1 578.429 15
-7 2 1 12381.1 768.916 24
-7 2 0 5247.7 489.105 24
-7 2 0 6594 714.657 18
-7 2 -1 654.643 156.211 15
-7 2 -1 1220.69 286.015 21
-7 2 -1 1663.05 339.134 18
-7 2 -2 585.75 193.237 21
-7 2 -2 824.773 236.189 18
-7 2 -3 529.621 166.994 21
-7 2 -3 669.775 182.694 18
-7 2 -4 51.745 47.6415 21
-7 2 -4 108.161 59.874 18
-7 2 -5 1857.49 304.306 21
-7 2 -5 1562.73 246.349 18
-7 2 -6 2343.73 329.692 21
-7 2 -6 1967.29 267.818 18
-7 2 -7 3272.41 351.24 21
-7 2 -7 3127.56 306.545 18
-7 2 -8 331.828 111.256 21
-7 2 -8 267.286 70.8245 20
-7 2 -8 318.036 96.866 18
-7 2 -9 391.039 95.9531 21
-7 2 -9 205.056 50.0306 20
-7 2 -9 386.848 86.5725 18
-7 1 7 476.701 124.282 15
7 -1 -7 277.157 72.7608 17
7 -1 -6 302.654 96.72 17
7 -1 -5 2098.01 274.642 17
7 -1 -4 558.569 148.4 17
7 -1 -3 5821.5 524.69 17
-7 1 2 10467.2 767.14 24
-7 1 2 13539.6 1183.66 18
7 -1 -2 12420.8 793.177 17
7 -1 -2 11289.9 605.295 10
-7 1 1 8408.56 691.273 24
-7 1 1 9421.63 952.5 18
-7 1 0 3869.43 392.46 15
-7 1 0 5888 716.172 18
-7 1 -1 306.637 128.619 15
-7 1 -1 261.252 128.856 18
-7 1 -2 304.796 143.339 21
-7 1 -2 716.097 214.199 18
-7 1 -3 8793.81 807.181 21
-7 1 -3 10904.1 789.813 18
-7 1 -4 994.211 266.386 21
-7 1 -4 1224.44 255.111 18
-7 1 -5 9285.26 761.703 21
-7 1 -5 9320.56 647.216 18
-7 1 -6 34.0827 51.8079 21
-7 1 -6 50.5402 68.6676 18
-7 1 -7 4677.13 476.353 21
-7 1 -7 4332.54 388.694 18
-7 1 -8 407.542 134.878 21
-7 1 -8 258.909 89.9819 18
-7 1 -9 2962.01 302.994 21
-7 1 -9 3100.91 277.556 18
-7 1 -10 421.826 91.944 18
-7 0 8 180.352 85.838 15
7 0 -8 84.6431 47.6659 17
7 0 -7 -11.4277 42.716 19
7 0 -7 -57.1896 64.753 17
7 0 -6 135.182 61.4143 19
7 0 -6 62.1627 42.7458 17
7 0 -5 7772.24 533.603 19
7 0 -5 7922.87 546.781 17
7 0 -4 3325.6 383.986 17
7 0 -3 192.641 102.369 23
7 0 -3 182.621 100.542 17
7 0 -2 104.882 52.5138 23
7 0 -1 629.195 199.365 23
7 0 0 4474.87 522.92 23
-7 0 0 3494.21 563.291 18
7 0 1 12739.1 877.612 23
-7 0 -1 11953.8 988.109 18
7 0 2 691.546 177.874 23
-7 0 -2 682.512 232.622 18
7 0 3 5567.81 579.378 23
-7 0 -3 6609.93 667.757 18
7 0 4 1084.91 275.119 23
-7 0 -4 1222.79 277.085 18
7 0 5 5749.44 569.966 23
-7 0 -5 6605.39 585.016 18
7 0 6 16260.6 926.523 23
7 0 7 119.39 113.773 23
7 0 8 944.825 197.891 23
7 0 9 1838.66 251.604 23
7 0 10 806.75 152.006 23
-7 0 -10 1575.34 198.148 18
7 0 11 708.982 120.241 23
-7 0 -11 1375.49 162.026 18
7 1 -8 717.509 118.313 19
7 1 -8 620.33 110.149 17
7 1 -7 312.813 91.984 19
7 1 -7 245.536 72.6322 17
7 1 -6 3121.12 321.988 19
7 1 -6 2901.09 298.421 17
7 1 -5 21541.1 915.289 19
7 1 -5 19947.9 853.004 17
7 1 -4 13341.6 801.817 23
7 1 -4 12422.2 748.797 19
7 1 -4 12175.4 715.96 17
7 1 -3 10002.5 711.977 23
7 1 -3 8611.09 662.022 19
7 1 -3 8342.98 637.742 17
7 1 -2 10380.9 752.297 23
7 1 -2 9280.88 720.396 19
7 1 -1 214.752 120.427 23
7 1 0 8292.38 687.617 23
7 1 1 2990.92 407.33 23
7 1 2 3591.32 460.035 23
-7 -1 -2 3414.22 519.668 18
7 1 3 2937.93 414.823 23
-7 -1 -3 3508.29 511.348 18
7 1 4 25.3312 72.1488 23
7 1 5 188.864 121.811 23
7 1 5 126.606 84.4804 16
7 1 6 124.58 103.897 23
7 1 6 96.7962 72.1093 16
7 1 7 2542.48 355.57 23
-7 -1 -7 2917.16 348.318 12
7 1 8 4899.49 459.363 23
-7 -1 -8 4946.59 423.952 12
7 1 9 -42.0985 46.4493 23
-7 -1 -9 8.77975 37.408 12
7 1 10 2315.93 267.966 23
-7 -1 -10 3100.07 284.006 12
7 1 11 502.837 113.046 23
7 1 12 242.755 67.8491 23
-7 -1 -12 564.492 97.6874 18
7 2 -8 1706.3 175.461 19
7 2 -8 1538.51 161.557 17
7 2 -7 1305.46 176.578 19
7 2 -7 1145.26 159.373 17
7 2 -6 1058.88 183.32 19
7 2 -6 896.236 157.909 17
7 2 -5 713.596 169.708 19
7 2 -5 595.781 149.225 17
7 2 -4 38296.4 1255.3 23
7 2 -4 36795.5 1230.87 19
7 2 -4 38589.8 1210.9 17
7 2 -3 1424.91 256.529 23
7 2 -3 1346.55 243.135 19
7 2 -2 8473.84 628.647 23
7 2 -2 9620.72 679.145 19
7 2 -1 19196.8 916.832 13
7 2 -1 20049.7 962.986 23
7 2 0 6365.9 557.749 13
7 2 0 6602.97 565.529 23
7 2 1 237.427 99.2475 23
7 2 1 -15.7951 47.2495 13
7 2 2 4606.77 478.982 13
7 2 2 5100.96 497.108 23
7 2 3 4484.77 463.548 23
7 2 3 4208.44 384.978 16
7 2 4 -4.5939 45.6158 16
7 2 4 24.8889 62.4287 23
7 2 5 172.742 78.9819 16
7 2 5 162.408 91.6154 23
7 2 6 3500.35 414.038 23
7 2 6 3222.47 346.44 16
7 2 7 128.534 79.2514 16
7 2 7 -38.0408 110.184 23
-7 -2 -7 28.9907 50.476 12
7 2 8 1106.52 212.414 23
-7 -2 -8 1411.36 247.329 12
7 2 8 1148.88 200.068 16
7 2 9 289.161 106.375 16
7 2 9 186.033 81.6917 23
-7 -2 -9 335.546 110.257 12
7 2 10 339.893 105.544 16
7 2 10 454.901 129.812 23
7 2 11 -36.5973 64.6551 23
-7 -2 -11 19.5514 33.9225 12
7 2 12 -26.5454 41.3332 23
-7 -2 -12 76.7229 41.4185 12
7 3 -8 3674.17 230.287 19
7 3 -7 -51.5995 53.6883 19
7 3 -7 -50.1568 48.7593 17
7 3 -6 390.508 99.8271 19
7 3 -6 307.027 77.3752 17
7 3 -5 7898.48 485.761 19
7 3 -5 6803.79 435.674 17
7 3 -4 236.031 96.5027 23
7 3 -4 245.288 98.2744 19
7 3 -4 314.863 114.789 17
7 3 -3 1533.41 238.867 23
7 3 -3 1294.82 213.915 19
7 3 -2 4484.82 411.915 13
7 3 -2 4550.65 422.579 23
7 3 -1 20603.5 907.662 13
7 3 -1 19144.3 867.612 23
7 3 0 6882.16 536.056 13
7 3 0 6839.99 513.47 23
7 3 1 6288.11 524.452 13
7 3 1 4792.47 433.837 23
7 3 2 2424.32 330.632 13
7 3 2 1927.2 280.384 23
7 3 2 1926.21 261.043 16
7 3 3 21172.4 992.539 13
7 3 3 19482.5 903.301 23
7 3 3 19454.4 794.925 16
7 3 4 2591.53 331.699 23
7 3 4 2979.84 311.571 16
7 3 5 327.166 109.887 16
7 3 5 336.853 124.768 23
7 3 6 3891.75 403.129 23
7 3 6 3493.47 337.018 16
7 3 7 932.744 205.556 23
-7 -3 -7 1037.67 229.255 12
7 3 7 831.132 169.417 16
7 3 8 224.901 92.6727 16
7 3 8 211.581 59.8862 23
-7 -3 -8 328.564 117.912 12
7 3 9 2635.81 300.303 23
7 3 9 2219.15 257.854 16
7 3 10 143.262 75.7418 16
7 3 10 54.7018 39.5332 23
-7 -3 -10 249.346 100.947 12
7 3 11 161.276 68.22 16
7 3 11 75.4383 42.3844 23
7 3 12 -73.1159 50.6598 23
-7 -3 -12 -17.0999 27.06 12
7 4 -7 539.884 90.1631 19
7 4 -6 6007.17 350.081 19
7 4 -6 4880.32 298.983 17
7 4 -5 9297.56 479.131 19
7 4 -5 8473.04 447.805 17
7 4 -4 23.733 32.3914 23
7 4 -4 39.2629 44.8842 19
7 4 -4 71.6868 35.3403 17
7 4 -3 875.326 165.27 13
7 4 -3 955.976 172.824 23
7 4 -3 1126.24 176.43 19
7 4 -3 1040.43 172.006 17
7 4 -2 427.311 122.078 23
7 4 -2 363.694 116.8 13
7 4 -1 8776.72 546.672 13
7 4 -1 8402.94 539.963 23
7 4 0 876.566 202.904 14
7 4 0 721.981 149.959 23
7 4 0 821.513 168.329 13
7 4 1 2652.43 312.322 23
7 4 1 2943.36 334.263 13
7 4 2 11679.7 656.263 23
7 4 2 14032.1 745.752 13
7 4 3 17394.8 814.935 23
7 4 3 19416.8 796.297 16
7 4 4 452.818 127.995 16
7 4 4 370.023 112.29 23
7 4 4 321.321 119.014 13
7 4 5 1720.39 255.311 23
7 4 5 2142.27 311.95 13
7 4 5 2031.43 245.946 16
7 4 6 1208.04 226.325 23
7 4 6 1523.51 216.686 16
7 4 7 2318.66 298.631 23
7 4 7 3006.65 302.362 16
7 4 8 -21.0806 51.3229 16
7 4 8 -19.2328 38.4616 23
7 4 9 2491.04 272.298 23
7 4 9 3128.81 280.789 16
7 4 10 2028.9 236.389 23
-7 -4 -10 2705.05 301.508 12
7 4 10 2511.66 239.175 16
7 4 11 121.254 58.8398 16
7 4 11 137.659 58.5551 23
-7 -4 -11 131.443 54.6757 12
7 4 12 525.59 101.596 23
-7 -4 -12 685.959 114.148 12
7 4 12 513.119 91.9983 16
7 5 -6 15.6084 24.096 19
7 5 -5 4235.57 283.782 19
7 5 -4 8008.56 500.273 14
7 5 -4 6067.46 371.39 19
7 5 -3 804.756 141.623 13
7 5 -3 970.48 149.337 23
7 5 -3 1004.1 154.766 19
7 5 -3 995.903 156.821 17
7 5 -2 1705.18 258.521 14
7 5 -2 1224.31 177.526 23
7 5 -2 1341.93 196.526 13
7 5 -2 1056.28 163.452 19
7 5 -1 1412.15 242.698 14
7 5 -1 1061.15 174.992 23
7 5 -1 1049.01 180.069 13
7 5 0 2845.93 352.77 14
7 5 0 2311.43 267.798 23
7 5 0 2694.29 297.705 13
7 5 1 57.0828 32.3934 23
7 5 1 69.8242 51.7211 13
7 5 2 5547.87 432.337 23
7 5 2 6930.28 490.381 13
7 5 3 103.872 41.1971 23
7 5 3 319.281 116.766 13
7 5 4 -27.1035 58.3211 16
7 5 4 -75.3629 86.9246 23
7 5 4 59.6445 46.2054 13
7 5 5 121.597 75.6677 16
7 5 5 80.8677 42.3739 23
7 5 5 127.868 81.7007 13
7 5 6 17814.8 822.335 13
7 5 6 18533.2 700.723 16
7 5 7 19.9943 33.2447 16
7 5 7 6.47654 27.8203 23
7 5 7 107.549 72.4139 13
7 5 8 342.614 92.5192 16
7 5 8 237.489 89.3771 23
7 5 9 150.532 71.513 16
7 5 9 151.292 78.7504 23
7 5 10 1440.12 191.607 23
7 5 10 2130.3 209.577 16
7 5 11 183.008 65.0961 16
7 5 12 1558.41 149.212 16
7 6 -5 145.274 52.7897 14
7 6 -4 7328.05 397.594 14
7 6 -4 5734.23 304.694 19
7 6 -3 386.741 100.99 14
7 6 -3 167.52 57.4567 19
7 6 -2 4071.54 306.347 13
7 6 -2 4072.92 297.834 19
7 6 -1 5198.94 361.103 23
7 6 -1 6035.29 389.141 13
7 6 -1 5496.77 364.073 19
7 6 0 9842.27 557.888 14
7 6 0 9222.03 499.207 13
7 6 1 2965.04 314.116 14
7 6 1 3014.83 295.708 13
7 6 2 684.207 146.741 13
7 6 3 3936.49 353.478 13
7 6 4 257.303 96.1036 13
7 6 5 1352.63 217.847 13
7 6 5 1517.25 195.877 16
7 6 6 2222.86 270.355 13
7 6 6 1967.06 216.865 16
7 6 7 2564.89 279.338 13
7 6 7 2456.22 232.88 16
7 6 8 115.741 51.7239 16
7 6 8 54.0657 38.2629 13
7 6 9 1976.71 202.774 16
7 6 10 51.7062 39.3039 16
7 6 11 469.71 83.0866 16
7 7 -4 1712.21 150.857 14
7 7 -3 2210.67 198.197 14
7 7 -2 5793.59 361.992 14
7 7 -2 3957.59 264.503 13
7 7 -1 3589.26 302.506 14
7 7 -1 2536.68 227.043 13
7 7 0 213.45 71.1683 14
7 7 0 173.855 58.1323 13
7 7 0 111.694 49.3804 19
7 7 1 981.477 156.632 14
7 7 1 1017.16 151.963 13
7 7 2 1179.3 174.489 14
7 7 2 1100.88 170.256 13
7 7 3 9401.74 487.73 13
7 7 4 521.001 122.139 13
7 7 5 1182.79 179.101 13
7 7 6 243.275 80.5435 13
7 7 7 743.009 138.279 13
7 7 7 921.181 129.314 16
7 7 8 765.785 131.912 13
7 7 8 944.191 125.876 16
7 7 9 1591.63 170.82 13
7 7 9 2026.03 176.765 16
7 7 10 472.92 81.7109 16
7 8 -2 11.9494 21.5097 14
7 8 -1 1221.21 139.312 14
7 8 0 739.623 116.583 14
7 8 0 528.315 86.531 13
7 8 1 3451.07 257.462 14
7 8 1 2721.75 211.719 13
7 8 2 1036.52 143.375 14
7 8 2 1047.03 140.875 13
7 8 3 4257.9 290.337 14
7 8 3 4357.94 286.681 13
7 8 4 206.386 68.2254 14
7 8 4 169.419 58.5445 13
7 8 5 1636.17 174.021 14
7 8 5 2089.57 200.991 13
7 8 6 1202.22 154.448 13
7 8 7 1142.37 144.5 13
7 8 8 187.643 57.3032 13
-8 3 0 -34.8742 39.6893 24
-8 3 0 4.93413 26.7911 22
8 -3 1 74.0777 36.4331 10
-8 3 -1 27.0621 24.2886 24
-8 3 -1 10.2386 61.5391 18
-8 3 -2 248.007 71.7475 24
-8 3 -2 411.897 117.779 18
-8 3 -3 432.181 84.6803 24
-8 3 -3 559.873 129.179 18
-8 2 3 74.1674 48.1977 15
-8 2 2 231.661 76.3643 15
-8 2 2 253.562 78.1531 24
-8 2 1 1368.45 174.747 15
-8 2 1 1751.95 230.543 24
8 -2 0 44.1603 35.0936 10
-8 2 0 141.191 55.2831 15
-8 2 0 177.274 79.5797 24
-8 2 -1 2434.3 269.493 24
-8 2 -1 4265.83 489.612 18
-8 2 -2 358.355 105.094 24
-8 2 -2 551.574 177.671 18
-8 2 -3 2209.76 236.93 24
-8 2 -3 3140.67 374.545 18
-8 2 -4 871.441 139.727 24
-8 2 -4 1209.03 222.827 18
-8 2 -5 745.069 121.733 24
-8 2 -5 1120.23 191.825 18
-8 2 -6 2238.29 189.366 24
-8 2 -6 1849.28 160.731 20
-8 1 5 1507.4 180.664 15
-8 1 4 2093.86 231.734 15
-8 1 3 243.258 92.5026 15
-8 1 2 78.6616 51.6957 15
-8 1 1 1736.1 227.572 15
-8 1 1 1882.15 269.648 24
-8 1 0 257.731 93.9617 15
-8 1 0 321.992 99.8182 24
-8 1 0 438.322 177.108 18
-8 1 -1 4007.99 396.088 24
-8 1 -1 6093.37 650.449 18
-8 1 -2 2656.27 392.431 18
-8 1 -3 2015.95 323.128 18
-8 1 -4 860.37 201.141 18
-8 1 -5 4.52225 50.2397 18
-8 1 -6 547.926 127.96 18
-8 1 -7 104.024 63.1782 18
-8 1 -8 2649.07 236.148 18
-8 0 5 656.03 136.074 15
8 0 -5 502.244 113.433 17
8 0 -4 13927.8 606.429 17
8 0 -3 1172.96 203.112 17
8 0 -2 89.4472 45.4851 17
8 0 -1 2122.93 303.624 17
-8 0 0 108.872 57.6199 15
-8 0 0 56.0442 35.1318 24
8 0 0 14.4762 60.3 17
8 0 1 1454.39 244.303 23
-8 0 -1 2143.21 387.767 18
8 0 2 2272.57 319.543 23
-8 0 -2 3349.34 472.335 18
8 0 3 252.192 109.57 23
-8 0 -3 401.083 147.396 18
8 0 4 1148.78 212.373 23
-8 0 -4 1377.72 261.938 18
8 0 5 369.886 117.868 23
-8 0 -5 410.303 143.365 18
8 0 6 310.01 102.466 23
-8 0 -6 338.613 115.589 18
8 0 7 1690.69 222.111 23
-8 0 -7 3308.72 324.094 18
8 0 8 441.426 105.356 23
-8 0 -8 989.242 162.433 18
-8 0 -9 762.152 126.373 18
8 1 -6 87.6091 36.8008 17
8 1 -5 3962.2 284.253 19
8 1 -5 4546.99 327.418 17
8 1 -4 467.709 117.974 19
8 1 -4 638.547 146.997 17
8 1 -3 11140.7 634.437 23
8 1 -3 10139 565.156 19
8 1 -3 10081.5 599.708 17
8 1 -2 1919.52 284.258 23
8 1 -2 1960.9 279.603 17
8 1 -1 3277.15 380.323 23
8 1 0 -38.1899 94.147 23
8 1 1 2258.33 320.142 23
8 1 2 474.605 135.636 23
8 1 3 2592.45 350.451 23
-8 -1 -3 3377.01 450.463 18
8 1 4 946.1 209.803 23
-8 -1 -4 1079.48 243.55 18
8 1 5 121.418 101.779 23
-8 -1 -5 185.31 104.158 18
8 1 6 8991.06 596.619 23
-8 -1 -6 13295 771.832 18
8 1 7 763.396 169.554 23
-8 -1 -7 1195.18 214.02 18
8 1 8 422.292 102.732 23
-8 -1 -8 983.843 179.925 18
8 1 9 2197.14 229.05 23
-8 -1 -9 4155.69 324.611 18
8 1 10 7.29836 29.8579 23
-8 -1 -10 -45.5714 41.9476 18
8 2 -6 2256.27 194.278 19
8 2 -6 2075.57 188.212 17
8 2 -5 5936.96 370.212 19
8 2 -5 5658.65 354.511 17
8 2 -4 433.924 117.667 19
8 2 -4 293.315 85.5879 17
8 2 -3 131.969 78.5587 23
8 2 -3 215.976 74.7693 19
8 2 -3 157.047 67.5542 17
8 2 -2 511.683 143.25 23
8 2 -2 209.458 92.4088 19
8 2 -2 307.619 111.389 17
8 2 -1 6450.63 506.627 23
8 2 -1 6639.43 512.971 19
8 2 0 1696.87 261.423 23
8 2 1 -7.26664 95.9016 23
8 2 2 -73.039 134.645 23
8 2 3 3049.3 365.548 23
8 2 4 59.661 48.8389 23
8 2 5 9749.68 631.831 23
-8 -2 -5 11914.2 805.016 18
8 2 6 312.203 137.952 23
-8 -2 -6 156.796 112.882 18
8 2 7 3895.15 371.33 23
8 2 8 974.571 173.867 23
8 2 9 3990.68 328.25 23
8 2 10 374.974 96.3968 23
-8 -2 -10 732.144 131.136 18
8 3 -6 2.36276 28.7801 19
8 3 -5 8554.01 421.468 19
8 3 -5 7521.27 380.566 17
8 3 -4 1155.72 172.84 19
8 3 -4 1109.08 166.158 17
8 3 -3 1667.98 219.494 23
8 3 -3 1932.95 237.992 19
8 3 -3 1686.46 215.654 17
8 3 -2 2893.13 310.345 23
8 3 -2 3014.56 314.877 19
8 3 -1 7206.32 494.79 23
8 3 -1 7780.63 525.921 19
8 3 0 2903.12 330.467 13
8 3 0 3033.38 327.993 23
8 3 1 478.29 130.296 23
8 3 1 487.924 148.411 13
8 3 2 1824.29 273.841 13
8 3 2 2128.95 276.484 23
8 3 3 184.2 47.214 23
8 3 3 181.053 79.4767 13
8 3 4 163.461 48.1943 23
8 3 5 2278.4 288.108 23
8 3 6 13626 683.507 23
8 3 6 12042.1 565.69 16
8 3 7 666.571 131.865 16
8 3 7 548.179 146.279 23
8 3 8 205.023 73.164 16
8 3 8 240.222 90.2714 23
8 3 9 288.95 85.4215 23
8 3 9 168.434 63.1611 16
8 3 10 651.37 123.615 23
8 3 11 18.8406 34.0622 23
8 4 -5 146.579 51.0902 19
8 4 -5 126.531 48.1683 17
8 4 -4 4478.24 302.722 19
8 4 -4 3802.03 270.858 17
8 4 -3 4869.25 349.33 23
8 4 -3 5339.15 361.128 19
8 4 -3 5037.13 343.757 17
8 4 -2 5900.39 394.721 23
8 4 -2 6055.94 413.81 19
8 4 -2 5746.86 398.151 17
8 4 -1 22.0555 31.6415 23
8 4 -1 -14.5795 34.9749 13
8 4 -1 27.8388 50.2508 19
8 4 0 1984.35 252.756 13
8 4 0 1968.84 240.221 23
8 4 1 2480.84 291.254 13
8 4 1 2432.05 278.184 23
8 4 2 3735.59 359.851 13
8 4 2 3430.97 336.386 23
8 4 3 153.051 77.3255 23
8 4 3 265.858 100.796 13
8 4 4 262.596 89.7049 23
8 4 4 385.756 123.054 13
8 4 5 153.52 75.8582 16
8 4 5 171.343 74.4443 23
8 4 6 5538.99 414.217 23
8 4 6 6042.54 371.733 16
8 4 7 175.721 60.6707 16
8 4 7 147.955 69.0714 23
8 4 8 49.6288 32.142 16
8 4 8 132.8 66.2235 23
8 4 9 2951.1 264.043 23
8 4 9 3108.28 246.61 16
8 4 10 490.517 92.8506 16
8 4 10 503.173 99.9272 23
8 5 -4 73.7059 46.7682 19
8 5 -3 3296.64 254.539 19
8 5 -3 2724.21 216.341 17
8 5 -2 4241.03 302.405 23
8 5 -2 4528.47 318.785 19
8 5 -2 4257.43 305.513 17
8 5 -1 3589.7 341.862 14
8 5 -1 2914.63 272.619 13
8 5 -1 2797.76 253.435 23
8 5 -1 2895.56 275.335 19
8 5 0 343.407 100.014 14
8 5 0 294.269 76.1617 23
8 5 0 390.929 103.122 13
8 5 1 234.849 95.5064 14
8 5 1 95.5939 29.8615 23
8 5 1 168.285 74.9934 13
8 5 2 6809.97 495.186 14
8 5 2 7080.35 464.385 13
8 5 2 5462.44 375.821 23
8 5 3 5686.46 389.087 23
8 5 3 8547.16 508.578 13
8 5 4 747.019 160.696 13
8 5 4 563.634 120.88 23
8 5 5 329.572 94.4772 16
8 5 5 485.657 116.874 23
8 5 5 402.728 119.48 13
8 5 6 278.131 82.6966 16
8 5 6 244.93 78.7955 23
8 5 6 343.343 103.756 13
8 5 7 24.9611 29.2659 16
8 5 7 -49.3661 50.5579 23
8 5 8 2.93965 26.5343 16
8 5 8 78.6279 34.1561 23
8 5 9 2331.19 215.714 23
8 5 9 3129.79 229.623 16
8 5 10 1055.82 124.757 16
8 6 -3 2202.85 166.794 19
8 6 -2 121.201 43.6066 14
8 6 -2 156.896 52.9903 19
8 6 -1 5176.59 324.25 13
8 6 -1 4512.97 293.598 19
8 6 0 471.362 109.567 14
8 6 0 369.003 78.938 23
8 6 0 489.111 103.61 13
8 6 0 388.23 91.5442 19
8 6 1 6055.97 412.295 14
8 6 1 5328.51 353.62 13
8 6 2 203.71 87.7451 14
8 6 2 9.47453 29.6679 23
8 6 2 227.62 88.3848 13
8 6 3 9321.43 506.167 14
8 6 3 10576.1 515.54 13
8 6 4 83.0374 62.0302 13
8 6 5 5957.01 391.212 13
8 6 6 3795.11 302.83 13
8 6 6 3991.8 270.712 16
8 6 7 2985.01 250.634 13
8 6 7 3112.78 235.335 16
8 6 8 161.131 47.9623 16
8 6 9 631.825 95.3215 16
8 6 10 49.3101 26.6421 16
8 7 -1 2568.16 202.873 14
8 7 0 1106.31 132.764 13
8 7 0 869.566 109.898 19
8 7 1 423.219 93.5605 14
8 7 1 296.158 68.1759 13
8 7 1 247.392 62.5918 19
8 7 2 2355.24 226.843 14
8 7 2 2240.18 204.805 13
8 7 3 42.8598 41.3724 14
8 7 3 31.5152 22.5784 13
8 7 4 658.813 123.076 14
8 7 4 635.274 114.442 13
8 7 5 2987.6 242.337 13
8 7 6 11366.1 458.001 13
8 7 7 452.341 87.3089 13
8 8 2 3535.43 228.43 14
8 8 3 2685.88 196.902 14
8 8 3 2965.37 196.772 13
8 8 4 17.4375 22.9704 14
8 8 4 40.6412 21.2202 13
8 8 5 147.76 40.3849 14
8 8 5 200.815 51.2225 13
-9 0 -2 562.364 113.845 24
-9 0 -3 841.095 138.274 24
-9 0 -3 1215.61 211.974 18
-9 0 -4 1044.75 192.227 18
-9 0 -5 5509.77 399.646 18
9 1 -2 89.7243 46.5108 17
9 1 -1 1709.74 194.642 23
9 1 -1 1979.18 218.653 17
9 1 0 769.436 134.587 23
9 1 0 611.342 129.715 17
9 1 1 559.119 121.229 23
9 1 1 463.345 116.667 17
9 1 2 66.6332 29.6163 23
9 1 3 403.992 100.056 23
9 1 4 594.493 122.917 23
9 1 5 2652.3 246.852 23
-9 -1 -5 4322.07 380.126 18
9 1 6 4165.63 287.821 23
-9 -1 -6 7255.14 456.398 18
-9 -1 -7 3028.44 268.249 18
9 2 -3 1551.15 165.22 17
9 2 -2 2517.05 232.753 23
9 2 -2 2719.69 239.006 17
9 2 -1 242.021 77.3743 23
9 2 -1 330.228 98.1715 17
9 2 0 405.759 108.219 23
9 2 0 363.658 113.137 17
9 2 1 2210.72 250.246 23
9 2 2 2510.44 267.299 23
9 2 3 63.9997 55.9514 23
9 2 4 91.4646 51.381 23
9 2 5 328.389 98.5105 23
9 2 6 1037.47 157.013 23
9 2 7 11.3722 35.5642 23
-9 -2 -7 11.4492 28.5256 18
9 2 8 925.714 125.274 23
9 3 -3 1675.76 162.286 17
9 3 -2 5316.56 331.917 23
9 3 -2 4929.3 307.049 19
9 3 -2 4871.08 316.708 17
9 3 -1 536.768 112.025 23
9 3 -1 404.77 96.7864 19
9 3 -1 599.028 127.578 17
9 3 0 1824.64 209.961 23
9 3 0 1713.44 201.354 19
9 3 1 30.1806 42.323 23
9 3 1 179.215 69.7006 19
9 3 2 14427.8 621.237 23
9 3 2 12100.1 576.829 19
9 3 3 140.843 74.1226 23
9 3 4 -72.0006 87.8031 23
9 3 5 1990.55 221.765 23
9 3 6 550.972 113.565 23
9 3 7 836.31 130.642 23
9 3 8 65.9659 35.3585 23
9 4 -2 687.026 110.165 19
9 4 -2 655.301 103.739 17
9 4 -1 5971.83 342.09 23
9 4 -1 6245.7 353.724 19
9 4 -1 6295.15 353.881 17
9 4 0 626.62 115.579 23
9 4 0 723.686 138.024 19
9 4 1 1179.87 164.169 23
9 4 1 1095.53 175.186 19
9 4 2 657.134 123.014 23
9 4 3 827.448 143.856 23
9 4 4 648.554 128.846 23
9 4 5 9300.35 459.339 23
9 4 6 210.058 76.2083 23
9 4 7 1903.97 191.573 23
9 4 8 186.638 55.2715 23
9 5 -1 5892.58 302.018 19
9 5 0 50.7128 33.8172 23
9 5 0 7.09234 23.2182 19
9 5 0 25.7091 32.3886 17
9 5 1 136.247 48.5836 23
9 5 1 204.568 62.2105 19
9 5 2 5614.23 343.813 13
9 5 2 4826.88 305.122 23
9 5 3 337.718 74.1602 23
9 5 3 355.9 88.7166 13
9 5 4 271.725 66.9798 23
9 5 4 384.66 88.8821 13
9 5 5 1262.53 159.389 14
9 5 5 1744.32 180.162 23
9 5 6 2581.94 212.699 23
9 5 7 -3.79364 21.0846 23
9 6 1 1940.93 169.849 19
9 6 2 6394.36 321.242 13
9 6 2 5318.06 296.352 19
9 6 3 126.631 44.0112 13
9 6 4 -26.177 20.1018 14
9 6 4 33.4367 21.4272 13
9 6 5 326.942 70.6604 14
