#------------------------------------------------------------------------------
#$Date: 2019-10-28 05:07:02 +0200 (Mon, 28 Oct 2019) $
#$Revision: 219657 $
#$URL: file:///home/coder/svn-repositories/cod/cif/4/51/44/4514468.cif $
#------------------------------------------------------------------------------
#
# This file is available in the Crystallography Open Database (COD),
# http://www.crystallography.net/
#
# All data on this site have been placed in the public domain by the
# contributors.
#
data_4514468
loop_
_publ_author_name
'Wang, Chun-Yun'
'Takeda, Takashi'
'Melvin Ten Kate, Otmar'
'Funahashi, Shiro'
'Xie, Rong-Jun'
'Takahashi, Kohsei'
'Hirosaki, Naoto'
_publ_section_title
;
 New Deep-Blue-Emitting Ce-Doped A<sub>4-<i>m</i></sub>B<sub> <i>n</i>
 </sub>C<sub>19+2<i>m</i></sub>X<sub>29+<i>m</i></sub> (A = Sr, La; B =
 Li; C = Si, Al; X = O, N; 0 &#x2264; <i>m</i> &#x2264; 1; 0 &#x2264;
 <i>n</i> &#x2264; 1) Phosphors for High-Color-Rendering Warm White
 Light-Emitting Diodes.
;
_journal_issue                   32
_journal_name_full               'ACS applied materials &amp; interfaces'
_journal_page_first              29047
_journal_page_last               29055
_journal_paper_doi               10.1021/acsami.9b09982
_journal_volume                  11
_journal_year                    2019
_chemical_absolute_configuration unk
_chemical_formula_sum            'Al6.03 Eu3.6 Li N22.59 O6.82 Si13.78'
_chemical_formula_weight         1528.66
_space_group_IT_number           156
_space_group_name_Hall           'P 3 -2"'
_space_group_name_H-M_alt        'P 3 m 1'
_symmetry_cell_setting           trigonal
_symmetry_space_group_name_Hall  'P 3 -2"'
_symmetry_space_group_name_H-M   'P 3 m 1'
_audit_creation_date             2019-03-18T14:57:56-00:00
_audit_creation_method           'WinGX routine CIF_UPDATE'
_cell_angle_alpha                90
_cell_angle_beta                 90
_cell_angle_gamma                120
_cell_formula_units_Z            1
_cell_length_a                   12.12130(11)
_cell_length_b                   12.12130(11)
_cell_length_c                   4.89283(5)
_cell_measurement_reflns_used    9578
_cell_measurement_temperature    293(2)
_cell_measurement_theta_max      38.799
_cell_measurement_theta_min      3.882
_cell_volume                     622.571(10)
_computing_cell_refinement       'APEX2 (Bruker AXS, 2009)'
_computing_data_collection       'APEX2 (Bruker AXS, 2009)'
_computing_data_reduction        'SAINT (Bruker AXS, 2009)'
_computing_molecular_graphics    'VESTA (Momma and Izumi, 2011)'
_computing_structure_refinement  'SHELXL-2013 (Sheldrick, 2013)'
_computing_structure_solution    'SHELXS-97 (Sheldrick, 2008)'
_diffrn_ambient_temperature      293(2)
_diffrn_detector_area_resol_mean 8.333
_diffrn_measured_fraction_theta_full 0.998
_diffrn_measured_fraction_theta_max 0.991
_diffrn_measurement_device_type  'Bruker APEXII CCD area detector'
_diffrn_measurement_method       'omega scans'
_diffrn_radiation_monochromator  'Bruker Helios multilayer confocal mirror'
_diffrn_radiation_source         'Bruker TXS fine-focus rotating anode'
_diffrn_radiation_type           MoK\a
_diffrn_radiation_wavelength     0.71073
_diffrn_reflns_av_R_equivalents  0.0215
_diffrn_reflns_Laue_measured_fraction_full 0.998
_diffrn_reflns_Laue_measured_fraction_max 0.991
_diffrn_reflns_limit_h_max       19
_diffrn_reflns_limit_h_min       -19
_diffrn_reflns_limit_k_max       19
_diffrn_reflns_limit_k_min       -17
_diffrn_reflns_limit_l_max       7
_diffrn_reflns_limit_l_min       -7
_diffrn_reflns_number            26188
_diffrn_reflns_point_group_measured_fraction_full 0.997
_diffrn_reflns_point_group_measured_fraction_max 0.989
_diffrn_reflns_theta_full        25.242
_diffrn_reflns_theta_max         35.101
_diffrn_reflns_theta_min         1.94
_exptl_absorpt_coefficient_mu    9.909
_exptl_absorpt_correction_T_max  0.888
_exptl_absorpt_correction_T_min  0.867
_exptl_absorpt_correction_type   multi-scan
_exptl_absorpt_process_details
;
SADABS Sheldrick 2001
;
_exptl_crystal_colour            'clear brown'
_exptl_crystal_density_diffrn    4.077
_exptl_crystal_description       columnar
_exptl_crystal_F_000             713.5
_exptl_crystal_size_max          0.094
_exptl_crystal_size_mid          0.012
_exptl_crystal_size_min          0.012
_refine_diff_density_max         2.482
_refine_diff_density_min         -0.9
_refine_diff_density_rms         0.14
_refine_ls_abs_structure_details
;
 Flack x determined using 994 quotients [(I+)-(I-)]/[(I+)+(I-)]
 (Parsons and Flack (2004), Acta Cryst. A60, s61).
;
_refine_ls_abs_structure_Flack   0.008(2)
_refine_ls_extinction_method     none
_refine_ls_goodness_of_fit_ref   1.118
_refine_ls_hydrogen_treatment    undef
_refine_ls_matrix_type           full
_refine_ls_number_parameters     112
_refine_ls_number_reflns         2019
_refine_ls_number_restraints     2
_refine_ls_restrained_S_all      1.118
_refine_ls_R_factor_all          0.0151
_refine_ls_R_factor_gt           0.0151
_refine_ls_shift/su_max          0.002
_refine_ls_shift/su_mean         0
_refine_ls_structure_factor_coef Fsqd
_refine_ls_weighting_details
;
 w=1/[\s^2^(Fo^2^)+(0.0201P)^2^+0.4788P]
 where P=(Fo^2^+2Fc^2^)/3
;
_refine_ls_weighting_scheme      calc
_refine_ls_wR_factor_ref         0.0367
_reflns_number_gt                2014
_reflns_number_total             2019
_reflns_threshold_expression     'I > 2\s(I)'
_iucr_refine_instructions_details
;
TITL 6367010302_p-3 in P 3 m 1
CELL  0.71073  12.1220  12.1220   4.8930   90.000   90.000  120.000
ZERR     1.00   0.0000   0.0000   0.0000    0.000    0.000    0.000
LATT  -1
SYMM  - Y,   X - Y,   Z
SYMM  - X + Y, - X,   Z
SYMM  - X + Y,   Y,   Z
SYMM    X,   X - Y,   Z
SYMM  - Y, - X,   Z
SFAC  N    SI   Eu   LI   O    AL   Ce
UNIT  24   15    3    0    0    0    0
MERG   2
TWIN   -1.00 0.00 0.00 0.00 -1.00 0.00 0.00 0.00 1.00
EXYZ Si6 al6
EXYZ Si7 Al7
EADP Si6 Si7 Al6 Al7
EXYZ Eu3 O10 N10
EADP Eu3 O10 N10
EXYZ si1 al1
EADP si1 al1
EXYZ si2 al2
EADP si2 al2
EXYZ si3 al3
EADP si3 al3
EXYZ si4 al4
EADP si4 al4
EXYZ si5 al5
EADP si5 al5
EXYZ N1 O1
EADP N1 O1
EXYZ N2 O2
EADP N2 O2
EXYZ N3 O3
EADP N3 O3
EXYZ N4 O4
EADP N4 O4
EXYZ N5 O5
EADP N5 O5
EXYZ N6 O6
EADP N6 O6
EXYZ N7 O7
EADP N7 O7
EXYZ N8 O8
EADP N8 O8
EXYZ N9 O9
EADP N9 O9
SUMP 1.0 0.00001 1.0 2 1.0 3 1.0 4
FMAP   2
PLAN   25
ACTA
BOND
L.S.  50
WGHT    0.020100    0.478800
BASF   0.47258
FVAR       0.09964   0.13814   0.45798   0.40387   1.00000
EU1   3    0.554007    0.108014    0.324094    10.50000    0.01190    0.01327 =
         0.02897   -0.00073   -0.00037    0.00663
EU2   3    1.000000    0.000000    0.676547    10.02302    0.02053    0.02053 =
         0.04989    0.00000    0.00000    0.01026
EU3   3    1.000000    0.000000    0.803684    10.07633    0.08956    0.08956 =
         0.03714    0.00000    0.00000    0.04478
LI1   4    0.333333    0.666667    0.836353    10.16667    0.01005    0.01005 =
         0.01249    0.00000    0.00000    0.00502
SI1   2    0.589272    0.919892    0.808025    10.69562    0.00463    0.00495 =
         0.00382    0.00035    0.00060    0.00202
AL1   6    0.589272    0.919892    0.808025    10.30438    0.00463    0.00495 =
         0.00382    0.00035    0.00060    0.00202
SI2   2    0.507133    0.753567    0.318742    10.34781    0.00766    0.00812 =
         0.00860   -0.00032   -0.00064    0.00383
AL2   6    0.507133    0.753567    0.318742    10.15219    0.00766    0.00812 =
         0.00860   -0.00032   -0.00064    0.00383
SI3   2    0.756045    0.002123    0.297632    10.69562    0.00416    0.00450 =
         0.00400   -0.00021   -0.00012    0.00164
AL3   6    0.756045    0.002123    0.297632    10.30438    0.00416    0.00450 =
         0.00400   -0.00021   -0.00012    0.00164
SI4   2    0.819935    0.180065    0.787670    10.34781    0.00541    0.00541 =
         0.00537   -0.00047    0.00047    0.00232
AL4   6    0.819935    0.180065    0.787670    10.15219    0.00541    0.00541 =
         0.00537   -0.00047    0.00047    0.00232
SI5   2    0.666667    0.333333    0.825645    10.11594    0.00967    0.00967 =
         0.01956    0.00000    0.00000    0.00484
AL5   6    0.666667    0.333333    0.825645    10.05073    0.00967    0.00967 =
         0.01956    0.00000    0.00000    0.00484
SI6   2    1.000000    0.000000    0.144937    10.04682    0.00857    0.00857 =
         0.00748    0.00000    0.00000    0.00428
AL6   6    1.000000    0.000000    0.144937    10.02049    0.00857    0.00857 =
         0.00748    0.00000    0.00000    0.00428
SI7   2    1.000000    0.000000    0.456941    10.04682    0.00857    0.00857 =
         0.00748    0.00000    0.00000    0.00428
AL7   6    1.000000    0.000000    0.456941    10.02049    0.00857    0.00857 =
         0.00748    0.00000    0.00000    0.00428
N1    1    0.854063    0.145937    0.456612    10.38407    0.00903    0.00903 =
         0.01388   -0.00285    0.00285   -0.00441
O1    5    0.854063    0.145937    0.456612    10.11593    0.00903    0.00903 =
         0.01388   -0.00285    0.00285   -0.00441
N2    1    0.606420    0.921856    0.455191    10.76814    0.00947    0.01044 =
         0.00870   -0.00035    0.00000    0.00403
O2    5    0.606420    0.921856    0.455191    10.23186    0.00947    0.01044 =
         0.00870   -0.00035    0.00000    0.00403
N3    1    0.837826    0.918913    0.296498    10.38407    0.01235    0.00956 =
         0.01947    0.00000    0.00000    0.00617
O3    5    0.837826    0.918913    0.296498    10.11593    0.01235    0.00956 =
         0.01947    0.00000    0.00000    0.00617
N4    1    0.333333    0.666667    0.395617    10.12802    0.01354    0.01354 =
         0.00891    0.00000    0.00000    0.00677
O4    5    0.333333    0.666667    0.395617    10.03864    0.01354    0.01354 =
         0.00891    0.00000    0.00000    0.00677
N5    1    0.536987    0.768493    0.943146    10.38407    0.01159    0.01067 =
         0.00919    0.00020    0.00040    0.00580
O5    5    0.536987    0.768493    0.943146    10.11593    0.01159    0.01067 =
         0.00919    0.00020    0.00040    0.00580
N6    1    0.481261    0.962523    0.877857    10.38407    0.00655    0.01095 =
         0.00848   -0.00298   -0.00149    0.00548
O6    5    0.481261    0.962523    0.877857    10.11593    0.00655    0.01095 =
         0.00848   -0.00298   -0.00149    0.00548
N7    1    0.727852    0.036660    0.965486    10.76814    0.01319    0.01235 =
         0.00724    0.00144   -0.00336    0.00000
O7    5    0.727852    0.036660    0.965486    10.23186    0.01319    0.01235 =
         0.00724    0.00144   -0.00336    0.00000
N8    1    0.666667    0.333333    0.160895    10.12802    0.02718    0.02718 =
         0.01104    0.00000    0.00000    0.01359
O8    5    0.666667    0.333333    0.160895    10.03864    0.02718    0.02718 =
         0.01104    0.00000    0.00000    0.01359
N9    1    0.740449    0.259551    0.710329    10.38407    0.01403    0.01403 =
         0.03057    0.00116   -0.00116    0.00928
O9    5    0.740449    0.259551    0.710329    10.11593    0.01403    0.01403 =
         0.03057    0.00116   -0.00116    0.00928
N10   1    1.000000    0.000000    0.803684    10.05170    0.08956    0.08956 =
         0.03714    0.00000    0.00000    0.04478
O10   5    1.000000    0.000000    0.803684    10.01561    0.08956    0.08956 =
         0.03714    0.00000    0.00000    0.04478
HKLF    4
 
REM  6367010302_p-3 in P 3 m 1
REM R1 =  0.0151 for    2014 Fo > 4sig(Fo)  and  0.0151 for all    2019 data
REM    112 parameters refined using      2 restraints
 
END
 
WGHT      0.0202      0.4792
 
REM Highest difference peak  2.482,  deepest hole -0.900,  1-sigma level  0.140
Q1    1   0.5598  0.1197  0.1805  10.50000  0.05    2.48
Q2    1   0.5590  0.1180  0.4722  10.50000  0.05    2.11
Q3    1   0.6667  0.3333  0.6596  10.16667  0.05    0.91
Q4    1   1.0000  0.0000  0.9194  10.16667  0.05    0.80
Q5    1   0.6667  0.3333  0.0051  10.16667  0.05    0.77
Q6    1   0.9643 -0.0714  0.8036  10.50000  0.05    0.56
Q7    1   0.5185  0.7592  0.1738  10.50000  0.05    0.52
Q8    1   0.7043  0.4086  0.8106  10.50000  0.05    0.52
Q9    1   0.8246  0.1754  0.6187  10.50000  0.05    0.52
Q10   1   0.4990  0.9979  0.7015  10.50000  0.05    0.47
Q11   1   0.5889  0.9233  0.6747  11.00000  0.05    0.45
Q12   1   0.8229  0.1771  0.9113  10.50000  0.05    0.45
Q13   1   0.4691  0.9382  0.7393  10.50000  0.05    0.45
Q14   1   0.5389  0.7694  0.4749  10.50000  0.05    0.44
Q15   1   0.7491 -0.0006  0.4322  11.00000  0.05    0.44
Q16   1   0.8685  0.1315  0.5938  10.50000  0.05    0.44
Q17   1   0.5980  0.9190  0.9403  11.00000  0.05    0.41
Q18   1   0.5508  0.1017  0.0190  10.50000  0.05    0.40
Q19   1   0.7423  0.2577  0.8926  10.50000  0.05    0.39
Q20   1   0.7551  0.0111  0.1388  11.00000  0.05    0.38
Q21   1   0.3333  0.6667  0.6932  10.16667  0.05    0.37
Q22   1   0.7425 -0.0738  0.5169  11.00000  0.05    0.36
Q23   1   0.5389  0.7694  1.0662  10.50000  0.05    0.35
Q24   1   0.8311  0.1689  1.0599  10.50000  0.05    0.35
Q25   1   0.4316  0.8633  1.1750  10.50000  0.05    0.35
;
_cod_data_source_file            am9b09982_si_001.cif
_cod_data_source_block           6367010302_p3m1
_cod_original_cell_volume        622.571(11)
_cod_original_formula_sum        'Al6.03 Eu3.60 Li N22.59 O6.82 Si13.78'
_cod_database_code               4514468
_iucr_refine_reflections_details
;
   1   0   0   33.18    0.97
  -1   1   0   34.19    0.96
   0  -1   0   34.68    0.87
   0  -1   0   34.19    1.03
   0   1   0   32.38    1.04
   1  -1   0   34.76    0.99
  -1   0   0   34.94    0.97
  -1   0   0   34.86    0.87
   1   1   0    0.38    0.09
  -2   1   0    0.14    0.07
  -1  -1   0    0.39    0.07
   2  -1   0    0.45    0.08
  -1   2   0    0.35    0.07
  -1   2   0    0.37    0.07
   2   0   0   76.10    2.16
  -2   2   0   74.89    2.14
   0  -2   0   77.02    2.02
   2  -2   0   77.56    2.19
   0   2   0   76.39    2.21
  -2   0   0   77.24    2.02
   1   2   0   14.98    0.57
   2  -3   0   15.56    0.52
  -1  -2   0   15.45    0.50
   2   1   0   15.43    0.59
  -2  -1   0   16.44    0.49
  -1   3   0   15.63    0.55
   3  -2   0   15.74    0.54
   0  -3   0  236.43    6.41
   3   0   0  246.60    7.01
   3   0   0  243.09    5.28
   0   3   0  218.43    6.96
   3  -3   0  237.06    6.78
  -3   0   0  239.23    6.13
   1   3   0  107.03    3.13
   3  -4   0  112.39    2.31
   3  -4   0  109.45    3.15
  -1  -3   0  110.06    2.83
   4  -1   0  111.90    2.34
   4  -1   0  115.45    3.16
   2   2   0   14.91    0.63
  -2   4   0   15.28    0.56
   4  -2   0   15.57    0.48
   4  -2   0   14.88    0.59
  -2  -2   0   15.80    0.54
   3   1   0  114.95    3.21
   3   1   0  112.17    2.33
  -3  -1   0  113.03    2.82
   4  -3   0  111.09    2.36
  -1   4   0  111.96    3.38
   4  -3   0  110.81    3.11
   0  -4   0  369.49   10.23
   4   0   0  395.89    8.32
   4   0   0  351.44   11.30
   4  -4   0  383.39   10.84
  -4   0   0  388.88    9.79
   0   4   0  374.58   10.99
   4  -4   0  394.29    8.15
   1   4   0   29.13    0.75
   4  -5   0   29.56    0.96
   4  -5   0   30.64    0.78
  -5   1   0   30.39    0.76
   1   4   0   29.89    1.06
   1   4   0   30.18    0.72
   5  -1   0   28.40    1.06
  -1  -4   0   28.96    0.94
   5  -1   0   29.50    0.79
  -4   5   0   30.26    0.77
  -5   2   0   96.04    2.00
   3  -5   0   98.36    2.05
   2   3   0   97.03    2.02
  -5   2   0   97.89    2.07
   2   3   0   98.24    2.85
   5  -2   0   96.63    2.10
   5  -2   0   96.19    2.78
  -2  -3   0   95.07    2.51
  -3   5   0   94.24    2.71
   2  -5   0   99.75    2.05
   3   2   0   98.32    2.07
   3   2   0  100.82    2.90
  -5   3   0   98.75    2.11
  -2   5   0   97.66    2.04
  -3  -2   0   96.63    2.53
  -3  -2   0   96.09    2.04
  -2   5   0   98.23    2.78
   5  -3   0   96.82    2.79
   5  -3   0   98.68    2.13
   4   1   0   29.59    0.77
   4   1   0   30.43    1.10
  -5   4   0   30.49    0.79
   4   1   0   29.78    0.76
  -1   5   0   28.55    0.76
   5  -4   0   29.45    0.98
  -4  -1   0   30.01    0.89
  -1   5   0   29.98    0.72
  -4  -1   0   30.41    0.77
   5  -4   0   30.32    0.80
  -1   5   0   30.61    1.04
   5   0   0   42.98    1.03
   5   0   0   43.84    1.07
   5   0   0   42.86    1.48
   0  -5   0   43.43    1.33
  -5   5   0   43.79    1.07
  -5   0   0   44.53    1.23
   0   5   0   43.30    1.05
   0   5   0   42.98    1.43
   5  -5   0   44.16    1.35
   5  -5   0   45.53    1.09
   0   5   0   43.17    0.99
  -6   1   0  142.28    3.51
   5  -6   0  141.44    3.87
   1   5   0  139.30    2.85
   1   5   0  137.12    2.81
  -6   1   0  142.38    2.93
   1   5   0  138.96    4.00
  -6   1   0  142.38    2.87
   1   5   0  135.00    2.87
   5  -6   0  139.94    2.94
  -1  -5   0  141.16    2.82
  -1  -5   0  137.47    3.61
   6  -1   0  138.37    2.83
  -5   6   0  135.54    2.78
   6  -1   0  128.93    4.01
   6  -1   0  141.02    2.97
  -5   6   0  139.34    2.93
   6  -1   0  139.68    2.80
   2   4   0   56.23    1.30
   4  -6   0   56.74    1.33
   2   4   0   58.45    1.88
   4  -6   0   59.01    1.75
   2   4   0   56.68    1.32
   2   4   0   57.27    1.29
  -6   2   0   58.34    1.36
   4  -6   0   56.54    1.26
  -6   2   0   57.77    1.32
  -2  -4   0   57.56    1.65
  -4   6   0   57.77    1.34
  -4   6   0   59.12    1.74
   6  -2   0   57.55    1.29
   6  -2   0   58.77    1.39
   6  -2   0   57.85    1.83
  -4   6   0   57.81    1.30
  -2  -4   0   57.97    1.30
  -6   3   0  308.87    6.27
   3  -6   0  310.13    6.43
   3   3   0  312.55    6.41
   3   3   0  298.03    9.07
   3   3   0  288.38    6.00
   3   3   0  301.61    6.07
  -6   3   0  307.44    6.37
  -3   6   0  306.44    6.10
  -3   6   0  307.51    6.42
  -3  -3   0  308.71    8.13
  -3  -3   0  305.52    6.40
   6  -3   0  298.49    8.80
   6  -3   0  310.25    6.49
  -3   6   0  296.50    6.11
  -3   6   0  308.39    8.81
  -6   4   0   58.16    1.29
   4   2   0   57.44    1.33
   2  -6   0   56.32    1.29
   4   2   0   58.58    1.34
   4   2   0   62.39    1.93
   4   2   0   56.16    1.30
  -6   4   0   58.68    1.38
  -4  -2   0   57.19    1.33
  -2   6   0   58.42    1.29
  -2   6   0   56.69    1.78
   6  -4   0   59.25    1.40
   6  -4   0   57.94    1.77
  -2   6   0   55.94    1.29
  -4  -2   0   58.19    1.61
  -2   6   0   56.28    1.32
   5   1   0  136.72    2.87
   5   1   0  140.15    2.98
   5   1   0  146.92    4.12
  -6   5   0  139.45    2.83
   1  -6   0  139.78    2.90
   6  -5   0  139.47    3.93
   6  -5   0  139.07    3.01
  -5  -1   0  142.39    2.93
   6  -5   0  142.19    2.84
  -1   6   0  142.71    2.90
  -5  -1   0  141.39    3.56
   6  -5   0  143.46    2.84
  -1   6   0  138.49    2.81
  -1   6   0  141.16    2.82
  -1   6   0  139.46    2.92
  -1   6   0  140.30    4.00
   6   0   0  137.08    2.85
  -6   6   0  140.56    2.79
  -6   6   0  136.14    2.79
   6   0   0  142.00    2.82
  -6   6   0  139.27    2.96
   0  -6   0  139.26    2.80
   6   0   0  136.55    2.96
   6   0   0  141.07    4.08
   0  -6   0  139.54    2.87
   0   6   0  137.97    2.85
   6  -6   0  137.05    2.78
   0   6   0  137.61    2.78
   6  -6   0  139.51    2.81
  -6   0   0  137.84    2.92
   0   6   0  135.82    2.90
   0   6   0  137.57    4.00
   6  -6   0  137.65    3.87
   0   6   0  136.14    2.81
  -6   0   0  140.97    2.90
  -6   0   0  137.28    3.51
   6  -6   0  139.77    2.98
   1   6   0   17.81    0.59
   1   6   0   18.45    0.85
   6  -7   0   19.05    0.74
   6  -7   0   18.19    0.54
   6  -7   0   18.53    0.57
  -7   1   0   18.97    0.67
   1   6   0   18.22    0.61
  -7   1   0   19.02    0.62
  -7   1   0   18.57    0.62
   1   6   0   18.20    0.56
   6  -7   0   18.75    0.62
   1   6   0   18.20    0.53
   6  -7   0   19.28    0.53
  -6   7   0   18.28    0.53
  -6   7   0   19.34    0.60
  -6   7   0   18.18    0.62
   7  -1   0   17.58    0.56
   7  -1   0   18.16    0.60
  -1  -6   0   18.59    0.77
  -6   7   0   18.34    0.56
   7  -1   0   19.90    0.89
   7  -1   0   19.74    0.56
  -1  -6   0   18.97    0.57
   7  -1   0   18.71    0.64
  -7   2   0    6.07    0.32
   5  -7   0    6.30    0.32
   2   5   0    5.87    0.31
   5  -7   0    6.09    0.27
   2   5   0    6.73    0.33
   5  -7   0    5.89    0.36
   2   5   0    6.36    0.28
  -7   2   0    7.06    0.34
   2   5   0    6.79    0.47
  -5   7   0    6.26    0.31
  -5   7   0    6.47    0.31
   7  -2   0    6.30    0.35
   7  -2   0    5.76    0.30
  -5   7   0    6.47    0.33
  -2  -5   0    6.44    0.31
   7  -2   0    5.97    0.42
   7  -2   0    6.17    0.28
  -2  -5   0    6.46    0.40
   7  -2   0    6.47    0.31
   3   4   0   13.44    0.48
   4  -7   0   13.54    0.42
  -7   3   0   13.07    0.47
   3   4   0   12.64    0.47
  -7   3   0   13.51    0.50
   3   4   0   12.99    0.44
   4  -7   0   12.88    0.45
   3   4   0   13.64    0.69
   7  -3   0   13.11    0.42
   7  -3   0   13.08    0.45
  -4   7   0   12.53    0.45
   7  -3   0   13.43    0.51
   7  -3   0   12.61    0.62
  -4   7   0   12.63    0.47
  -3  -4   0   13.05    0.46
   7  -3   0   12.68    0.46
  -4   7   0   12.66    0.45
  -4   7   0   13.20    0.57
  -3  -4   0   12.61    0.56
   4   3   0   12.39    0.47
   3  -7   0   13.17    0.44
  -7   4   0   13.86    0.46
  -7   4   0   12.59    0.49
   4   3   0   13.48    0.70
   3  -7   0   13.28    0.42
   4   3   0   12.77    0.46
   4   3   0   12.82    0.42
   4   3   0   12.91    0.45
   7  -4   0   13.05    0.46
  -3   7   0   13.06    0.43
  -4  -3   0   13.24    0.43
  -3   7   0   13.29    0.45
  -3   7   0   13.45    0.59
  -4  -3   0   13.26    0.56
  -4  -3   0   13.59    0.48
   7  -4   0   12.87    0.43
  -3   7   0   12.49    0.46
   7  -4   0   13.18    0.61
   7  -4   0   13.05    0.42
   7  -4   0   12.71    0.51
  -3   7   0   12.89    0.47
   5   2   0    5.83    0.30
   2  -7   0    6.22    0.27
   2  -7   0    6.11    0.28
   5   2   0    6.24    0.31
  -7   5   0    5.93    0.29
  -7   5   0    6.22    0.30
   5   2   0    6.25    0.32
  -7   5   0    6.15    0.33
   5   2   0    6.54    0.47
   2  -7   0    6.12    0.27
   5   2   0    6.46    0.28
   7  -5   0    6.52    0.28
  -2   7   0    6.29    0.41
   7  -5   0    6.21    0.35
  -5  -2   0    6.24    0.29
   7  -5   0    6.15    0.38
   7  -5   0    6.19    0.31
  -5  -2   0    6.33    0.32
  -2   7   0    6.33    0.28
  -2   7   0    6.20    0.32
  -5  -2   0    6.34    0.35
  -2   7   0    6.27    0.27
  -2   7   0    6.00    0.28
  -2   7   0    6.08    0.30
   1  -7   0   18.41    0.54
  -7   6   0   18.83    0.56
  -7   6   0   18.06    0.58
   6   1   0   18.32    0.55
  -7   6   0   18.18    0.63
   1  -7   0   19.33    0.55
   6   1   0   19.41    0.89
   6   1   0   18.27    0.61
   6   1   0   18.75    0.57
   6   1   0   19.15    0.62
  -1   7   0   17.97    0.80
  -1   7   0   18.62    0.62
  -1   7   0   18.85    0.54
   7  -6   0   18.79    0.75
   7  -6   0   18.73    0.64
  -1   7   0   19.00    0.57
   7  -6   0   19.05    0.55
  -6  -1   0   19.08    0.68
  -1   7   0   18.83    0.59
  -6  -1   0   18.63    0.62
  -1   7   0   18.78    0.54
   7  -6   0   18.38    0.58
  -6  -1   0   18.68    0.58
  -7   7   0   35.70    0.94
   7   0   0   36.06    0.97
  -7   7   0   34.83    0.89
  -7   7   0   34.98    0.99
   7   0   0   36.32    1.00
   7   0   0   34.59    0.89
   7   0   0   36.04    0.89
   0  -7   0   35.24    0.90
   0  -7   0   35.62    0.89
  -7   7   0   36.40    0.89
   7   0   0   34.26    1.37
   7  -7   0   34.41    0.92
   0   7   0   35.66    0.92
   7  -7   0   35.46    0.89
   0   7   0   35.02    1.32
  -7   0   0   35.37    0.98
   0   7   0   36.06    0.88
   7  -7   0   35.56    1.00
   7  -7   0   35.50    1.21
   0   7   0   35.00    0.98
   0   7   0   36.10    0.88
   7  -7   0   35.41    0.89
   7  -7   0   35.11    0.88
  -7   0   0   36.09    0.96
   0   7   0   34.99    0.92
  -8   1   0   36.89    1.04
   1   7   0   34.71    1.40
   7  -8   0   37.41    0.96
  -8   1   0   37.87    1.15
   7  -8   0   35.65    0.95
   7  -8   0   38.05    0.91
   7  -8   0   38.09    0.94
   1   7   0   36.54    1.03
   7  -8   0   36.81    1.03
   1   7   0   36.80    0.99
   7  -8   0   38.00    1.27
   1   7   0   38.17    0.94
   1   7   0   36.70    0.95
  -8   1   0   36.79    1.02
   8  -1   0   35.78    0.94
  -7   8   0   36.70    0.91
   8  -1   0   37.03    0.97
   8  -1   0   37.53    0.94
  -7   8   0   36.66    1.00
  -7   8   0   36.79    0.95
   8  -1   0   36.91    1.06
  -1  -7   0   36.48    0.96
  -7   8   0   35.88    1.03
   8  -1   0   35.71    0.93
   8  -1   0   37.19    1.01
   6  -8   0   41.42    1.02
   6  -8   0   42.22    1.03
   6  -8   0   43.26    1.41
   2   6   0   41.63    1.12
   6  -8   0   43.16    1.00
   6  -8   0   42.29    1.12
  -8   2   0   42.79    1.12
   2   6   0   37.61    1.54
   2   6   0   42.52    1.04
  -8   2   0   43.67    1.29
   2   6   0   42.54    1.03
  -8   2   0   43.89    1.15
   2   6   0   42.09    1.10
  -2  -6   0   43.28    1.08
  -6   8   0   42.15    1.12
   8  -2   0   42.33    1.09
  -6   8   0   43.02    1.07
   8  -2   0   43.75    1.08
   8  -2   0   43.11    1.55
   8  -2   0   42.57    1.17
  -6   8   0   43.89    1.11
   8  -2   0   42.41    1.02
  -6   8   0   41.70    0.99
   8  -2   0   43.10    1.06
  -2  -6   0   42.20    1.39
   8  -2   0   42.18    1.03
   5  -8   0   73.26    1.70
   5  -8   0   74.05    1.57
   3   5   0   73.97    2.41
   3   5   0   72.25    1.70
  -8   3   0   74.62    1.76
   3   5   0   71.94    1.65
   5  -8   0   72.06    1.57
   3   5   0   72.23    1.58
  -8   3   0   75.11    1.70
   3   5   0   68.89    1.66
  -5   8   0   72.49    1.70
  -3  -5   0   73.82    1.68
  -5   8   0   72.02    1.66
   8  -3   0   74.39    1.62
   8  -3   0   72.74    1.65
  -3  -5   0   75.19    2.12
  -5   8   0   74.12    2.21
  -3  -5   0   75.97    1.62
   8  -3   0   72.64    1.64
  -5   8   0   73.31    1.67
   8  -3   0   73.69    2.34
   8  -3   0   73.78    1.63
   8  -3   0   72.99    1.79
   4   4   0  364.24    8.00
  -8   4   0  378.28    7.61
   4  -8   0  373.47    7.41
   4   4   0  373.22    7.95
  -8   4   0  377.38    7.98
   4  -8   0  364.58    7.18
   4   4   0  370.10    7.66
   4  -8   0  375.15    7.32
   4   4   0  382.78   10.60
  -8   4   0  370.62    7.32
   4  -8   0  376.85    7.80
   8  -4   0  376.86    7.52
   8  -4   0  370.10   10.87
  -4  -4   0  369.82    9.93
  -4   8   0  371.73    7.32
   8  -4   0  370.74    7.19
  -4   8   0  365.12    7.31
   8  -4   0  372.98    7.84
  -4  -4   0  374.97    7.68
   8  -4   0  370.64    7.03
   8  -4   0  370.57    7.17
  -4   8   0  375.30    8.00
  -4   8   0  374.24   10.67
  -4   8   0  364.27    7.41
  -4  -4   0  365.11    7.66
   3  -8   0   72.17    1.58
   3  -8   0   71.16    1.59
  -8   5   0   72.96    1.76
   5   3   0   72.82    1.70
   5   3   0   73.23    1.67
  -8   5   0   72.02    1.59
   3  -8   0   73.50    1.65
   5   3   0   72.33    1.69
   5   3   0   73.10    1.61
  -8   5   0   72.40    1.65
   3  -8   0   72.60    1.57
   5   3   0   78.83    2.48
  -3   8   0   74.04    1.65
  -5  -3   0   73.43    1.64
  -3   8   0   73.41    1.65
   8  -5   0   73.37    1.61
   8  -5   0   73.32    1.79
  -5  -3   0   75.17    2.06
  -3   8   0   73.26    2.26
   8  -5   0   72.26    1.64
  -3   8   0   74.09    1.70
   8  -5   0   71.42    1.60
  -3   8   0   71.81    1.65
   8  -5   0   71.97    2.26
   8  -5   0   72.51    1.63
  -3   8   0   72.99    1.59
  -5  -3   0   72.67    1.69
   6   2   0   43.48    1.62
  -8   6   0   40.62    1.00
  -8   6   0   42.77    1.06
   2  -8   0   41.89    1.02
   6   2   0   42.88    1.08
   6   2   0   41.50    1.12
   2  -8   0   43.78    1.05
  -8   6   0   42.58    1.17
   6   2   0   43.93    1.13
   2  -8   0   43.81    1.02
  -8   6   0   43.32    1.07
  -6  -2   0   42.44    1.13
   8  -6   0   41.25    1.07
   8  -6   0   43.14    1.44
  -2   8   0   42.65    1.13
   8  -6   0   42.05    1.02
   8  -6   0   43.29    1.09
  -2   8   0   43.63    1.04
  -6  -2   0   43.42    1.31
  -2   8   0   42.08    1.04
  -6  -2   0   43.13    1.08
   8  -6   0   42.04    1.03
   8  -6   0   43.22    1.18
  -2   8   0   42.16    1.09
  -2   8   0   42.08    1.49
  -2   8   0   42.81    1.05
   7   1   0   37.90    0.96
   7   1   0   36.72    1.04
   1  -8   0   37.42    0.94
  -8   7   0   37.03    1.07
   1  -8   0   37.52    0.94
  -8   7   0   37.23    0.95
   7   1   0   37.35    1.03
  -8   7   0   37.22    0.98
  -8   7   0   36.49    0.93
   7   1   0   36.80    0.97
   7   1   0   38.94    1.50
   7   1   0   36.86    0.93
   8  -7   0   37.28    1.29
   8  -7   0   38.02    0.95
  -7  -1   0   37.15    1.00
  -1   8   0   36.55    1.04
   8  -7   0   37.14    0.99
  -1   8   0   37.27    0.97
   8  -7   0   38.41    1.00
  -7  -1   0   37.06    1.04
  -1   8   0   36.63    0.98
   8  -7   0   37.80    1.08
   8  -7   0   37.32    0.93
  -7  -1   0   37.99    1.17
  -1   8   0   38.22    1.40
   8  -7   0   36.86    0.91
   0  -8   0    1.89    0.20
  -8   8   0    1.83    0.19
   8   0   0    1.91    0.21
   8   0   0    2.03    0.20
  -8   8   0    2.10    0.20
   8   0   0    1.76    0.20
  -8   8   0    1.95    0.23
   8   0   0    2.02    0.23
   8   0   0    1.85    0.34
   8   0   0    2.07    0.25
   8   0   0    2.12    0.26
  -8   8   0    2.04    0.25
   8  -8   0    2.16    0.26
   8  -8   0    2.24    0.24
   0   8   0    1.69    0.21
   0   8   0    1.64    0.23
   8  -8   0    1.96    0.20
   8  -8   0    1.98    0.19
  -8   0   0    1.75    0.23
   0   8   0    1.60    0.30
   8  -8   0    2.02    0.24
   0   8   0    2.13    0.24
   8  -8   0    1.83    0.25
  -8   0   0    1.77    0.22
   8  -9   0   38.19    1.12
  -9   1   0   39.12    1.11
   8  -9   0   40.21    1.05
   1   8   0   39.15    1.54
   1   8   0   38.22    1.06
   8  -9   0   39.70    1.04
   1   8   0   39.02    1.03
   1   8   0   37.88    1.11
  -9   1   0   39.61    1.13
   9  -1   0   38.07    1.54
  -8   9   0   39.75    1.03
  -8   9   0   37.95    1.12
   9  -1   0   39.41    1.06
   9  -1   0   37.76    1.02
   9  -1   0   38.85    1.10
   9  -1   0   39.38    1.16
  -1  -8   0   39.40    1.04
  -8   9   0   38.21    1.07
   7  -9   0   93.40    2.02
   2   7   0   94.40    2.03
   7  -9   0   94.26    2.03
   2   7   0   94.39    3.04
   7  -9   0   94.60    2.05
   7  -9   0   93.13    2.18
  -9   2   0   98.53    2.23
   2   7   0   92.75    2.12
  -9   2   0   93.22    2.17
   2   7   0   92.48    2.17
   9  -2   0   94.60    2.13
  -2  -7   0   93.35    2.71
  -7   9   0   96.00    2.12
   9  -2   0   95.32    2.08
   9  -2   0   94.71    3.00
   9  -2   0   94.64    2.05
  -2  -7   0   94.44    2.10
   9  -2   0   93.39    2.25
   9  -2   0   92.13    2.04
  -7   9   0   94.45    2.19
  -7   9   0   95.40    2.09
  -9   3   0  183.60    3.86
   3   6   0  185.79    3.68
  -9   3   0  185.93    3.97
   3   6   0  181.40    3.88
   6  -9   0  185.25    3.64
   3   6   0  184.75    3.83
   6  -9   0  185.36    3.93
   3   6   0  183.82    3.85
   6  -9   0  185.16    3.76
   3   6   0  193.22    5.47
  -6   9   0  182.53    3.82
   9  -3   0  187.10    3.70
   9  -3   0  187.50    5.37
  -3  -6   0  189.29    3.83
   9  -3   0  183.91    3.76
  -6   9   0  185.29    3.92
   9  -3   0  183.22    3.72
   9  -3   0  182.95    3.79
  -6   9   0  186.14    3.78
  -3  -6   0  188.64    4.86
   9  -3   0  186.04    4.03
   9  -3   0  184.58    3.64
  -6   9   0  186.05    5.18
   4   5   0   26.72    0.77
   4   5   0   27.84    1.23
   5  -9   0   26.18    0.74
   4   5   0   26.71    0.83
   5  -9   0   27.66    0.79
   4   5   0   27.27    0.73
   5  -9   0   27.70    0.75
   4   5   0   26.47    0.83
  -9   4   0   26.39    0.86
  -9   4   0   27.98    0.83
  -5   9   0   26.77    0.81
   9  -4   0   27.55    0.81
   9  -4   0   27.29    0.79
  -4  -5   0   26.88    1.00
  -5   9   0   27.33    1.03
   9  -4   0   27.89    0.90
  -5   9   0   27.53    0.83
  -5   9   0   27.31    0.82
   9  -4   0   26.25    1.10
   9  -4   0   25.85    0.81
  -4  -5   0   26.32    0.81
   5   4   0   27.58    1.23
  -9   5   0   25.48    0.74
   4  -9   0   26.72    0.77
  -9   5   0   27.01    0.80
   5   4   0   26.54    0.79
  -9   5   0   27.27    0.87
   5   4   0   26.61    0.71
   4  -9   0   25.85    0.74
   4  -9   0   26.73    0.73
   4  -9   0   26.84    0.73
   5   4   0   26.13    0.83
   5   4   0   26.34    0.81
  -4   9   0   26.86    0.78
  -4   9   0   27.07    0.82
  -4   9   0   28.00    1.05
  -5  -4   0   28.61    0.99
  -5  -4   0   26.96    0.83
  -4   9   0   26.70    0.73
   9  -5   0   27.10    0.81
  -5  -4   0   27.46    0.75
  -4   9   0   27.26    0.82
   9  -5   0   26.06    0.80
   9  -5   0   26.99    1.08
   9  -5   0   27.81    0.90
   9  -5   0   26.90    0.76
   6   3   0  183.14    3.76
  -9   6   0  187.25    3.70
  -9   6   0  182.79    3.98
   6   3   0  187.57    3.92
   6   3   0  184.18    3.83
  -9   6   0  184.13    3.79
   6   3   0  183.32    3.84
   3  -9   0  187.10    3.85
   6   3   0  183.93    3.57
   3  -9   0  182.16    3.75
   6   3   0  187.22    5.48
   9  -6   0  185.19    4.03
  -6  -3   0  188.95    3.88
  -3   9   0  187.15    3.84
  -3   9   0  183.01    3.84
  -3   9   0  184.53    3.77
   9  -6   0  183.17    3.76
  -6  -3   0  186.44    3.85
   9  -6   0  190.00    3.73
  -3   9   0  182.37    5.27
  -3   9   0  187.90    3.72
   9  -6   0  182.28    3.69
  -3   9   0  183.44    3.87
  -6  -3   0  190.90    4.76
   9  -6   0  185.92    3.72
   9  -6   0  183.88    5.24
   7   2   0   94.88    2.04
   7   2   0   93.08    3.08
  -9   7   0   95.08    2.25
   7   2   0   98.35    2.22
   2  -9   0   93.61    2.05
   7   2   0   96.51    2.13
  -9   7   0   95.33    2.08
   7   2   0   95.06    1.99
   7   2   0   92.20    2.16
  -9   7   0   94.93    2.09
   9  -7   0   93.94    2.08
  -7  -2   0   98.08    2.60
  -2   9   0   94.31    2.19
  -2   9   0   95.27    2.12
   9  -7   0   92.71    2.06
  -7  -2   0   94.97    2.20
  -2   9   0   96.90    2.95
  -7  -2   0   94.35    2.14
   9  -7   0   94.34    2.27
  -2   9   0   94.52    2.07
   9  -7   0   95.35    2.09
   9  -7   0   95.95    2.87
   8   1   0   38.69    1.12
   8   1   0   41.03    1.61
   8   1   0   39.68    1.11
   1  -9   0   39.12    1.01
  -9   8   0   38.25    1.05
  -9   8   0   39.49    1.16
   8   1   0   39.17    1.03
   8   1   0   38.58    1.04
   8   1   0   37.45    0.99
  -1   9   0   39.18    1.04
  -1   9   0   39.25    1.50
  -8  -1   0   37.98    1.12
  -1   9   0   38.31    1.06
   9  -8   0   38.65    1.16
   9  -8   0   39.80    1.07
  -8  -1   0   39.61    1.08
  -1   9   0   39.15    1.12
   9  -8   0   38.40    1.06
   9   0   0  139.64    3.03
   0  -9   0  141.56    2.94
   9   0   0  119.97    4.24
   9   0   0  139.15    2.90
  -9   9   0  139.95    3.14
  -9   9   0  139.00    2.96
   9   0   0  141.54    3.15
   9   0   0  138.50    2.85
   9  -9   0  141.98    2.92
   9  -9   0  138.97    2.91
   0   9   0  144.05    4.25
  -9   0   0  138.90    3.07
  -9   0   0  142.49    3.09
   9  -9   0  139.10    3.15
   0   9   0  140.38    2.97
   0   9   0  138.13    2.93
   0   9   0  139.08    3.08
   1   9   0   30.27    0.94
   1   9   0   30.31    0.91
   9 -10   0   30.23    0.92
   1   9   0   29.83    0.98
   9 -10   0   31.35    0.92
 -10   1   0   30.03    0.98
   1   9   0   30.80    1.37
   9 -10   0   30.72    0.99
 -10   1   0   30.29    0.96
  -9  10   0   29.08    0.98
  10  -1   0   29.31    0.92
  10  -1   0   29.90    1.35
  10  -1   0   30.18    1.01
  -9  10   0   29.95    0.95
  10  -1   0   29.55    0.96
  10  -1   0   30.04    0.90
  -1  -9   0   30.55    0.90
   8 -10   0    1.14    0.20
   8 -10   0    0.77    0.18
   8 -10   0    1.11    0.20
   2   8   0    0.94    0.27
 -10   2   0    0.88    0.20
 -10   2   0    0.86    0.19
   2   8   0    1.18    0.19
   2   8   0    0.93    0.20
   2   8   0    1.20    0.22
  10  -2   0    1.31    0.22
  10  -2   0    0.86    0.25
  -8  10   0    1.03    0.20
  -8  10   0    1.11    0.21
  -8  10   0    1.04    0.18
  10  -2   0    0.80    0.18
  -2  -8   0    1.07    0.19
  10  -2   0    0.88    0.20
  10  -2   0    0.88    0.19
   7 -10   0   18.82    0.63
   3   7   0   17.92    0.61
 -10   3   0   19.05    0.72
   3   7   0   18.24    0.69
   3   7   0   19.24    1.00
 -10   3   0   18.27    0.70
   7 -10   0   18.16    0.66
   3   7   0   18.44    0.69
   7 -10   0   18.47    0.62
  10  -3   0   18.20    0.67
  10  -3   0   18.41    0.74
  10  -3   0   18.84    0.67
  -3  -7   0   18.92    0.85
  10  -3   0   17.52    0.92
  10  -3   0   18.89    0.67
  -7  10   0   18.24    0.68
  -3  -7   0   18.70    0.66
  -7  10   0   18.20    0.68
 -10   4   0   23.21    0.79
   6 -10   0   22.97    0.70
   4   6   0   22.61    0.69
   4   6   0   23.30    0.79
   6 -10   0   24.08    0.77
   4   6   0   23.29    0.80
 -10   4   0   23.80    0.83
   6 -10   0   23.11    0.71
   4   6   0   24.82    1.18
  -4  -6   0   23.22    0.95
  10  -4   0   23.46    1.05
  -6  10   0   23.41    0.79
  -6  10   0   23.71    0.77
  10  -4   0   24.09    0.85
  10  -4   0   23.84    0.75
  10  -4   0   24.43    0.78
  -6  10   0   23.43    0.77
  10  -4   0   23.82    0.78
  -4  -6   0   23.36    0.77
   5   5   0    7.00    0.40
 -10   5   0    6.81    0.42
   5 -10   0    6.90    0.36
   5   5   0    6.49    0.35
   5   5   0    7.06    0.41
   5 -10   0    7.30    0.35
 -10   5   0    6.86    0.39
 -10   5   0    6.81    0.34
   5   5   0    7.27    0.60
  -5  10   0    7.15    0.38
  10  -5   0    6.59    0.49
  -5  -5   0    6.87    0.39
  10  -5   0    6.81    0.36
  -5  10   0    7.02    0.40
  -5  10   0    7.02    0.39
  10  -5   0    6.70    0.39
  10  -5   0    6.97    0.41
  -5  -5   0    7.56    0.47
  10  -5   0    7.16    0.44
   6   4   0   23.70    0.75
   6   4   0   22.64    0.69
 -10   6   0   23.07    0.71
 -10   6   0   23.88    0.76
   6   4   0   23.71    1.15
   6   4   0   22.30    0.79
 -10   6   0   24.20    0.84
   6   4   0   23.85    0.77
  -4  10   0   22.82    0.77
  10  -6   0   22.27    0.84
  10  -6   0   23.27    1.00
  10  -6   0   23.38    0.78
  -4  10   0   23.32    0.79
  -4  10   0   23.99    1.00
  -6  -4   0   22.77    0.79
  -6  -4   0   23.25    0.90
  10  -6   0   22.87    0.76
  -4  10   0   23.06    0.72
  10  -6   0   23.40    0.72
 -10   7   0   18.54    0.64
 -10   7   0   18.47    0.72
   7   3   0   17.33    0.68
   7   3   0   18.23    0.58
   7   3   0   18.39    0.65
   7   3   0   18.37    0.61
   7   3   0   17.66    0.65
 -10   7   0   18.53    0.63
   7   3   0   18.01    1.00
  -3  10   0   17.87    0.66
  10  -7   0   18.63    0.67
  -3  10   0   17.72    0.68
  -7  -3   0   18.30    0.63
  10  -7   0   17.56    0.72
  -3  10   0   18.21    0.61
  10  -7   0   17.97    0.66
  -3  10   0   18.52    0.87
  -7  -3   0   18.72    0.70
   8   2   0    1.09    0.19
 -10   8   0    0.75    0.19
 -10   8   0    1.12    0.18
   8   2   0    0.94    0.20
 -10   8   0    0.70    0.17
   8   2   0    1.02    0.20
   8   2   0    1.19    0.19
   8   2   0    1.13    0.19
   8   2   0    1.18    0.31
  -8  -2   0    1.06    0.19
  10  -8   0    1.00    0.20
  -2  10   0    1.09    0.26
  -2  10   0    1.31    0.22
  10  -8   0    1.09    0.20
  -8  -2   0    0.72    0.18
  -2  10   0    0.87    0.19
  -2  10   0    1.08    0.19
  10  -8   0    1.22    0.23
 -10   9   0   29.77    0.92
   9   1   0   29.94    0.87
   9   1   0   29.63    0.98
 -10   9   0   29.65    1.00
   9   1   0   30.23    0.99
   9   1   0   31.52    1.42
   9   1   0   30.29    0.91
  -1  10   0   30.21    1.31
  -9  -1   0   30.85    0.94
  -1  10   0   29.98    0.93
  10  -9   0   30.93    0.94
  -1  10   0   29.96    0.99
  -9  -1   0   30.17    0.99
  10  -9   0   30.89    1.02
  10  -9   0   30.43    0.94
  -1  10   0   31.04    0.91
  10   0   0   19.50    1.09
  10   0   0   19.46    0.68
  10   0   0   18.06    0.75
 -10  10   0   19.15    0.72
  10   0   0   19.13    0.75
 -10  10   0   18.35    0.76
  10   0   0   18.99    0.70
   0  10   0   17.59    0.74
  10 -10   0   18.40    0.70
 -10   0   0   19.20    0.72
 -10   0   0   19.50    0.77
  10 -10   0   19.68    0.78
  10 -10   0   18.64    0.70
   0  10   0   19.89    1.03
   0  10   0   19.12    0.70
  10 -11   0    1.86    0.27
   1  10   0    1.96    0.26
 -11   1   0    1.40    0.26
   1  10   0    1.83    0.27
   1  10   0    2.03    0.30
   1  10   0    1.54    0.35
  10 -11   0    1.79    0.26
  10 -11   0    1.77    0.28
 -11   1   0    1.94    0.27
 -10  11   0    1.55    0.26
  11  -1   0    1.78    0.36
  11  -1   0    1.71    0.27
  11  -1   0    2.07    0.28
  11  -1   0    1.85    0.28
 -10  11   0    1.75    0.28
  11  -1   0    2.04    0.27
   2   9   0   32.05    1.42
   9 -11   0   29.83    0.98
   9 -11   0   30.13    0.93
 -11   2   0   30.70    1.01
   2   9   0   28.56    0.99
   9 -11   0   29.95    0.91
   2   9   0   30.12    0.97
   2   9   0   30.88    0.92
 -11   2   0   29.36    1.00
  -9  11   0   29.95    0.97
  11  -2   0   30.14    0.97
  -2  -9   0   29.38    0.92
  -9  11   0   29.07    0.99
  11  -2   0   29.93    1.36
  11  -2   0   30.55    1.05
  11  -2   0   28.43    0.92
  11  -2   0   29.39    0.95
   8 -11   0   37.28    1.10
   3   8   0   36.89    1.02
 -11   3   0   36.99    1.13
   3   8   0   36.07    1.10
   3   8   0   35.65    1.12
   3   8   0   37.32    1.60
   8 -11   0   38.52    1.05
 -11   3   0   37.34    1.15
   8 -11   0   36.20    1.01
  11  -3   0   36.24    1.08
  -8  11   0   36.38    1.10
  -8  11   0   36.51    1.12
  11  -3   0   36.03    1.17
  -3  -8   0   37.43    1.08
  11  -3   0   37.47    1.10
  11  -3   0   37.27    1.54
  -8  11   0   36.83    1.06
  11  -3   0   37.06    1.07
   4   7   0   11.09    0.54
   4   7   0   11.73    0.79
   4   7   0   11.04    0.54
 -11   4   0   10.98    0.56
   7 -11   0   10.30    0.49
 -11   4   0   10.40    0.52
   7 -11   0   10.35    0.47
  -7  11   0   10.92    0.51
  11  -4   0   10.30    0.56
  11  -4   0   11.09    0.70
  -4  -7   0   11.39    0.65
  11  -4   0   10.67    0.52
  -7  11   0   11.83    0.53
  11  -4   0   11.46    0.53
  -4  -7   0   10.70    0.51
  11  -4   0   10.25    0.50
  -7  11   0   10.02    0.52
   5   6   0   42.81    1.23
   5   6   0   42.77    1.24
   6 -11   0   43.10    1.10
 -11   5   0   43.58    1.30
   5   6   0   46.58    1.84
 -11   5   0   43.41    1.22
  11  -5   0   42.87    1.17
  -6  11   0   44.15    1.23
  -5  -6   0   44.39    1.49
  11  -5   0   43.46    1.21
  11  -5   0   43.12    1.19
  11  -5   0   43.85    1.65
  11  -5   0   41.05    1.30
  -5  -6   0   43.46    1.22
  -6  11   0   43.49    1.20
  -6  11   0   42.56    1.21
 -11   6   0   43.89    1.12
 -11   6   0   43.26    1.29
   6   5   0   42.60    1.24
   6   5   0   44.67    1.23
 -11   6   0   43.27    1.20
   6   5   0   43.64    1.79
  -6  -5   0   43.03    1.46
  -5  11   0   43.38    1.23
  11  -6   0   43.75    1.22
  -5  11   0   42.45    1.22
  11  -6   0   42.18    1.19
  11  -6   0   42.99    1.32
  -6  -5   0   44.77    1.25
  -5  11   0   42.26    1.17
  11  -6   0   42.80    1.14
   7   4   0   11.04    0.79
   7   4   0   11.29    0.51
   7   4   0   10.80    0.51
   7   4   0   11.03    0.47
 -11   7   0   10.84    0.48
 -11   7   0   10.48    0.49
   7   4   0   10.10    0.52
 -11   7   0   10.68    0.55
  -4  11   0   10.84    0.53
  11  -7   0   10.97    0.52
  -4  11   0   10.94    0.53
  -7  -4   0   10.89    0.54
  11  -7   0   10.56    0.57
  11  -7   0   11.41    0.54
 -11   8   0   37.20    1.17
   8   3   0   38.24    1.08
   8   3   0   36.97    1.10
 -11   8   0   36.37    1.04
   8   3   0   35.40    1.60
   8   3   0   36.53    1.01
 -11   8   0   35.72    1.03
   8   3   0   36.23    1.12
  11  -8   0   37.11    1.09
  -3  11   0   37.53    1.10
  -3  11   0   35.33    1.44
  -8  -3   0   36.47    1.13
  11  -8   0   36.20    1.08
  -3  11   0   36.55    1.13
  11  -8   0   36.07    1.18
 -11   9   0   29.44    1.02
 -11   9   0   29.58    0.92
   9   2   0   29.71    0.98
   9   2   0   29.33    0.86
   9   2   0   28.81    0.90
   9   2   0   30.10    1.43
   9   2   0   28.99    0.98
  -2  11   0   30.01    1.00
  -2  11   0   29.58    0.95
  11  -9   0   29.61    0.95
  11  -9   0   29.69    0.95
  11  -9   0   29.70    1.04
  -9  -2   0   28.35    0.99
  -9  -2   0   29.91    0.93
  -2  11   0   30.77    1.31
  10   1   0    1.83    0.40
 -11  10   0    2.08    0.31
 -11  10   0    1.52    0.25
  10   1   0    2.03    0.25
  10   1   0    1.75    0.25
  10   1   0    1.84    0.28
  10   1   0    1.69    0.27
  11 -10   0    2.02    0.28
  -1  11   0    2.03    0.38
 -10  -1   0    1.63    0.27
 -10  -1   0    1.93    0.26
  11 -10   0    1.53    0.25
  11 -10   0    1.69    0.28
  -1  11   0    2.02    0.29
  -1  11   0    1.58    0.24
  -1  11   0    1.66    0.26
  11   0   0   33.36    1.12
  11   0   0   32.45    1.02
  11   0   0   34.04    1.11
 -11  11   0   32.27    1.05
 -11  11   0   34.10    1.14
  11   0   0   31.68    1.52
  11   0   0   34.17    1.01
  11 -11   0   33.40    1.03
   0  11   0   32.96    1.11
   0  11   0   35.42    1.06
   0  11   0   26.78    1.41
  11 -11   0   33.78    1.13
 -11   0   0   34.71    1.08
   0  11   0   33.24    1.03
  11 -11   0   32.83    1.04
 -11   0   0   32.89    1.12
   1  11   0   42.53    1.84
  11 -12   0   42.31    1.23
   1  11   0   43.71    1.24
 -12   1   0   42.73    1.31
   1  11   0   43.47    1.36
  11 -12   0   40.51    1.23
  11 -12   0   42.84    1.34
 -12   1   0   42.48    1.35
   1  11   0   42.83    1.28
  12  -1   0   42.04    1.36
  12  -1   0   41.52    1.25
  12  -1   0   42.84    1.23
  12  -1   0   42.56    1.31
 -11  12   0   42.69    1.35
 -11  12   0   42.71    1.29
  12  -1   0   44.42    1.87
   2  10   0   12.84    0.57
  10 -12   0   12.27    0.57
 -12   2   0   12.12    0.62
   2  10   0   12.31    0.61
  10 -12   0   12.42    0.57
 -12   2   0   12.47    0.62
   2  10   0   13.13    0.65
   2  10   0   13.31    0.90
  10 -12   0   12.19    0.61
  12  -2   0   12.58    0.66
  12  -2   0   13.12    0.59
 -10  12   0   12.80    0.63
  12  -2   0   12.64    0.85
 -10  12   0   11.70    0.60
  12  -2   0   13.29    0.63
  12  -2   0   12.77    0.61
   3   9   0   35.34    1.11
 -12   3   0   33.56    1.11
   3   9   0   37.15    1.64
   3   9   0   33.13    1.11
   9 -12   0   35.03    1.10
 -12   3   0   34.83    1.13
   9 -12   0   33.78    1.02
  -9  12   0   32.47    1.09
  12  -3   0   33.53    1.50
  -9  12   0   33.20    1.08
  12  -3   0   33.47    1.05
  -3  -9   0   33.57    1.05
  12  -3   0   34.24    1.17
  12  -3   0   34.67    1.08
  12  -3   0   33.43    1.07
 -12   4   0   66.30    1.75
 -12   4   0   67.23    1.82
   4   8   0   66.11    1.76
   4   8   0   69.66    2.54
   4   8   0   65.41    1.75
   8 -12   0   67.21    1.62
  12  -4   0   67.87    1.70
  12  -4   0   65.35    1.70
  12  -4   0   66.89    1.85
  -4  -8   0   65.56    2.14
  -8  12   0   66.24    1.73
  -8  12   0   67.77    1.69
  -4  -8   0   66.74    1.71
  -8  12   0   66.57    1.74
  12  -4   0   65.52    2.37
  12  -4   0   63.80    1.66
   5   7   0   22.36    1.21
 -12   5   0   19.41    0.81
   5   7   0   19.26    0.77
   5   7   0   19.49    0.78
   7 -12   0   20.81    0.70
 -12   5   0   20.48    0.78
  -7  12   0   20.34    0.76
  12  -5   0   20.20    0.84
  -5  -7   0   20.43    0.77
  12  -5   0   20.21    0.74
  12  -5   0   20.58    1.04
  12  -5   0   19.88    0.77
  -7  12   0   19.83    0.78
  -5  -7   0   19.78    0.93
  12  -5   0   20.80    0.77
   6   6   0   62.31    1.62
   6   6   0   60.87    2.33
 -12   6   0   60.28    1.69
   6   6   0   59.91    1.62
 -12   6   0   59.80    1.58
  12  -6   0   58.68    1.71
  -6  12   0   58.21    1.59
  -6  -6   0   61.23    1.61
  12  -6   0   61.25    1.57
  -6  12   0   60.44    1.60
  12  -6   0   59.99    1.58
   7   5   0   20.69    0.76
   7   5   0   20.36    1.15
 -12   7   0   20.56    0.75
 -12   7   0   20.18    0.70
   7   5   0   19.65    0.78
 -12   7   0   19.92    0.82
  12  -7   0   19.48    0.76
  12  -7   0   19.57    0.84
  -7  -5   0   20.21    0.79
  -5  12   0   20.00    0.78
  12  -7   0   19.94    0.78
  -5  12   0   19.63    0.77
   8   4   0   67.52    2.50
   8   4   0   66.14    1.69
 -12   8   0   66.66    1.61
 -12   8   0   64.03    1.80
   8   4   0   63.44    1.73
 -12   8   0   64.94    1.64
   8   4   0   67.34    1.71
  12  -8   0   64.55    1.82
  -4  12   0   64.45    1.73
  12  -8   0   63.29    1.66
  12  -8   0   64.38    1.68
  -8  -4   0   64.65    1.73
  -4  12   0   65.67    1.70
 -12   9   0   30.80    1.11
   9   3   0   35.00    1.62
   9   3   0   33.28    1.04
 -12   9   0   33.27    1.02
   9   3   0   34.46    1.12
   9   3   0   34.18    1.09
  12  -9   0   34.39    1.17
  -9  -3   0   33.28    1.12
  12  -9   0   33.37    1.06
  -3  12   0   34.49    1.08
  12  -9   0   33.21    1.06
  -3  12   0   33.26    1.10
 -12  10   0   11.91    0.64
 -12  10   0   13.11    0.60
  10   2   0   13.57    0.94
  10   2   0   12.99    0.63
  10   2   0   12.70    0.58
  10   2   0   12.43    0.64
  12 -10   0   12.91    0.61
 -10  -2   0   11.79    0.63
  -2  12   0   13.14    0.62
  -2  12   0   13.09    0.65
  12 -10   0   12.80    0.61
  12 -10   0   11.82    0.64
 -12  11   0   42.31    1.35
 -12  11   0   43.23    1.26
  11   1   0   41.63    1.31
  11   1   0   42.82    1.34
  11   1   0   43.10    1.23
  11   1   0   38.18    1.84
  11   1   0   43.12    1.19
  12 -11   0   41.84    1.25
  12 -11   0   41.59    1.35
 -11  -1   0   42.27    1.33
  -1  12   0   41.99    1.33
  12 -11   0   42.58    1.25
  -1  12   0   41.68    1.25
  12   0   0   84.00    2.01
  12   0   0   84.39    2.17
  12   0   0   85.87    3.08
 -12  12   0   81.11    2.22
  12   0   0   85.36    2.06
 -12  12   0   84.47    2.11
  12   0   0   86.13    2.25
   0  12   0   83.03    2.07
 -12   0   0   84.00    2.22
   0  12   0   83.89    2.21
  12 -12   0   83.17    2.05
 -12   0   0   85.11    2.17
  12 -12   0   86.01    2.25
  12 -12   0   82.24    2.06
   0  12   0   81.83    2.98
 -13   1   0   16.59    0.80
   1  12   0   17.07    0.81
 -13   1   0   17.31    0.78
  12 -13   0   16.51    0.72
   1  12   0   18.40    1.13
  12 -13   0   17.57    0.81
  12 -13   0   17.15    0.75
   1  12   0   18.24    0.78
  13  -1   0   18.51    0.81
  13  -1   0   17.61    0.74
  13  -1   0   17.18    0.76
 -12  13   0   17.04    0.80
  13  -1   0   16.89    0.81
 -12  13   0   17.04    0.77
   2  11   0    7.03    0.70
 -13   2   0    6.03    0.46
  11 -13   0    6.22    0.46
  11 -13   0    6.11    0.42
  11 -13   0    6.38    0.44
   2  11   0    6.53    0.49
 -13   2   0    6.46    0.48
   2  11   0    6.48    0.46
  13  -2   0    6.04    0.47
 -11  13   0    6.17    0.47
  13  -2   0    6.03    0.45
 -11  13   0    6.44    0.47
  13  -2   0    6.14    0.46
  13  -2   0    6.22    0.64
  13  -2   0    6.51    0.47
 -13   3   0   30.08    1.09
   3  10   0   31.11    1.08
 -13   3   0   30.75    1.10
  10 -13   0   30.63    1.00
   3  10   0   31.85    1.11
   3  10   0   30.81    1.54
  13  -3   0   31.18    1.47
  13  -3   0   30.62    1.02
 -10  13   0   30.21    1.07
  13  -3   0   31.61    1.06
 -10  13   0   31.93    1.08
  13  -3   0   30.99    1.14
  -3 -10   0   30.98    1.02
  13  -3   0   29.85    1.04
 -13   4   0    6.61    0.47
 -13   4   0    5.88    0.44
   4   9   0    5.77    0.44
   4   9   0    6.26    0.46
   4   9   0    6.01    0.65
   9 -13   0    7.09    0.43
  -4  -9   0    6.57    0.44
  13  -4   0    5.80    0.42
  13  -4   0    5.61    0.43
  -9  13   0    6.20    0.45
  13  -4   0    6.77    0.49
  -9  13   0    6.99    0.46
  13  -4   0    5.73    0.42
  13  -4   0    6.25    0.59
   5   8   0    6.16    0.65
 -13   5   0    5.87    0.43
   5   8   0    5.92    0.45
   5   8   0    5.76    0.43
 -13   5   0    5.85    0.45
  -8  13   0    5.64    0.43
  -5  -8   0    6.29    0.43
  -8  13   0    6.27    0.42
  13  -5   0    5.74    0.46
  13  -5   0    5.87    0.41
  13  -5   0    5.87    0.43
  -8  13   0    6.22    0.42
  13  -5   0    6.51    0.46
 -13   6   0   28.10    1.05
   6   7   0   27.47    1.00
   6   7   0   30.44    1.48
 -13   6   0   29.72    1.00
   6   7   0   28.20    1.00
  13  -6   0   27.93    0.98
  -7  13   0   29.30    1.01
  13  -6   0   28.11    0.97
  13  -6   0   28.12    1.08
  -6  -7   0   28.03    0.99
  -7  13   0   29.07    0.98
   7   6   0   28.15    1.01
 -13   7   0   28.26    1.05
 -13   7   0   30.07    0.98
   7   6   0   29.87    1.49
   7   6   0   28.15    0.98
  -6  13   0   26.81    0.98
  -6  13   0   28.09    0.98
  13  -7   0   28.01    0.97
  -7  -6   0   28.02    0.99
  13  -7   0   27.01    0.96
  13  -7   0   26.76    1.04
 -13   8   0    6.12    0.41
   8   5   0    5.94    0.41
   8   5   0    6.22    0.64
 -13   8   0    5.77    0.46
   8   5   0    5.27    0.43
  13  -8   0    5.66    0.43
  -5  13   0    5.86    0.43
  13  -8   0    5.21    0.45
  -8  -5   0    5.24    0.41
  13  -8   0    5.18    0.41
  -5  13   0    6.01    0.44
   9   4   0    6.56    0.46
   9   4   0    6.37    0.67
   9   4   0    6.27    0.43
 -13   9   0    6.89    0.50
 -13   9   0    6.53    0.42
  13  -9   0    5.80    0.43
  -4  13   0    5.85    0.44
  -4  13   0    6.25    0.44
  13  -9   0    6.13    0.46
  13  -9   0    6.33    0.49
  -9  -4   0    5.78    0.44
  10   3   0   31.30    0.99
 -13  10   0   31.60    1.15
  10   3   0   31.79    1.08
  10   3   0   29.38    1.09
  10   3   0   30.85    1.57
 -13  10   0   31.62    1.01
  -3  13   0   31.43    1.06
  -3  13   0   31.49    1.11
 -10  -3   0   30.07    1.09
  13 -10   0   30.17    1.04
  13 -10   0   31.96    1.16
  13 -10   0   31.30    1.06
  11   2   0    5.87    0.42
  11   2   0    5.87    0.46
  11   2   0    5.73    0.44
 -13  11   0    6.68    0.48
 -13  11   0    6.11    0.44
 -11  -2   0    5.67    0.45
  13 -11   0    6.05    0.48
  13 -11   0    5.91    0.44
  -2  13   0    5.61    0.46
  13 -11   0    6.70    0.47
  -2  13   0    6.46    0.45
 -13  12   0   17.66    0.77
 -13  12   0   15.55    0.79
  12   1   0   17.40    0.80
  12   1   0   17.59    0.81
  12   1   0   18.01    0.75
  -1  13   0   18.51    0.77
 -12  -1   0   18.01    0.83
  13 -12   0   17.73    0.76
  13 -12   0   17.99    0.83
  -1  13   0   16.51    0.80
  13 -12   0   17.50    0.77
 -13  13   0    9.16    0.56
  13   0   0    9.12    0.59
  13   0   0    9.08    0.60
 -13  13   0    9.12    0.59
  13   0   0    9.32    0.53
  13   0   0    8.73    0.55
   0  13   0    8.70    0.53
  13 -13   0    9.82    0.58
  13 -13   0    9.69    0.55
   0  13   0    8.92    0.60
 -13   0   0    9.33    0.60
  13 -13   0    9.36    0.60
   1  13   0    0.02    0.18
  13 -14   0    0.33    0.20
 -14   1   0    0.18    0.18
  13 -14   0    0.37    0.19
  14  -1   0    0.22    0.18
  14  -1   0    0.19    0.19
  14  -1   0    0.17    0.18
  14  -1   0    0.41    0.21
 -13  14   0    0.18    0.18
 -13  14   0    0.48    0.21
   2  12   0   32.09    1.19
 -14   2   0   30.52    1.17
 -14   2   0   31.08    1.15
  12 -14   0   31.64    1.08
  14  -2   0   31.38    1.14
  14  -2   0   31.85    1.11
  14  -2   0   32.56    1.09
 -12  14   0   31.03    1.16
  14  -2   0   30.96    1.19
 -12  14   0   31.96    1.14
   3  11   0   21.30    0.89
   3  11   0   18.79    0.87
 -14   3   0   19.58    0.87
  11 -14   0   19.62    0.79
 -14   3   0   19.92    0.87
  14  -3   0   19.30    0.83
  14  -3   0   20.84    0.93
  14  -3   0   19.45    0.81
 -11  14   0   20.35    0.86
  14  -3   0   18.99    0.83
 -11  14   0   19.02    0.85
 -14   4   0    0.97    0.25
   4  10   0    0.64    0.23
  10 -14   0    0.92    0.23
   4  10   0    1.09    0.26
 -14   4   0    0.87    0.24
  14  -4   0    1.04    0.25
  14  -4   0    0.62    0.22
  -4 -10   0    0.69    0.21
 -10  14   0    0.87    0.23
  14  -4   0    1.00    0.25
 -10  14   0    0.93    0.25
  14  -4   0    0.77    0.25
 -14   5   0   12.62    0.68
   5   9   0   12.35    0.65
 -14   5   0   11.64    0.63
   5   9   0   12.15    0.65
  -5  -9   0   12.27    0.62
  14  -5   0   10.85    0.60
  -9  14   0   11.67    0.62
  14  -5   0   12.17    0.64
  14  -5   0   11.09    0.67
 -14   6   0   22.12    0.94
 -14   6   0   21.77    0.87
   6   8   0   22.22    0.89
   6   8   0   22.09    0.90
  -8  14   0   21.74    0.89
  -8  14   0   23.17    0.87
  14  -6   0   20.82    0.94
  14  -6   0   21.04    0.87
  -6  -8   0   22.69    0.88
  14  -6   0   21.57    0.86
 -14   7   0    1.49    0.30
   7   7   0    1.81    0.31
 -14   7   0    2.36    0.32
   7   7   0    2.07    0.31
  -7  14   0    1.90    0.31
  -7  -7   0    2.01    0.31
  -7  14   0    1.94    0.30
  14  -7   0    1.96    0.34
  14  -7   0    2.06    0.32
  14  -7   0    1.91    0.31
 -14   8   0   22.79    0.95
 -14   8   0   22.90    0.86
   8   6   0   21.86    0.91
   8   6   0   23.05    0.89
  14  -8   0   23.54    0.91
  -6  14   0   22.17    0.89
  14  -8   0   22.78    0.89
  -6  14   0   21.44    0.89
  -8  -6   0   22.82    0.91
  14  -8   0   20.97    0.94
   9   5   0   11.39    0.60
 -14   9   0   12.17    0.68
   9   5   0   11.54    0.65
  -9  -5   0   12.10    0.65
  -5  14   0   11.95    0.64
  14  -9   0   12.30    0.64
  14  -9   0   11.20    0.63
  -5  14   0   11.91    0.64
  14  -9   0   12.31    0.70
  10   4   0    0.55    0.23
 -14  10   0    0.95    0.25
 -10  -4   0    0.89    0.24
  14 -10   0    0.50    0.21
  -4  14   0    0.74    0.23
  14 -10   0    0.95    0.25
  -4  14   0    0.85    0.23
  14 -10   0    0.67    0.22
 -14  11   0   21.10    0.82
  11   3   0   20.02    0.88
 -14  11   0   19.61    0.90
  -3  14   0   20.12    0.86
  14 -11   0   19.62    0.84
  -3  14   0   19.92    0.89
 -11  -3   0   20.48    0.89
  14 -11   0   20.54    0.86
  14 -11   0   19.80    0.92
  12   2   0   31.32    1.06
  12   2   0   32.71    1.17
  12   2   0   31.78    1.18
 -14  12   0   31.58    1.21
 -14  12   0   31.55    1.09
  14 -12   0   31.74    1.11
 -12  -2   0   30.46    1.17
  14 -12   0   31.47    1.12
  -2  14   0   31.44    1.11
  14 -12   0   31.74    1.21
  -2  14   0   31.48    1.18
  13   1   0    0.08    0.17
 -14  13   0    0.36    0.21
  13   1   0    0.37    0.22
  13   1   0    0.28    0.19
 -14  13   0    0.35    0.19
  -1  14   0    0.31    0.20
  14 -13   0    0.25    0.19
  -1  14   0    0.25    0.20
 -13  -1   0    0.34    0.20
  14 -13   0    0.43    0.22
  14 -13   0    0.41    0.21
 -14  14   0   12.30    0.69
  14   0   0   10.77    0.67
 -14  14   0   11.08    0.69
  14   0   0   12.36    0.67
  14   0   0   12.67    0.73
   0  14   0   12.49    0.73
  14 -14   0   12.25    0.68
  14 -14   0   12.36    0.72
 -14   0   0   11.67    0.71
  14 -14   0   12.22    0.66
  14 -15   0   12.13    0.69
 -15   1   0   11.23    0.72
   1  14   0   12.01    0.74
 -14  15   0   11.87    0.73
  15  -1   0   12.86    0.74
  15  -1   0   12.26    0.74
 -14  15   0   12.36    0.71
  15  -1   0   12.28    0.69
   2  13   0   11.08    0.66
   2  13   0   10.14    0.67
 -15   2   0   10.72    0.67
  13 -15   0    9.98    0.61
 -15   2   0    9.91    0.63
  15  -2   0   10.03    0.63
 -13  15   0    9.69    0.62
 -13  15   0   10.65    0.66
  15  -2   0   10.75    0.62
  15  -2   0   11.44    0.72
  15  -2   0   10.90    0.65
  12 -15   0   67.51    1.78
 -15   3   0   63.53    1.90
   3  12   0   63.91    1.91
 -15   3   0   62.36    1.88
  15  -3   0   62.00    1.80
 -12  15   0   61.51    1.82
  15  -3   0   65.33    1.98
  15  -3   0   63.36    1.76
  15  -3   0   64.63    1.84
 -12  15   0   66.63    1.90
   4  11   0   28.33    1.07
   4  11   0   26.11    1.07
 -15   4   0   25.99    1.06
 -15   4   0   26.65    1.08
  15  -4   0   27.03    1.02
  15  -4   0   26.78    1.03
 -11  15   0   26.93    1.05
  15  -4   0   26.88    1.12
 -11  15   0   25.90    1.03
  15  -4   0   26.55    1.00
 -15   5   0    8.21    0.58
   5  10   0    9.40    0.60
   5  10   0    8.62    0.58
 -15   5   0    9.06    0.58
  15  -5   0    8.49    0.57
  15  -5   0    8.05    0.60
  -5 -10   0    8.95    0.55
 -10  15   0    8.25    0.56
  15  -5   0    8.91    0.56
 -15   6   0   28.82    1.13
   6   9   0   28.79    1.10
   6   9   0   28.19    1.09
 -15   6   0   29.65    1.08
  15  -6   0   27.62    1.06
  15  -6   0   29.07    1.05
  15  -6   0   27.47    1.15
  -9  15   0   28.46    1.08
  -6  -9   0   29.50    1.07
   7   8   0   29.52    1.10
   7   8   0   28.10    1.06
 -15   7   0   29.98    1.07
 -15   7   0   27.73    1.13
  15  -7   0   27.67    1.06
  -8  15   0   29.25    1.06
  -7  -8   0   28.90    1.07
  -8  15   0   28.91    1.08
  15  -7   0   28.00    1.04
  15  -7   0   27.40    1.14
 -15   8   0   27.41    1.12
   8   7   0   28.85    1.06
   8   7   0   28.81    1.10
  -7  15   0   29.77    1.08
  -8  -7   0   28.95    1.09
  15  -8   0   27.69    1.15
  -7  15   0   28.78    1.08
  15  -8   0   29.55    1.08
  15  -8   0   28.16    1.05
   9   6   0   29.07    1.06
   9   6   0   28.87    1.11
 -15   9   0   28.02    1.13
  -6  15   0   29.12    1.09
  -9  -6   0   27.97    1.08
  -6  15   0   29.51    1.09
  15  -9   0   29.68    1.08
  15  -9   0   28.27    1.16
  15  -9   0   28.47    1.07
  10   5   0    8.95    0.60
 -15  10   0    8.06    0.59
  15 -10   0    9.79    0.59
  -5  15   0    8.99    0.58
  -5  15   0    9.15    0.59
  15 -10   0    8.44    0.57
 -10  -5   0    8.38    0.57
  15 -10   0    8.71    0.61
 -15  11   0   26.47    1.12
  11   4   0   27.44    1.09
  15 -11   0   29.34    1.08
  15 -11   0   26.58    1.13
  -4  15   0   27.59    1.06
  15 -11   0   27.47    1.05
  -4  15   0   26.91    1.08
  12   3   0   63.50    1.88
 -15  12   0   64.59    1.75
 -15  12   0   61.49    1.92
 -12  -3   0   60.10    1.86
  15 -12   0   62.64    1.80
  15 -12   0   62.77    1.79
  -3  15   0   64.28    1.89
  15 -12   0   61.55    1.93
  -3  15   0   65.30    1.82
  13   2   0    9.91    0.65
 -15  13   0    9.84    0.67
 -15  13   0    9.96    0.60
  15 -13   0   10.81    0.70
  15 -13   0   10.53    0.64
  -2  15   0   11.45    0.70
 -13  -2   0   11.31    0.68
  -2  15   0   10.68    0.63
  15 -13   0   10.98    0.65
  14   1   0   12.90    0.74
 -15  14   0   11.37    0.66
 -15  14   0   11.04    0.71
  14   1   0   11.52    0.65
  -1  15   0   11.77    0.67
 -14  -1   0   11.66    0.72
  15 -14   0   11.79    0.68
  15 -14   0   11.57    0.68
  15 -14   0   11.83    0.73
  -1  15   0   11.40    0.72
  15   0   0   19.42    0.96
  15   0   0   20.78    0.97
 -15  15   0   20.54    0.99
  15   0   0   20.70    0.92
 -15  15   0   20.33    0.93
  15 -15   0   20.37    0.91
 -15   0   0   18.56    0.96
   0  15   0   19.04    0.97
  15 -15   0   19.20    0.90
 -16   1   0    7.56    0.62
  15 -16   0    8.56    0.60
   1  15   0    7.95    0.63
 -15  16   0    7.43    0.57
  16  -1   0    8.80    0.62
  16  -1   0    8.11    0.64
 -15  16   0    7.39    0.60
  16  -1   0    7.74    0.61
 -16   2   0    1.87    0.36
   2  14   0    2.30    0.40
  14 -16   0    1.90    0.35
  16  -2   0    2.04    0.35
  16  -2   0    2.30    0.39
  16  -2   0    2.47    0.42
 -14  16   0    2.54    0.40
 -14  16   0    2.02    0.37
  16  -2   0    2.26    0.38
   3  13   0    3.73    0.48
 -16   3   0    4.57    0.46
   3  13   0    3.53    0.45
 -16   3   0    3.87    0.48
  16  -3   0    3.60    0.46
  16  -3   0    3.88    0.47
 -13  16   0    3.70    0.45
  16  -3   0    3.93    0.45
 -13  16   0    3.86    0.47
  16  -3   0    4.62    0.48
 -16   4   0    0.18    0.20
 -16   4   0    0.27    0.20
   4  12   0    0.43    0.23
   4  12   0    0.83    0.26
  16  -4   0    0.57    0.23
 -12  16   0    0.48    0.22
  16  -4   0    0.40    0.24
  16  -4   0    0.57    0.23
 -16   5   0   10.27    0.67
   5  11   0   10.88    0.67
 -16   5   0   11.42    0.68
   5  11   0   10.04    0.66
 -11  16   0   10.05    0.64
  16  -5   0   10.46    0.65
  16  -5   0   10.61    0.71
  16  -5   0    8.74    0.59
 -16   6   0    3.06    0.43
 -16   6   0    3.23    0.42
   6  10   0    3.23    0.43
   6  10   0    3.07    0.42
  16  -6   0    2.98    0.40
 -10  16   0    3.27    0.43
  16  -6   0    3.61    0.48
  16  -6   0    3.22    0.42
 -16   7   0    5.59    0.50
   7   9   0    5.64    0.48
   7   9   0    5.11    0.48
 -16   7   0    6.48    0.50
  16  -7   0    6.12    0.49
  16  -7   0    5.18    0.50
  -9  16   0    5.32    0.47
  16  -7   0    5.64    0.49
  -7  -9   0    6.36    0.50
 -16   8   0   64.54    1.96
   8   8   0   62.12    1.87
   8   8   0   63.09    1.84
  16  -8   0   62.03    1.97
  16  -8   0   63.97    1.84
  -8  16   0   63.28    1.85
  16  -8   0   62.89    1.81
  -8  -8   0   62.61    1.85
  -8  16   0   63.73    1.83
   9   7   0    5.55    0.47
 -16   9   0    5.52    0.50
   9   7   0    5.71    0.50
  -7  16   0    6.45    0.51
  -9  -7   0    5.11    0.47
  16  -9   0    6.28    0.51
  -7  16   0    5.56    0.47
  16  -9   0    5.58    0.48
  16  -9   0    5.88    0.53
  10   6   0    3.23    0.44
 -16  10   0    2.53    0.40
  16 -10   0    2.75    0.42
  16 -10   0    2.95    0.41
  -6  16   0    2.49    0.37
  -6  16   0    3.51    0.44
  16 -10   0    3.19    0.42
 -10  -6   0    3.34    0.43
  11   5   0   10.90    0.68
 -16  11   0    9.72    0.66
 -11  -5   0   11.18    0.69
  16 -11   0    9.89    0.69
  16 -11   0   10.86    0.65
  -5  16   0   10.19    0.64
  16 -11   0   10.61    0.65
  -5  16   0   10.91    0.67
  12   4   0    0.60    0.25
 -16  12   0    0.61    0.25
  16 -12   0    0.61    0.25
  16 -12   0    0.48    0.23
  -4  16   0    0.21    0.20
 -12  -4   0    0.45    0.23
  -4  16   0    0.53    0.23
  16 -12   0    0.54    0.24
  13   3   0    3.16    0.45
 -16  13   0    3.83    0.50
 -13  -3   0    3.50    0.47
  16 -13   0    4.27    0.49
  -3  16   0    3.87    0.46
  16 -13   0    4.42    0.53
  16 -13   0    3.47    0.45
  -3  16   0    3.88    0.48
  14   2   0    2.47    0.41
 -16  14   0    1.72    0.35
 -16  14   0    2.28    0.37
  -2  16   0    1.91    0.37
  16 -14   0    1.85    0.37
  16 -14   0    2.25    0.37
 -14  -2   0    2.09    0.39
  16 -14   0    2.26    0.38
  -2  16   0    2.27    0.37
 -16  15   0    7.47    0.61
  15   1   0    7.49    0.60
 -16  15   0    8.05    0.58
 -15  -1   0    7.87    0.62
  16 -15   0    7.42    0.58
  16 -15   0    8.68    0.60
  -1  16   0    7.90    0.63
  16 -15   0    7.51    0.61
  16   0   0   13.23    0.79
  16   0   0   13.50    0.76
 -16  16   0   13.13    0.81
 -16  16   0   13.02    0.76
 -16   0   0   12.39    0.79
  16 -16   0   13.21    0.76
   0  16   0   12.76    0.81
  16 -17   0    4.43    0.52
   1  16   0    4.13    0.54
  17  -1   0    4.34    0.54
  17  -1   0    4.31    0.53
 -16  17   0    4.24    0.54
 -16  17   0    4.27    0.51
   2  15   0    6.40    0.58
 -17   2   0    5.06    0.53
 -15  17   0    5.10    0.53
  17  -2   0    5.50    0.54
  17  -2   0    6.02    0.53
 -15  17   0    6.22    0.55
   3  14   0   10.24    0.72
 -17   3   0   11.03    0.73
  17  -3   0   11.59    0.71
 -14  17   0   11.52    0.72
  17  -3   0   10.41    0.65
 -17   4   0    0.69    0.25
   4  13   0    0.79    0.27
 -17   4   0    0.69    0.27
   4  13   0    0.80    0.28
  17  -4   0    0.94    0.28
 -13  17   0    0.90    0.29
  17  -4   0    0.88    0.27
  17  -4   0    1.17    0.32
   5  12   0   24.36    1.09
 -17   5   0   24.80    1.08
 -17   5   0   24.37    1.10
   5  12   0   23.89    1.06
  17  -5   0   24.58    1.14
 -12  17   0   23.43    1.04
  17  -5   0   23.80    1.00
  17  -5   0   23.44    1.03
   6  11   0    2.40    0.41
 -17   6   0    2.71    0.41
 -17   6   0    2.52    0.41
   6  11   0    2.02    0.37
 -11  17   0    2.69    0.41
  17  -6   0    3.17    0.44
  17  -6   0    2.64    0.43
  17  -6   0    2.60    0.39
   7  10   0    1.96    0.36
   7  10   0    2.53    0.41
 -17   7   0    2.48    0.38
 -17   7   0    1.89    0.36
  -7 -10   0    1.94    0.34
 -10  17   0    2.44    0.38
  17  -7   0    1.88    0.35
  17  -7   0    1.85    0.38
  17  -7   0    1.86    0.36
   8   9   0   12.10    0.72
 -17   8   0   12.26    0.76
   8   9   0   12.61    0.75
  -8  -9   0   13.15    0.74
  17  -8   0   11.95    0.72
  -9  17   0   13.21    0.76
  17  -8   0   12.26    0.72
   9   8   0   12.33    0.74
   9   8   0   11.78    0.70
 -17   9   0   11.84    0.76
  -8  17   0   12.50    0.73
  -8  17   0   12.22    0.70
  17  -9   0   12.13    0.77
  17  -9   0   12.33    0.73
  17  -9   0   12.25    0.72
  -9  -8   0   11.89    0.72
 -17  10   0    1.80    0.36
  10   7   0    1.90    0.37
  17 -10   0    1.84    0.36
  17 -10   0    1.95    0.38
  -7  17   0    2.06    0.36
 -10  -7   0    2.39    0.39
  17 -10   0    2.10    0.37
  -7  17   0    2.03    0.36
 -17  11   0    2.28    0.41
  11   6   0    2.47    0.41
  -6  17   0    2.32    0.39
 -11  -6   0    2.65    0.41
  17 -11   0    1.97    0.39
  17 -11   0    2.70    0.41
  17 -11   0    2.48    0.39
  -6  17   0    2.38    0.39
 -17  12   0   23.67    1.11
  12   5   0   23.96    1.08
  17 -12   0   24.30    1.05
  17 -12   0   25.15    1.15
  -5  17   0   23.35    1.07
 -12  -5   0   23.97    1.08
  -5  17   0   24.33    1.05
  17 -12   0   24.29    1.04
 -17  13   0    1.18    0.32
  13   4   0    0.85    0.29
 -13  -4   0    0.89    0.28
  17 -13   0    0.89    0.29
  17 -13   0    0.47    0.25
  17 -13   0    0.84    0.29
  -4  17   0    1.14    0.30
  -4  17   0    0.68    0.26
  14   3   0   10.97    0.74
 -17  14   0   10.81    0.75
  17 -14   0   11.07    0.70
  17 -14   0   11.20    0.70
  -3  17   0   10.73    0.73
  -3  17   0   10.95    0.70
 -14  -3   0   10.19    0.71
 -17  15   0    5.38    0.55
  15   2   0    5.50    0.55
  -2  17   0    4.97    0.59
  17 -15   0    5.46    0.51
 -15  -2   0    4.67    0.56
  17 -15   0    5.04    0.55
 -17  16   0    4.15    0.51
  16   1   0    3.87    0.52
 -17  16   0    4.50    0.57
  -1  17   0    3.94    0.54
  17 -16   0    4.28    0.53
   3  15   0   13.66    0.86
 -15  18   0   13.53    0.81
  18  -3   0   14.27    0.83
 -18   4   0    4.92    0.58
   4  14   0    5.22    0.61
  18  -4   0    5.36    0.59
  18  -4   0    5.30    0.51
 -14  18   0    4.81    0.56
 -18   5   0    4.43    0.55
 -18   5   0    4.42    0.53
   5  13   0    5.27    0.54
   5  13   0    4.51    0.56
 -13  18   0    5.52    0.54
  18  -5   0    4.96    0.54
  18  -5   0    4.67    0.54
   6  12   0   23.04    1.06
   6  12   0   23.14    1.08
 -18   6   0   22.85    1.06
 -18   6   0   21.67    1.07
  18  -6   0   23.16    1.05
  18  -6   0   24.15    1.05
 -18   7   0    4.86    0.55
 -18   7   0    4.83    0.57
   7  11   0    4.93    0.50
   7  11   0    4.18    0.54
 -11  18   0    5.10    0.51
  18  -7   0    4.37    0.53
  18  -7   0    4.49    0.52
   8  10   0   17.47    0.92
   8  10   0   17.57    0.90
 -18   8   0   17.12    0.94
 -10  18   0   17.03    0.90
  18  -8   0   17.41    0.90
  18  -8   0   18.06    0.90
  -8 -10   0   17.22    0.89
   9   9   0   43.18    1.54
  -9  18   0   41.75    1.49
  -9  -9   0   41.58    1.48
  18  -9   0   40.65    1.48
  18  -9   0   42.43    1.47
 -18  10   0   17.70    0.95
  10   8   0   18.11    0.96
  18 -10   0   16.35    0.87
  18 -10   0   17.65    0.90
 -10  -8   0   17.66    0.91
  -8  18   0   16.98    0.90
  -8  18   0   18.14    0.90
  11   7   0    4.48    0.55
 -18  11   0    4.73    0.50
  18 -11   0    4.27    0.52
  -7  18   0    4.34    0.51
  -7  18   0    4.16    0.51
  18 -11   0    4.66    0.54
 -11  -7   0    4.44    0.53
 -18  12   0   21.35    1.08
  12   6   0   21.19    1.05
  -6  18   0   22.00    1.03
 -12  -6   0   22.82    1.07
  18 -12   0   22.29    1.03
  -6  18   0   23.35    1.06
  18 -12   0   22.14    1.03
 -18  13   0    4.76    0.58
  13   5   0    4.58    0.56
 -13  -5   0    4.55    0.56
  -5  18   0    4.13    0.52
  18 -13   0    5.16    0.57
  18 -13   0    4.44    0.53
  -5  18   0    4.63    0.54
  14   4   0    4.87    0.59
 -18  14   0    4.38    0.56
 -14  -4   0    5.32    0.54
  -4  18   0    5.56    0.53
  18 -14   0    4.78    0.55
  18 -14   0    5.42    0.52
  -4  18   0    4.91    0.58
  15   3   0   15.01    0.89
  -3  18   0   13.83    0.86
  18 -15   0   14.92    0.85
  18 -15   0   14.80    0.83
   6  13   0    2.60    0.45
   6  13   0    3.15    0.49
  19  -6   0    3.91    0.51
  19  -6   0    2.46    0.43
 -13  19   0    2.55    0.46
   7  12   0    3.60    0.51
   7  12   0    3.96    0.53
  19  -7   0    3.53    0.50
 -12  19   0    3.58    0.51
  19  -7   0    3.57    0.48
   8  11   0    1.27    0.35
   8  11   0    1.21    0.33
  19  -8   0    1.24    0.33
 -11  19   0    2.10    0.40
  19  -8   0    0.94    0.29
   9  10   0    5.10    0.53
   9  10   0    5.39    0.62
  -9 -10   0    4.37    0.53
  19  -9   0    5.52    0.53
  19  -9   0    4.37    0.54
 -10  19   0    4.90    0.58
  10   9   0    5.02    0.60
 -10  -9   0    5.65    0.54
  19 -10   0    5.00    0.57
  -9  19   0    4.83    0.56
  19 -10   0    4.87    0.57
  11   8   0    1.36    0.35
  -8  19   0    1.58    0.36
  19 -11   0    0.95    0.31
 -11  -8   0    1.23    0.33
  19 -11   0    1.76    0.38
  -7  19   0    3.38    0.48
  -7  19   0    2.88    0.45
  19 -12   0    3.06    0.46
  19 -12   0    3.94    0.52
  19 -13   0    3.23    0.49
  -6  19   0    3.71    0.51
  -6  19   0    2.85    0.45
  19 -13   0    3.06    0.47
   0   0   1  150.46    4.53
   1  -1  -1   32.76    0.98
   1   0   1   34.47    1.05
   0  -1   1   34.24    1.06
  -1   1   1   34.90    0.98
   1   0  -1   34.58    1.03
   1  -1   1   34.80    1.07
   0   1   1   34.39    1.03
  -1   0   1   34.80    1.04
   2  -1  -1    1.38    0.12
   2  -1  -1    1.53    0.11
  -1  -1  -1    1.68    0.18
   1   1   1    1.00    0.11
   1   1   1    1.17    0.16
   1  -2   1    1.05    0.16
   3  -2  -1  220.03    4.78
   3  -2  -1  183.07    6.04
  -2  -1  -1  226.11    5.91
   2   1   1  224.56    4.78
   1  -3   1  221.94    6.44
  -3   2   1  217.44    4.88
  -3   2   1  233.09    6.11
   2   1   1  216.27    6.41
   2  -2  -1   24.30    0.70
   2  -2  -1   24.55    0.68
   2  -2  -1   24.52    0.68
   0   2  -1   24.10    0.83
   2  -2  -1   23.84    0.62
   2   0   1   24.48    0.62
   2   0   1   23.68    0.84
   1  -2  -1    1.39    0.15
   1   1  -1    1.51    0.16
   1  -2  -1    1.44    0.13
  -1   2   1    1.34    0.11
   2  -1   1    1.14    0.16
  -1   2   1    1.13    0.12
   2   0  -1   23.41    0.76
   0  -2  -1   23.28    0.73
   2  -2   1   22.75    0.81
   0   2   1   23.15    0.74
   0   2   1   22.27    0.59
  -1  -2  -1  221.28    5.96
   3  -1  -1  218.34    4.68
   3  -1  -1  214.02    6.25
   2  -3   1  218.54    6.32
   1   2   1  217.79    4.75
  -2  -2  -1   38.12    1.15
   4  -2  -1   38.92    0.94
   2   2   1   37.65    1.28
   2  -4   1   37.71    1.26
   2   2   1   37.61    0.93
   2   2   1   37.34    0.82
   5  -3  -1   87.92    1.91
  -2   5  -1   87.12    1.87
  -2   5  -1   84.24    1.83
  -3  -2  -1   84.52    2.31
  -2   5  -1   85.27    2.55
  -2   5  -1   84.66    1.79
   2  -5   1   82.08    1.82
   3   2   1   83.73    1.74
   3   2   1   90.66    2.61
   3   2   1   83.04    1.83
  -5   3   1   87.32    1.88
   2  -5   1   82.90    1.80
   3   2   1   84.08    1.81
   3   2   1   84.50    1.88
  -3  -1  -1   90.17    2.37
  -1   4  -1   89.98    2.61
   4  -3  -1   91.35    1.95
   3   1   1   89.07    1.93
   3   1   1   86.91    2.63
   3   1   1   86.28    1.78
  -4   3   1   89.39    2.41
   3  -3  -1  387.64    9.75
   3  -3  -1  382.29    8.16
  -3   0  -1  376.54    9.94
   0   3  -1  373.73   11.20
  -3   3   1  385.98    8.17
   3   0   1  377.74    8.13
   3   0   1  368.50   11.11
   2  -3  -1  223.06    4.98
   2  -3  -1  231.30    6.04
   1   2  -1  216.76    6.70
   3  -1   1  219.68    4.82
   3  -1   1  213.53    6.72
  -2   3   1  221.97    4.91
   1  -3  -1  219.86    5.82
   1  -3  -1  209.84    4.67
   2   1  -1  221.12    6.48
   3  -2   1  214.73    6.59
  -1   3   1  211.88    4.61
   3   0  -1  376.46    7.62
   0  -3  -1  383.39    9.82
   3   0  -1  368.87   10.50
   0   3   1  316.34   10.35
   0   3   1  372.01    7.70
   3  -3   1  354.44   10.55
   4  -1  -1   78.09    2.37
   4  -1  -1   84.60    1.80
  -3   4  -1   85.38    1.81
  -1  -3  -1   85.04    2.24
   1   3   1   83.81    1.67
   1   3   1   83.44    1.81
  -4   1   1   81.53    1.80
   3  -4   1   81.72    2.45
  -3   5  -1   90.58    1.98
  -3   5  -1   89.39    1.93
  -2  -3  -1   91.43    2.46
   5  -2  -1   92.65    2.00
   2   3   1   90.95    1.95
  -5   2   1   92.23    1.99
   2   3   1   89.00    1.85
   3  -5   1   90.63    1.91
   3  -5   1   88.42    1.93
   3  -5   1   89.03    2.69
   2   3   1   89.76    1.98
   2   3   1   97.35    2.74
   6  -3  -1  129.79    2.74
  -3   6  -1  127.69    2.65
  -3  -3  -1  131.05    2.60
  -3   6  -1  129.25    3.67
  -3  -3  -1  129.65    3.35
  -3   6  -1  132.47    2.71
  -3   6  -1  126.61    2.58
  -3   6  -1  126.44    2.55
   3   3   1  122.53    2.60
  -6   3   1  129.57    2.73
   3   3   1  126.87    2.71
   3  -6   1  123.86    2.59
   3   3   1  123.32    2.55
   3   3   1  124.65    2.65
   3   3   1  122.33    3.72
   3  -6   1  125.01    2.60
  -6   3   1  122.49    2.57
   3  -6   1  121.23    2.63
   3  -6   1  125.20    3.67
   7  -4  -1   37.93    0.97
  -3   7  -1   38.50    0.98
   7  -4  -1   39.70    1.08
  -4  -3  -1   40.20    1.00
   7  -4  -1   37.90    1.25
  -3   7  -1   39.77    1.04
  -4  -3  -1   38.14    1.28
  -3   7  -1   37.46    1.38
  -3   7  -1   38.61    0.98
  -3   7  -1   38.32    1.03
   4   3   1   38.50    0.96
   3  -7   1   40.28    0.99
   4   3   1   41.20    1.04
  -7   4   1   40.47    1.07
  -7   4   1   39.48    0.96
   3  -7   1   39.64    0.99
   4   3   1   40.50    0.95
   4   3   1   39.76    1.48
   4   3   1   40.70    1.04
   4   3   1   40.80    1.06
  -2   6  -1   99.34    2.14
  -2   6  -1   97.15    2.08
  -4  -2  -1  101.08    2.69
   6  -4  -1  102.29    2.77
  -4  -2  -1  101.63    2.12
   6  -4  -1   99.89    2.22
  -2   6  -1   99.37    2.95
  -2   6  -1  100.01    2.16
   4   2   1   95.58    2.04
   2  -6   1   97.72    2.09
  -6   4   1   98.28    2.19
   4   2   1   97.46    2.14
   4   2   1   97.42    2.19
   2  -6   1   98.29    2.10
   4   2   1   95.22    2.11
   4   2   1  105.06    3.06
  -1   5  -1    3.20    0.22
  -1   5  -1    3.20    0.22
  -4  -1  -1    3.12    0.20
  -1   5  -1    2.76    0.28
  -4  -1  -1    2.91    0.26
  -1   5  -1    3.13    0.21
   5  -4  -1    2.87    0.21
   5  -4  -1    3.08    0.17
   4   1   1    3.04    0.30
   1  -5   1    2.99    0.21
   4   1   1    3.16    0.17
   4   1   1    2.97    0.21
   4   1   1    3.05    0.21
   4   1   1    2.91    0.21
  -5   4   1    3.33    0.22
   1  -5   1    3.11    0.21
   4  -4  -1   47.49    1.23
  -4   0  -1   48.93    1.50
  -4   0  -1   47.66    1.18
   0   4  -1   45.97    1.65
   4   0   1   55.61    1.21
   4   0   1   55.62    1.71
   4   0   1   56.16    1.13
   0  -4   1   55.50    1.22
  -4   4   1   55.83    1.26
   4   0   1   55.78    1.26
   0  -4   1   56.28    1.20
  -4   1  -1   89.53    1.87
   3  -4  -1   91.68    2.33
   3  -4  -1   92.23    1.95
   1   3  -1   90.42    2.62
   4  -1   1   87.16    1.87
   4  -1   1   87.39    2.63
  -1  -3   1   86.33    1.86
   4  -1   1   89.43    1.94
   4  -1   1   88.22    1.79
  -3   4   1   88.09    1.93
  -4   2  -1   37.89    0.91
   2   2  -1   38.69    1.27
   2  -4  -1   37.38    1.13
   2  -4  -1   36.64    1.08
   2  -4  -1   38.04    0.94
  -2   4   1   37.79    0.93
   4  -2   1   38.79    0.93
   4  -2   1   37.31    1.27
   4  -2   1   38.64    0.82
   4  -2   1   37.28    0.90
   1  -4  -1   82.73    2.22
   1  -4  -1   82.87    1.80
  -4   3  -1   84.06    1.79
   3   1  -1   84.14    2.43
  -4   3  -1   85.06    1.75
   4  -3   1   81.01    1.78
   4  -3   1   81.37    1.66
  -3  -1   1   80.46    1.78
   4  -3   1   81.49    2.44
  -3  -1   1   82.94    1.74
  -1   4   1   81.20    1.79
   4   0  -1   54.68    1.75
  -4   4  -1   51.71    1.30
   4   0  -1   52.64    1.28
  -4   4  -1   51.71    1.26
   0  -4  -1   51.61    1.62
   0   4   1   60.31    1.32
   0   4   1   53.44    1.73
   4  -4   1   61.82    1.30
   4  -4   1   60.71    1.28
  -4   0   1   60.95    1.28
  -4   0   1   63.16    1.33
   4  -4   1   59.84    1.79
   4  -4   1   60.39    1.20
  -1  -4  -1    2.85    0.27
   5  -1  -1    2.92    0.21
  -4   5  -1    2.83    0.21
  -4   5  -1    2.99    0.21
  -4   5  -1    2.87    0.20
   1   4   1    3.10    0.22
  -5   1   1    2.64    0.21
   4  -5   1    2.91    0.16
   1   4   1    2.90    0.16
   4  -5   1    3.10    0.28
   1   4   1    2.81    0.28
   4  -5   1    3.19    0.21
  -5   1   1    2.76    0.20
   4  -5   1    2.82    0.19
   1   4   1    2.80    0.20
  -2  -4  -1  103.18    2.07
  -4   6  -1  101.55    2.09
  -2  -4  -1  101.92    2.73
   6  -2  -1  103.06    2.22
  -4   6  -1  100.56    2.07
  -4   6  -1  104.40    2.20
  -4   6  -1  100.06    2.14
   4  -6   1   99.17    2.10
   2   4   1   97.08    2.15
   2   4   1   98.41    2.05
  -6   2   1   99.27    2.11
   2   4   1  100.91    3.00
   2   4   1   98.10    2.18
  -6   2   1   99.19    2.20
   4  -6   1   97.66    2.13
   2   4   1   97.78    2.09
   4  -6   1   98.78    2.96
   2   4   1   95.51    2.06
   4  -6   1   96.74    2.05
   4  -6   1   97.11    2.08
  -4   7  -1   37.11    1.02
   7  -3  -1   37.89    1.05
  -3  -4  -1   37.36    0.95
  -3  -4  -1   37.31    1.26
  -4   7  -1   37.01    0.95
  -4   7  -1   36.29    0.96
   7  -3  -1   38.13    0.96
  -4   7  -1   35.69    0.98
   3   4   1   40.30    1.44
   3   4   1   39.94    0.93
   3   4   1   39.74    1.03
  -7   3   1   39.82    1.06
   3   4   1   39.59    1.02
   4  -7   1   38.91    0.92
   4  -7   1   38.59    1.38
   3   4   1   39.18    0.96
   4  -7   1   39.80    0.98
   3   4   1   38.03    0.99
   4  -7   1   38.87    0.97
  -7   3   1   39.06    0.97
   4  -7   1   38.23    0.95
  -4   8  -1    2.74    0.30
  -4  -4  -1    2.43    0.22
   8  -4  -1    2.74    0.23
  -4   8  -1    2.66    0.23
   8  -4  -1    2.62    0.26
  -4  -4  -1    2.64    0.29
   8  -4  -1    2.46    0.26
  -4   8  -1    3.34    0.27
   8  -4  -1    2.71    0.24
  -4   8  -1    2.92    0.24
  -4   8  -1    2.45    0.22
   8  -4  -1    2.46    0.19
   4  -8   1    1.87    0.20
  -8   4   1    1.85    0.24
   4   4   1    2.04    0.20
   4  -8   1    1.79    0.18
   4   4   1    2.32    0.32
   4   4   1    1.80    0.23
   4   4   1    2.09    0.24
   4   4   1    2.18    0.19
   4  -8   1    2.22    0.22
   4   4   1    1.77    0.22
  -8   4   1    2.25    0.22
   9  -5  -1   66.80    1.70
   9  -5  -1   66.35    1.54
  -4   9  -1   67.41    2.19
   9  -5  -1   67.06    1.57
  -5  -4  -1   66.44    1.59
  -4   9  -1   65.09    1.62
  -4   9  -1   67.52    1.57
  -4   9  -1   65.08    1.61
  -4   9  -1   66.81    1.54
  -5  -4  -1   65.40    2.01
   5   4   1   66.17    1.61
   4  -9   1   65.82    1.54
   4  -9   1   65.00    1.55
   5   4   1   64.40    1.63
   4  -9   1   64.46    1.51
  -9   5   1   64.84    1.54
  -9   5   1   64.08    1.67
   5   4   1   65.24    1.51
   5   4   1   63.71    1.61
   5   4   1   68.94    2.35
   5   4   1   64.69    1.51
   8  -5  -1   76.87    1.71
   8  -5  -1   77.80    1.89
  -5  -3  -1   78.84    2.26
  -3   8  -1   77.45    1.74
  -5  -3  -1   79.29    1.79
   8  -5  -1   77.82    1.75
  -3   8  -1   78.52    2.48
  -3   8  -1   80.53    1.83
  -3   8  -1   76.09    1.81
   8  -5  -1   80.16    2.31
  -3   8  -1   76.66    1.74
  -8   5   1   77.48    1.87
   5   3   1   77.15    1.71
   3  -8   1   77.93    1.75
  -8   5   1   74.95    1.65
   3  -8   1   78.95    1.76
   5   3   1   80.82    2.61
   5   3   1   74.90    1.70
   5   3   1   76.45    1.85
   5   3   1   77.97    1.82
   5   3   1   77.35    1.81
  -8   5   1   77.85    1.72
   5   3   1   78.47    1.71
  -5  -2  -1   10.69    0.54
  -2   7  -1   10.18    0.43
  -2   7  -1   10.06    0.44
   7  -5  -1   10.58    0.47
  -2   7  -1    9.98    0.58
  -2   7  -1   10.41    0.42
   7  -5  -1   10.28    0.45
   7  -5  -1    9.76    0.42
  -2   7  -1   10.26    0.40
   7  -5  -1    9.94    0.40
  -5  -2  -1   10.39    0.43
   5   2   1   10.72    0.38
   5   2   1   10.09    0.43
   5   2   1   10.54    0.45
  -7   5   1   10.46    0.45
   5   2   1   10.33    0.44
   5   2   1   12.48    0.69
   5   2   1   10.81    0.40
  -7   5   1   10.88    0.38
   2  -7   1   11.17    0.42
   2  -7   1   10.18    0.41
  -5  -1  -1   23.37    0.88
   6  -5  -1   23.70    0.77
   6  -5  -1   23.42    0.75
  -5  -1  -1   22.73    0.70
  -1   6  -1   23.70    0.69
  -1   6  -1   22.76    0.71
  -1   6  -1   23.17    0.98
  -1   6  -1   23.76    0.71
   5   1   1   26.43    0.65
   1  -6   1   27.21    0.72
   5   1   1   27.45    1.07
   1  -6   1   26.31    0.71
   5   1   1   26.51    0.74
   5   1   1   26.55    0.76
   5   1   1   26.42    0.73
   5  -5  -1   29.67    0.83
   0   5  -1   29.37    1.10
   0   5  -1   29.64    0.79
  -5   0  -1   28.65    0.78
   0   5  -1   30.48    0.80
   0   5  -1   29.25    0.77
   5  -5  -1   30.39    0.83
  -5   0  -1   29.45    0.98
   5   0   1   28.73    0.71
   5   0   1   29.33    0.79
   5   0   1   28.78    0.82
  -5   5   1   28.81    0.79
   0  -5   1   28.82    0.78
   0  -5   1   28.92    0.77
   5   0   1   29.57    1.13
   5   0   1   28.05    0.77
   0  -5   1   29.19    0.78
  -5   1  -1    3.01    0.20
   4  -5  -1    2.82    0.22
  -5   1  -1    2.75    0.20
   1   4  -1    2.91    0.21
   1   4  -1    2.79    0.21
   1   4  -1    2.92    0.29
  -1  -4   1    2.89    0.20
   5  -1   1    2.99    0.21
   5  -1   1    3.03    0.17
  -4   5   1    3.26    0.23
   5  -1   1    2.85    0.28
   5  -1   1    2.78    0.21
  -1  -4   1    2.94    0.21
   5  -1   1    2.94    0.20
  -1  -4   1    3.06    0.21
  -5   2  -1   86.08    1.84
   3  -5  -1   84.99    2.28
  -5   2  -1   84.61    1.81
   3  -5  -1   86.72    1.88
   2   3  -1   85.27    2.55
   2   3  -1   85.20    1.79
  -2  -3   1   84.43    1.84
   5  -2   1   83.40    1.73
  -2  -3   1   83.41    1.81
   5  -2   1   84.27    1.88
  -3   5   1   84.57    2.29
   5  -2   1   81.04    1.79
  -3   5   1   84.59    1.87
   5  -2   1   83.47    2.54
   5  -2   1   84.16    1.81
   3   2  -1   91.52    1.89
  -5   3  -1   93.18    1.96
   2  -5  -1   93.42    1.98
   2  -5  -1   93.70    2.44
   3   2  -1   91.45    2.68
  -5   3  -1   90.10    1.91
   5  -3   1   88.07    1.83
   5  -3   1   90.95    2.69
  -2   5   1   75.90    2.49
   5  -3   1   88.98    1.91
   5  -3   1   92.16    1.98
  -3  -2   1   90.31    1.95
   5  -3   1   88.29    1.89
   4   1  -1    2.75    0.27
  -5   4  -1    2.84    0.20
  -5   4  -1    2.92    0.20
  -5   4  -1    2.86    0.20
   1  -5  -1    2.78    0.26
   4   1  -1    3.08    0.19
   1  -5  -1    2.81    0.20
   4   1  -1    2.60    0.19
  -4  -1   1    2.88    0.20
  -1   5   1    2.78    0.19
  -1   5   1    2.82    0.20
  -4  -1   1    2.85    0.21
   5  -4   1    3.10    0.29
   5  -4   1    2.60    0.20
   5  -4   1    2.77    0.16
   5  -4   1    2.60    0.19
   5  -4   1    3.18    0.21
   5  -4   1    2.61    0.20
   5   0  -1   31.17    1.09
   5   0  -1   29.46    0.78
   5   0  -1   29.73    0.75
  -5   5  -1   29.43    0.77
   0  -5  -1   30.00    1.02
  -5   5  -1   28.78    0.80
  -5   5  -1   29.20    0.76
  -5   5  -1   29.88    0.78
   5  -5   1   28.47    0.76
  -5   0   1   29.09    0.75
   5  -5   1   29.37    0.77
   0   5   1   28.71    0.78
   5  -5   1   30.02    1.09
  -5   0   1   29.81    0.79
   5  -5   1   29.26    0.77
   0   5   1   28.90    0.79
   0   5   1   28.19    0.76
   5  -5   1   28.67    0.71
  -5   0   1   28.59    0.80
   6  -1  -1   22.44    0.66
  -5   6  -1   23.05    0.72
  -5   6  -1   21.72    0.68
  -1  -5  -1   22.98    0.91
  -5   6  -1   22.63    0.68
   6  -1  -1   23.34    0.72
  -5   6  -1   22.12    0.67
   1   5   1   25.73    0.72
   5  -6   1   25.61    0.69
   1   5   1   26.14    0.69
   1   5   1   24.83    0.98
   5  -6   1   26.37    0.99
   5  -6   1   26.52    0.70
   5  -6   1   25.83    0.69
   5  -6   1   26.06    0.65
   5  -6   1   25.22    0.70
  -6   1   1   26.08    0.72
   1   5   1   25.21    0.70
  -6   1   1   26.07    0.75
   1   5   1   25.73    0.73
  -5   7  -1   10.12    0.42
  -2  -5  -1   10.38    0.38
  -2  -5  -1    9.97    0.54
  -5   7  -1    9.62    0.39
   7  -2  -1    9.87    0.40
  -5   7  -1   10.42    0.44
   7  -2  -1   10.19    0.39
  -5   7  -1   10.64    0.41
  -5   7  -1    9.14    0.40
   7  -2  -1   10.37    0.45
   2   5   1    9.51    0.59
   2   5   1   10.24    0.37
   5  -7   1   10.15    0.39
   5  -7   1   10.39    0.41
  -7   2   1   10.32    0.45
   2   5   1   10.56    0.42
   2   5   1   10.39    0.43
   5  -7   1   10.47    0.57
   5  -7   1    9.98    0.41
   5  -7   1   10.15    0.40
   2   5   1   10.18    0.41
   5  -7   1   10.24    0.40
  -7   2   1   10.71    0.43
   2   5   1   10.33    0.42
   5  -7   1   10.35    0.37
   8  -3  -1   76.91    1.71
  -5   8  -1   77.91    1.72
  -5   8  -1   74.92    1.77
  -5   8  -1   78.07    1.75
  -3  -5  -1   77.75    1.73
  -5   8  -1   79.06    1.84
   8  -3  -1   78.95    1.72
  -3  -5  -1   77.94    2.28
   8  -3  -1   78.21    1.87
   8  -3  -1   79.92    1.70
   3   5   1   75.93    1.72
   5  -8   1   77.74    2.45
   5  -8   1   75.39    1.69
  -8   3   1   78.79    1.87
   3   5   1   75.51    1.81
  -8   3   1   75.88    1.76
   3   5   1   76.83    1.70
   3   5   1   79.64    2.56
   5  -8   1   76.84    1.73
   5  -8   1   77.82    1.73
   3   5   1   75.36    1.76
   5  -8   1   76.86    1.70
   3   5   1   76.03    1.81
  -5   9  -1   64.53    2.15
   9  -4  -1   65.22    1.54
   9  -4  -1   65.03    1.68
  -5   9  -1   66.69    1.61
  -5   9  -1   64.75    1.63
  -4  -5  -1   66.06    1.55
   9  -4  -1   65.34    2.08
  -5   9  -1   64.66    1.56
  -4  -5  -1   65.00    2.01
   9  -4  -1   65.92    1.53
   9  -4  -1   64.01    1.48
  -5   9  -1   63.84    1.51
   4   5   1   64.84    1.52
   4   5   1   67.07    1.52
  -9   4   1   66.74    1.68
   5  -9   1   64.74    1.50
   4   5   1   66.08    2.28
   5  -9   1   64.77    1.51
   4   5   1   65.26    1.62
  -9   4   1   65.59    1.56
   4   5   1   65.36    1.59
   5  -9   1   67.20    1.54
   4   5   1   65.29    1.61
   4   5   1   63.13    1.47
   5  -9   1   66.37    1.53
  -5  10  -1    0.07    0.12
  10  -5  -1    0.10    0.15
  -5  10  -1   -0.07    0.09
  -5  -5  -1    0.18    0.12
  -5  10  -1    0.00    0.14
  -5  10  -1   -0.01    0.10
  10  -5  -1    0.03    0.12
  -5  -5  -1    0.12    0.14
  -5  10  -1    0.10    0.12
  10  -5  -1    0.23    0.14
   5   5   1    0.06    0.12
   5   5   1    0.03    0.10
   5   5   1    0.06    0.12
   5 -10   1    0.00    0.09
 -10   5   1    0.08    0.12
   5 -10   1    0.05    0.11
   5   5   1    0.25    0.13
 -10   5   1    0.23    0.12
   5   5   1    0.11    0.11
   5 -10   1    0.11    0.11
   5   5   1    0.03    0.17
   5   5   1    0.05    0.12
  -5  11  -1   47.72    1.35
  -5  11  -1   46.43    1.30
  -5  11  -1   47.67    1.33
  11  -6  -1   47.51    1.43
  -5  11  -1   48.61    1.79
  11  -6  -1   48.06    1.31
  -6  -5  -1   48.81    1.32
  11  -6  -1   47.32    1.29
  -6  -5  -1   48.44    1.66
  -5  11  -1   47.25    1.25
 -11   6   1   47.28    1.41
   6   5   1   48.57    1.24
   5 -11   1   48.27    1.24
   6   5   1   47.24    1.23
 -11   6   1   48.51    1.28
   6   5   1   48.50    1.36
   6   5   1   47.75    1.35
   5 -11   1   48.72    1.27
   6   5   1   47.56    1.35
   6   5   1   48.27    1.24
   6   5   1   50.40    1.97
  -6  -4  -1    8.29    0.54
  10  -6  -1    8.34    0.44
  -4  10  -1    9.00    0.47
  -4  10  -1    8.43    0.41
  -4  10  -1    8.75    0.44
  10  -6  -1    8.66    0.49
  -4  10  -1    8.88    0.44
  -4  10  -1    8.66    0.59
  -6  -4  -1    8.33    0.45
  10  -6  -1    8.56    0.44
   6   4   1    7.77    0.44
   6   4   1    8.62    0.39
   6   4   1    8.26    0.42
   6   4   1    8.25    0.44
   6   4   1    8.93    0.67
   6   4   1    8.42    0.41
   4 -10   1    8.20    0.39
 -10   6   1    8.49    0.41
 -10   6   1    8.46    0.48
   4 -10   1    8.18    0.41
   4 -10   1    9.04    0.43
   6   4   1    8.03    0.45
  -3   9  -1   71.88    1.66
  -3   9  -1   71.87    1.72
  -3   9  -1   71.97    1.73
  -3   9  -1   71.40    2.35
  -6  -3  -1   72.16    2.13
   9  -6  -1   71.87    1.67
   9  -6  -1   71.12    1.64
  -3   9  -1   71.58    1.66
  -6  -3  -1   72.29    1.71
   9  -6  -1   70.90    1.80
   6   3   1   70.33    1.76
   6   3   1   69.82    1.72
  -9   6   1   69.04    1.78
   6   3   1   69.12    1.60
   6   3   1   69.35    1.61
  -9   6   1   70.48    1.58
   6   3   1   72.04    2.48
   3  -9   1   70.85    1.66
   3  -9   1   69.69    1.64
   6   3   1   70.25    1.62
   6   3   1   70.27    1.72
  -9   6   1   70.27    1.61
   8  -6  -1   72.77    1.68
  -2   8  -1   75.92    1.67
  -6  -2  -1   72.82    1.73
   8  -6  -1   73.36    1.82
  -2   8  -1   73.83    1.69
  -2   8  -1   73.55    1.76
  -2   8  -1   73.38    2.39
  -2   8  -1   75.60    1.75
  -6  -2  -1   72.90    2.15
   8  -6  -1   73.33    1.65
   6   2   1   74.13    1.64
   6   2   1   74.44    1.79
   6   2   1   74.91    1.66
   6   2   1   75.09    1.76
   6   2   1   79.76    2.56
   2  -8   1   74.64    1.70
  -8   6   1   73.60    1.81
   6   2   1   74.12    1.66
  -8   6   1   72.87    1.62
  -8   6   1   72.95    1.63
   6   2   1   73.65    1.74
   2  -8   1   72.73    1.70
  -1   7  -1   89.07    1.96
  -1   7  -1   87.26    1.96
  -1   7  -1   85.92    1.85
   7  -6  -1   87.80    2.05
  -1   7  -1   86.86    2.71
   7  -6  -1   86.46    1.84
  -6  -1  -1   86.60    1.95
  -1   7  -1   87.15    1.91
   7  -6  -1   85.60    1.88
  -6  -1  -1   85.42    2.42
   6   1   1   82.55    1.93
   6   1   1   85.53    1.86
   6   1   1   87.00    2.02
   6   1   1   87.38    1.86
  -7   6   1   87.32    2.00
   6   1   1   85.10    1.84
   1  -7   1   86.50    1.91
   6   1   1   86.17    1.95
   1  -7   1   84.74    1.91
   6   1   1   86.17    2.77
  -7   6   1   87.63    1.85
  -6   0  -1  221.57    5.60
   0   6  -1  222.67    4.52
  -6   0  -1  227.92    4.48
   0   6  -1  215.91    6.20
  -6   0  -1  222.41    4.45
   6  -6  -1  227.76    5.93
   0   6  -1  218.71    4.39
   6  -6  -1  219.98    4.61
   0   6  -1  222.25    4.47
   6   0   1  219.12    4.61
  -6   6   1  225.81    4.31
   6   0   1  216.54    4.28
   0  -6   1  224.82    4.42
   6   0   1  216.57    4.44
   0  -6   1  213.73    4.38
  -6   6   1  224.23    4.55
   6   0   1  219.86    6.26
   6   0   1  220.71    4.43
   6   0   1  215.30    4.36
  -6   1  -1   23.22    0.69
  -6   1  -1   23.53    0.72
   5  -6  -1   22.86    0.74
   1   5  -1   22.98    0.70
  -6   1  -1   23.74    0.89
   1   5  -1   23.42    1.01
   1   5  -1   23.07    0.70
  -6   1  -1   22.61    0.65
  -5   6   1   26.79    0.73
   6  -1   1   26.52    0.69
  -1  -5   1   26.54    0.72
   6  -1   1   27.07    0.72
   6  -1   1   26.73    1.06
   6  -1   1   26.99    0.66
  -5   6   1   27.10    0.71
   6  -1   1   27.96    0.79
   6  -1   1   26.29    0.74
  -5   6   1   26.27    0.72
  -1  -5   1   26.46    0.72
   2   4  -1   97.28    2.08
   2   4  -1   97.34    2.08
  -6   2  -1   99.86    2.11
  -6   2  -1  100.27    2.13
  -6   2  -1   97.47    2.01
   4  -6  -1  100.24    2.18
   2   4  -1  100.32    2.96
  -4   6   1   98.75    2.17
  -4   6   1   97.92    2.05
   6  -2   1   97.15    2.02
  -2  -4   1   96.87    2.12
  -2  -4   1   99.15    2.10
   6  -2   1   95.25    2.08
   6  -2   1   95.42    2.08
  -4   6   1   98.42    2.09
   6  -2   1   96.37    2.96
   6  -2   1   97.17    2.19
  -4   6   1   94.42    2.65
   3  -6  -1  128.63    3.32
  -6   3  -1  131.39    2.63
   3  -6  -1  129.15    2.71
  -6   3  -1  130.16    2.69
   3   3  -1  132.68    3.70
   3   3  -1  130.67    2.59
   3   3  -1  128.09    2.60
   3   3  -1  131.53    2.57
  -6   3  -1  126.84    2.52
   6  -3   1  125.23    2.55
   6  -3   1  123.15    3.67
   6  -3   1  123.74    2.60
   6  -3   1  125.28    2.72
  -3  -3   1  125.79    2.62
  -3   6   1  105.41    3.42
   6  -3   1  122.73    2.59
  -3  -3   1  122.77    2.66
  -3   6   1  122.71    2.57
  -3   6   1  125.58    2.56
  -3   6   1  123.70    2.69
   6  -3   1  123.26    2.54
   6  -3   1  124.38    2.61
   2  -6  -1  100.82    2.21
   4   2  -1  103.82    2.13
  -6   4  -1  101.96    2.13
  -6   4  -1  101.85    2.21
  -6   4  -1  104.00    2.15
   4   2  -1  104.04    2.13
   2  -6  -1  101.75    2.74
   4   2  -1  103.50    3.02
   6  -4   1   98.28    2.06
   6  -4   1   96.91    2.08
  -4  -2   1   96.90    2.17
   6  -4   1   96.67    2.13
  -2   6   1   96.70    2.09
  -4  -2   1  101.93    2.15
   6  -4   1  101.05    2.23
   6  -4   1   99.46    2.13
   6  -4   1  100.12    3.00
  -2   6   1   98.42    2.13
   6  -4   1   96.15    2.11
  -2   6   1   99.10    2.19
  -6   5  -1   23.25    0.73
  -6   5  -1   22.59    0.68
   5   1  -1   23.12    0.67
  -6   5  -1   22.49    0.69
   5   1  -1   24.13    0.99
   5   1  -1   22.17    0.68
   1  -6  -1   22.75    0.90
  -6   5  -1   22.48    0.67
   1  -6  -1   21.76    0.69
   6  -5   1   25.61    0.69
   6  -5   1   25.31    0.73
   6  -5   1   25.81    0.70
   6  -5   1   24.95    0.69
  -1   6   1   25.49    0.70
  -5  -1   1   26.03    0.70
  -5  -1   1   24.74    0.72
  -1   6   1   25.39    0.71
  -5  -1   1   26.08    0.73
   6  -5   1   26.58    1.00
   6  -5   1   25.98    0.70
   6  -5   1   25.10    0.70
  -1   6   1   24.65    0.71
   6  -5   1   25.20    0.64
   6   0  -1  221.02    4.54
  -6   6  -1  222.37    4.56
   6   0  -1  230.38    6.20
   0  -6  -1  220.14    5.64
  -6   6  -1  216.38    4.31
  -6   6  -1  217.41    4.42
   6   0  -1  223.44    4.37
   6   0  -1  217.48    4.21
  -6   6  -1  224.89    4.41
   6  -6   1  219.71    4.39
   0   6   1  219.08    4.54
   6  -6   1  216.60    6.15
   6  -6   1  220.39    4.55
  -6   0   1  222.47    4.55
   6  -6   1  218.18    4.25
   6  -6   1  216.28    4.47
   0   6   1  220.76    4.46
   6  -6   1  217.42    4.42
   0   6   1  220.44    4.32
  -6   0   1  228.16    4.45
   6  -6   1  214.41    4.35
   7  -1  -1   88.10    1.89
   7  -1  -1   85.76    1.85
  -6   7  -1   86.50    1.93
  -1  -6  -1   87.67    1.84
  -6   7  -1   86.53    1.91
  -6   7  -1   83.79    1.89
  -1  -6  -1   85.74    2.49
  -6   7  -1   86.24    2.00
   7  -1  -1   87.78    2.00
   1   6   1   87.35    1.90
   6  -7   1   87.51    1.90
   1   6   1   87.14    1.89
   6  -7   1   87.15    2.68
   6  -7   1   88.68    1.97
   6  -7   1   84.61    1.92
   1   6   1   88.13    1.97
   1   6   1   87.90    1.98
   6  -7   1   87.29    1.89
   6  -7   1   88.09    1.88
   6  -7   1   88.37    1.87
  -7   1   1   87.71    2.00
   1   6   1   76.79    2.67
  -7   1   1   89.24    1.95
  -6   8  -1   74.68    1.68
  -2  -6  -1   74.43    1.63
   8  -2  -1   73.15    1.65
   8  -2  -1   74.13    1.79
   8  -2  -1   67.18    2.32
  -2  -6  -1   72.24    2.19
  -6   8  -1   71.91    1.70
  -6   8  -1   73.15    1.64
   8  -2  -1   71.78    1.63
   8  -2  -1   73.32    1.64
  -6   8  -1   75.92    1.70
  -6   8  -1   72.98    1.76
   6  -8   1   71.61    1.64
  -8   2   1   74.60    1.78
   6  -8   1   71.09    1.69
   6  -8   1   74.54    1.64
   6  -8   1   71.86    1.64
   2   6   1   75.80    2.43
   6  -8   1   71.01    1.65
   2   6   1   73.17    1.66
   6  -8   1   73.55    2.35
   2   6   1   72.15    1.68
   2   6   1   75.09    1.75
  -8   2   1   74.76    1.72
   2   6   1   73.02    1.73
   6  -8   1   72.36    1.70
   9  -3  -1   70.70    1.78
  -6   9  -1   71.38    1.66
  -6   9  -1   70.10    1.61
  -3  -6  -1   72.01    1.64
  -6   9  -1   70.81    1.69
   9  -3  -1   70.27    1.62
  -6   9  -1   71.88    1.64
  -6   9  -1   69.78    1.73
   9  -3  -1   70.93    1.61
  -3  -6  -1   70.47    2.15
   9  -3  -1   70.54    1.63
  -9   3   1   70.85    1.78
   3   6   1   72.08    2.43
   6  -9   1   69.91    1.61
   6  -9   1   71.47    1.64
   3   6   1   68.73    1.62
   6  -9   1   68.59    1.61
   6  -9   1   69.13    1.62
   3   6   1   68.86    1.57
   3   6   1   71.39    1.71
   3   6   1   68.47    1.67
  -9   3   1   69.17    1.68
   3   6   1   69.48    1.72
   6  -9   1   70.38    2.30
  10  -4  -1    8.09    0.43
  -4  -6  -1    8.80    0.56
  -6  10  -1    9.00    0.46
  10  -4  -1    8.31    0.39
  10  -4  -1    8.49    0.54
  -6  10  -1    8.59    0.41
  -6  10  -1    8.54    0.41
  -6  10  -1    8.74    0.57
  10  -4  -1    9.72    0.46
  -6  10  -1    8.35    0.45
  10  -4  -1    8.40    0.48
  -6  10  -1    8.11    0.44
  -4  -6  -1    9.08    0.44
   4   6   1    9.02    0.47
   4   6   1    8.44    0.40
 -10   4   1    8.77    0.49
   4   6   1    7.76    0.40
   6 -10   1    8.25    0.40
   4   6   1    8.59    0.44
   6 -10   1    8.51    0.43
   4   6   1    8.15    0.45
   4   6   1    8.78    0.66
   6 -10   1    8.73    0.41
 -10   4   1    8.13    0.43
   6 -10   1    9.13    0.40
  -6  11  -1   49.48    1.34
  -5  -6  -1   49.34    1.32
  11  -5  -1   48.11    1.31
  -5  -6  -1   48.51    1.68
  -6  11  -1   48.43    1.25
  11  -5  -1   48.64    1.44
  11  -5  -1   48.28    1.31
  -6  11  -1   48.37    1.35
  -6  11  -1   48.61    1.78
  -6  11  -1   47.94    1.35
 -11   5   1   47.08    1.41
   5   6   1   46.74    1.23
   5   6   1   50.63    1.98
   5   6   1   48.09    1.35
   6 -11   1   49.26    1.26
   5   6   1   50.46    1.28
   5   6   1   49.84    1.35
   5   6   1   49.10    1.37
   6 -11   1   49.27    1.27
 -11   5   1   49.19    1.31
  -6  12  -1   34.42    1.09
  -6  -6  -1   34.41    1.36
  -6  12  -1   34.24    1.11
  12  -6  -1   34.55    1.08
  -6  12  -1   34.54    1.09
  -6  -6  -1   35.85    1.09
  12  -6  -1   35.02    1.19
  12  -6  -1   34.78    1.09
   6   6   1   35.79    1.11
   6   6   1   34.06    1.11
   6   6   1   34.96    1.01
   6 -12   1   36.12    1.02
 -12   6   1   35.73    1.19
   6   6   1   34.34    1.62
 -12   6   1   35.90    1.08
   6   6   1   36.69    1.14
  13  -7  -1    8.93    0.57
  13  -7  -1    9.80    0.55
  -6  13  -1    9.24    0.51
  -7  -6  -1    8.38    0.50
  13  -7  -1    9.21    0.53
  -6  13  -1    8.16    0.50
  -6  13  -1    9.06    0.53
  -7  -6  -1    9.32    0.64
   7   6   1    9.89    0.56
   7   6   1    9.78    0.81
   7   6   1    9.03    0.56
 -13   7   1    9.64    0.58
   7   6   1    8.84    0.51
  -7  -5  -1   32.12    1.03
  -5  12  -1   33.23    1.38
  -5  12  -1   32.06    1.05
  12  -7  -1   30.83    1.11
  12  -7  -1   31.19    1.00
  -5  12  -1   32.70    1.02
  -7  -5  -1   32.47    1.28
  -5  12  -1   32.35    1.02
   7   5   1   29.79    1.05
   7   5   1   30.17    0.95
   5 -12   1   30.98    0.93
   7   5   1   29.90    1.03
 -12   7   1   29.44    1.08
   7   5   1   30.55    1.51
   5 -12   1   29.87    0.95
   7   5   1   30.33    1.03
  -7  -4  -1    7.10    0.52
  -7  -4  -1    7.63    0.45
  -4  11  -1    7.24    0.57
  -4  11  -1    7.21    0.42
  11  -7  -1    7.53    0.48
  11  -7  -1    7.07    0.43
  -4  11  -1    8.02    0.43
  11  -7  -1    7.41    0.43
  -4  11  -1    6.86    0.44
  -4  11  -1    8.17    0.43
   4 -11   1    7.59    0.41
   4 -11   1    8.21    0.40
   7   4   1    7.54    0.45
   7   4   1    7.69    0.67
 -11   7   1    6.81    0.46
   7   4   1    7.44    0.38
   7   4   1    7.46    0.45
   7   4   1    7.25    0.45
   7   4   1    7.88    0.44
   7   4   1    7.33    0.39
  -3  10  -1   41.03    1.14
  10  -7  -1   42.27    1.15
  -3  10  -1   41.54    1.61
  -3  10  -1   40.97    1.20
  10  -7  -1   43.19    1.18
  -7  -3  -1   41.06    1.45
  -3  10  -1   42.40    1.17
  -3  10  -1   41.52    1.14
  10  -7  -1   41.79    1.27
  -7  -3  -1   42.74    1.20
   7   3   1   42.16    1.22
   3 -10   1   41.71    1.12
 -10   7   1   41.99    1.09
 -10   7   1   40.51    1.24
   7   3   1   43.20    1.10
   7   3   1   42.46    1.20
   7   3   1   45.82    1.81
   3 -10   1   41.82    1.14
   7   3   1   41.84    1.09
   7   3   1   41.70    1.12
   7   3   1   42.80    1.22
   9  -7  -1    7.78    0.41
   9  -7  -1    8.19    0.43
  -7  -2  -1    8.30    0.52
  -2   9  -1    7.99    0.58
   9  -7  -1    8.38    0.47
  -2   9  -1    7.78    0.41
  -2   9  -1    8.15    0.44
  -2   9  -1    8.17    0.41
  -7  -2  -1    8.35    0.44
  -2   9  -1    8.15    0.42
   7   2   1    9.43    0.47
  -9   7   1    9.88    0.49
   7   2   1   11.06    0.50
   2  -9   1    9.76    0.43
   7   2   1    9.24    0.44
   7   2   1    9.90    0.41
   7   2   1    9.81    0.46
  -9   7   1   10.21    0.43
   2  -9   1    9.34    0.44
   7   2   1    9.29    0.40
   7   2   1   10.44    0.71
  -1   8  -1    4.66    0.32
  -7  -1  -1    4.70    0.32
  -7  -1  -1    4.68    0.37
   8  -7  -1    4.75    0.30
  -1   8  -1    4.49    0.29
  -1   8  -1    4.91    0.31
  -1   8  -1    4.47    0.29
   8  -7  -1    4.42    0.34
   8  -7  -1    4.21    0.31
  -7  -1  -1    4.84    0.28
  -1   8  -1    4.82    0.43
   7   1   1    4.73    0.33
   7   1   1    4.78    0.29
   7   1   1    5.09    0.28
   7   1   1    4.50    0.44
   7   1   1    5.13    0.32
   1  -8   1    4.67    0.30
   1  -8   1    4.97    0.31
   7   1   1    4.69    0.31
  -8   7   1    4.65    0.29
   7   1   1    4.78    0.33
  -8   7   1    4.83    0.33
  -7   0  -1   58.75    1.75
   0   7  -1   58.36    1.40
   7  -7  -1   56.88    1.36
   0   7  -1   58.82    1.31
   0   7  -1   57.72    1.42
   0   7  -1   58.01    1.40
   7  -7  -1   57.89    1.49
   7  -7  -1   58.82    1.32
   0   7  -1   58.16    2.00
  -7   0  -1   56.72    1.30
  -7   0  -1   56.85    1.42
   7   0   1   56.72    2.01
   7   0   1   59.21    1.44
  -7   7   1   55.93    1.35
   7   0   1   57.39    1.48
  -7   7   1   57.35    1.44
   7   0   1   56.10    1.32
   7   0   1   56.21    1.32
   7   0   1   58.63    1.40
  -7   7   1   55.74    1.35
   0  -7   1   57.28    1.38
   7   0   1   56.54    1.35
  -7   1  -1   84.19    1.81
  -7   1  -1   86.04    1.94
   1   6  -1   85.59    1.91
   1   6  -1   83.86    2.71
   1   6  -1   85.50    1.93
   6  -7  -1   84.95    2.01
   6  -7  -1   87.12    1.86
  -7   1  -1   86.67    1.93
  -7   1  -1   86.02    2.41
  -6   7   1   84.91    1.84
   7  -1   1   85.28    2.02
  -1  -6   1   85.26    1.92
   7  -1   1   86.84    1.94
   7  -1   1   86.17    1.86
  -6   7   1   87.17    1.95
  -6   7   1   87.07    1.88
   7  -1   1   86.60    2.75
   7  -1   1   86.54    1.84
  -1  -6   1   86.79    1.91
   7  -1   1   83.52    1.90
   7  -1   1   85.22    1.81
   7  -1   1   85.58    1.85
  -7   2  -1    9.99    0.39
   2   5  -1   10.43    0.61
  -7   2  -1   10.26    0.43
  -7   2  -1   10.89    0.43
   5  -7  -1   10.08    0.45
   2   5  -1    9.50    0.41
   2   5  -1    9.82    0.41
   7  -2   1   10.98    0.47
   7  -2   1   10.40    0.61
   7  -2   1   10.10    0.37
   7  -2   1   10.21    0.40
  -5   7   1    9.96    0.44
  -5   7   1   10.20    0.42
  -2  -5   1    9.98    0.40
  -5   7   1   10.14    0.37
   7  -2   1   10.09    0.41
  -5   7   1   10.95    0.41
   7  -2   1   10.66    0.41
  -2  -5   1   10.84    0.43
  -5   7   1   10.50    0.38
   7  -2   1   10.22    0.41
   7  -2   1   10.68    0.44
  -7   3  -1   39.32    1.03
   4  -7  -1   38.76    1.05
   3   4  -1   39.05    0.99
   3   4  -1   39.79    0.91
  -7   3  -1   39.47    1.04
  -7   3  -1   37.79    0.95
   3   4  -1   37.07    1.00
   3   4  -1   39.18    1.45
   7  -3   1   39.18    1.02
   7  -3   1   38.79    1.43
  -3  -4   1   40.46    1.02
   7  -3   1   39.62    0.98
  -3  -4   1   41.70    1.04
  -4   7   1   40.79    0.98
   7  -3   1   39.51    0.99
  -4   7   1   40.95    1.01
   7  -3   1   38.94    0.98
  -4   7   1   39.26    0.97
   7  -3   1   40.21    0.95
   7  -3   1   40.35    1.09
  -4   7   1   39.87    1.05
  -4   7   1   38.53    1.19
   4   3  -1   37.21    0.95
  -7   4  -1   38.02    0.96
  -7   4  -1   36.97    1.00
  -7   4  -1   38.41    1.04
   4   3  -1   37.25    1.42
   4   3  -1   37.82    0.93
   4   3  -1   37.57    1.00
   3  -7  -1   37.13    1.02
   7  -4   1   39.46    1.06
   7  -4   1   39.60    1.42
   7  -4   1   39.86    0.94
  -3   7   1   39.12    1.23
  -4  -3   1   39.15    1.02
   7  -4   1   39.21    1.01
  -4  -3   1   38.88    1.01
  -3   7   1   39.47    1.02
   7  -4   1   40.12    0.98
   7  -4   1   40.03    0.98
  -3   7   1   39.79    0.98
   7  -4   1   38.93    0.98
   7  -4   1   38.62    0.99
  -3   7   1   40.34    1.01
   5   2  -1   10.77    0.62
   2  -7  -1    9.69    0.54
  -7   5  -1   10.19    0.42
   2  -7  -1   10.19    0.43
  -7   5  -1    9.60    0.44
   5   2  -1   10.09    0.42
  -7   5  -1   10.08    0.40
   5   2  -1    9.91    0.38
  -7   5  -1   10.49    0.41
   5   2  -1   10.25    0.39
   7  -5   1   10.30    0.37
   7  -5   1   10.26    0.42
  -5  -2   1   10.78    0.44
  -5  -2   1   10.08    0.42
  -2   7   1   10.57    0.42
   7  -5   1   10.67    0.59
   7  -5   1   10.75    0.43
  -5  -2   1   10.48    0.40
  -2   7   1   10.17    0.43
   7  -5   1   10.15    0.45
   7  -5   1   10.90    0.43
   7  -5   1   10.01    0.40
  -2   7   1    9.71    0.41
   7  -5   1   10.08    0.42
   6   1  -1   91.24    2.77
  -7   6  -1   84.12    1.88
   6   1  -1   86.06    1.92
  -7   6  -1   86.06    2.01
   1  -7  -1   87.22    1.99
  -7   6  -1   86.05    1.92
   6   1  -1   85.08    1.83
   6   1  -1   88.02    1.96
  -7   6  -1   85.35    1.91
   1  -7  -1   85.71    2.50
   7  -6   1   87.21    1.93
  -6  -1   1   89.93    2.00
   7  -6   1   87.81    2.70
  -1   7   1   87.61    1.97
  -1   7   1   86.74    1.96
   7  -6   1   89.72    2.02
   7  -6   1   86.90    1.92
   7  -6   1   86.31    1.90
  -1   7   1   84.67    1.91
   7  -6   1   86.44    1.88
  -6  -1   1   87.14    1.96
   7  -6   1   86.76    1.87
   0  -7  -1   59.12    1.45
   7   0  -1   61.10    1.46
  -7   7  -1   58.60    1.40
   7   0  -1   59.51    1.36
   0  -7  -1   61.48    1.87
  -7   7  -1   58.56    1.40
  -7   7  -1   57.43    1.39
  -7   7  -1   59.30    1.49
   7   0  -1   61.15    1.42
   7   0  -1   64.20    2.05
   0   7   1   51.68    1.33
   7  -7   1   58.37    1.39
   7  -7   1   57.93    1.95
   7  -7   1   58.18    1.40
   7  -7   1   58.91    1.46
   7  -7   1   56.25    1.37
   7  -7   1   57.47    1.35
   0   7   1   59.06    1.43
   0   7   1   57.71    1.45
   7  -7   1   58.71    1.39
  -7   0   1   58.46    1.45
   0   7   1   58.14    1.40
  -7   0   1   57.34    1.46
   0   7   1   60.22    1.97
  -1  -7  -1    4.48    0.40
   8  -1  -1    4.65    0.32
   8  -1  -1    4.41    0.30
  -7   8  -1    4.43    0.30
  -7   8  -1    4.45    0.29
  -7   8  -1    4.27    0.32
  -1  -7  -1    4.67    0.26
  -7   8  -1    4.42    0.31
   8  -1  -1    4.51    0.30
   8  -1  -1    4.70    0.30
   1   7   1    5.12    0.31
   7  -8   1    5.01    0.31
   1   7   1    4.50    0.32
   7  -8   1    4.91    0.30
   7  -8   1    4.99    0.41
   1   7   1    4.72    0.31
  -8   1   1    4.96    0.34
  -8   1   1    4.53    0.32
   7  -8   1    4.91    0.31
   1   7   1    5.24    0.46
   1   7   1    4.84    0.30
   7  -8   1    4.95    0.28
   7  -8   1    5.03    0.30
   7  -8   1    5.09    0.33
  -7   9  -1    7.96    0.40
   9  -2  -1    7.91    0.44
   9  -2  -1    8.22    0.42
   9  -2  -1    8.09    0.41
  -7   9  -1    7.53    0.42
  -7   9  -1    8.17    0.39
  -7   9  -1    8.10    0.42
   9  -2  -1    7.79    0.41
  -2  -7  -1    7.86    0.37
  -7   9  -1    8.05    0.45
  -2  -7  -1    8.32    0.56
   7  -9   1   10.47    0.44
   7  -9   1   10.53    0.42
   2   7   1   10.13    0.45
   7  -9   1   10.44    0.44
   2   7   1    9.77    0.45
   2   7   1   10.72    0.50
  -9   2   1   10.08    0.49
  -9   2   1    9.81    0.47
   2   7   1   11.22    0.68
   7  -9   1   10.59    0.46
   7  -9   1   10.13    0.45
   2   7   1    9.96    0.45
   7  -9   1    9.65    0.59
   7  -9   1   10.21    0.44
   2   7   1    9.93    0.41
  -3  -7  -1   42.95    1.12
  -7  10  -1   41.42    1.56
  10  -3  -1   41.34    1.14
  -7  10  -1   41.73    1.21
  10  -3  -1   41.87    1.57
  10  -3  -1   42.51    1.15
  -7  10  -1   40.86    1.16
  -7  10  -1   40.57    1.16
  -3  -7  -1   41.31    1.51
  10  -3  -1   43.69    1.26
  -7  10  -1   42.16    1.10
  -7  10  -1   40.89    1.11
  10  -3  -1   41.26    1.11
   3   7   1   42.50    1.14
   7 -10   1   41.99    1.10
   7 -10   1   42.81    1.58
   3   7   1   42.26    1.22
 -10   3   1   44.09    1.26
   3   7   1   42.43    1.17
   3   7   1   42.76    1.17
   3   7   1   41.12    1.06
   3   7   1   42.07    1.70
   7 -10   1   41.44    1.13
   7 -10   1   42.31    1.12
 -10   3   1   43.49    1.20
   7 -10   1   42.25    1.12
  -7  11  -1    8.00    0.46
  -7  11  -1    7.46    0.44
  11  -4  -1    7.87    0.45
  -4  -7  -1    7.43    0.56
  11  -4  -1    7.93    0.44
  -7  11  -1    7.53    0.45
  -7  11  -1    8.03    0.57
  -4  -7  -1    8.08    0.42
   4   7   1    8.17    0.41
   4   7   1    8.06    0.66
   7 -11   1    7.81    0.43
   4   7   1    8.10    0.44
   4   7   1    7.90    0.42
   4   7   1    7.82    0.47
 -11   4   1    7.57    0.48
   4   7   1    8.05    0.46
 -11   4   1    7.63    0.45
   7 -11   1    8.06    0.40
  -5  -7  -1   31.57    1.30
  12  -5  -1   32.38    1.12
  -5  -7  -1   33.27    1.02
  12  -5  -1   33.54    1.05
  12  -5  -1   32.38    1.03
  -7  12  -1   32.15    1.04
  -7  12  -1   31.09    1.03
  -7  12  -1   33.78    1.07
   5   7   1   29.79    1.00
 -12   5   1   31.55    1.03
   5   7   1   32.01    1.53
   5   7   1   30.67    1.04
   5   7   1   31.45    0.97
   5   7   1   31.24    1.06
   7 -12   1   32.60    0.96
 -12   5   1   31.53    1.10
  -6  -7  -1   10.80    0.55
  -6  -7  -1    9.93    0.68
  -7  13  -1   10.26    0.55
  -7  13  -1    9.62    0.54
  13  -6  -1   10.47    0.57
  13  -6  -1    9.41    0.59
  13  -6  -1    9.34    0.55
  -7  13  -1   10.84    0.57
   6   7   1   10.60    0.59
   6   7   1    9.94    0.57
   6   7   1   11.88    0.89
 -13   6   1    9.21    0.52
 -13   6   1   10.27    0.60
  14  -7  -1    2.45    0.34
  14  -7  -1    3.21    0.42
  14  -7  -1    2.56    0.36
  -7  14  -1    2.16    0.33
  -7  -7  -1    2.54    0.34
  -7  14  -1    3.31    0.39
 -14   7   1    2.38    0.36
   7   7   1    2.91    0.39
   7   7   1    2.79    0.37
  15  -8  -1   15.24    0.74
  15  -8  -1   14.79    0.81
  -7  15  -1   15.48    0.75
  -7  15  -1   14.48    0.74
  -8  -7  -1   14.55    0.72
  15  -8  -1   16.39    0.78
   8   7   1   14.78    0.77
   8   7   1   15.92    0.78
 -15   8   1   13.68    0.77
  14  -8  -1    9.82    0.58
  14  -8  -1    8.98    0.61
  -6  14  -1    9.99    0.58
  -8  -6  -1    9.23    0.55
  -6  14  -1    9.59    0.56
  14  -8  -1    9.33    0.56
   8   6   1   10.52    0.60
 -14   8   1   10.13    0.63
   8   6   1   10.46    0.61
  -5  13  -1    0.70    0.21
  13  -8  -1    0.49    0.19
  -8  -5  -1    0.65    0.20
  13  -8  -1    0.76    0.23
  -5  13  -1    0.48    0.20
  13  -8  -1    0.77    0.22
   8   5   1    0.89    0.21
   8   5   1    1.03    0.23
   8   5   1    0.94    0.24
   8   5   1    0.55    0.20
   8   5   1    1.41    0.40
 -13   8   1    0.80    0.24
  12  -8  -1  112.74    2.53
  -4  12  -1  111.36    2.60
  -4  12  -1  110.10    2.50
  -4  12  -1  111.38    2.54
  12  -8  -1  108.11    2.54
  12  -8  -1  111.05    2.77
  -8  -4  -1  113.67    2.64
  -4  12  -1  111.42    2.65
  -4  12  -1  112.07    3.58
   8   4   1  112.66    2.49
   4 -12   1  112.42    2.50
 -12   8   1  109.34    2.73
   8   4   1  111.10    2.63
   8   4   1  110.19    2.49
   8   4   1  106.29    2.63
   8   4   1  113.06    2.70
   8   4   1  114.70    3.83
  11  -8  -1   12.05    0.56
  -8  -3  -1   11.33    0.57
  -3  11  -1   11.99    0.59
  11  -8  -1   11.98    0.58
  -3  11  -1   12.71    0.56
  11  -8  -1   12.22    0.62
  -3  11  -1   11.52    0.53
  -8  -3  -1   11.71    0.67
  -3  11  -1   11.96    0.77
  -3  11  -1   12.49    0.56
 -11   8   1   13.80    0.64
   8   3   1   13.90    0.53
   8   3   1   13.63    0.91
   8   3   1   13.19    0.56
   8   3   1   12.99    0.59
   8   3   1   12.53    0.60
   3 -11   1   13.55    0.55
   8   3   1   12.82    0.61
   3 -11   1   13.39    0.52
  -2  10  -1   10.47    0.48
  10  -8  -1   10.74    0.50
  -2  10  -1   10.57    0.71
  -2  10  -1   10.48    0.52
  10  -8  -1   10.38    0.55
  -8  -2  -1   10.49    0.52
  10  -8  -1   10.23    0.51
  -2  10  -1   10.10    0.48
  -8  -2  -1   10.39    0.61
  -2  10  -1   10.17    0.49
 -10   8   1   10.96    0.48
 -10   8   1   11.01    0.55
   8   2   1   11.04    0.46
   8   2   1   10.44    0.50
   8   2   1   10.89    0.50
   8   2   1   10.37    0.45
   8   2   1   11.33    0.55
   8   2   1   10.93    0.54
   2 -10   1   10.50    0.48
   8   2   1   10.62    0.75
  -8  -1  -1   51.23    1.36
   9  -8  -1   50.52    1.29
  -8  -1  -1   50.52    1.62
  -1   9  -1   49.51    1.85
   9  -8  -1   48.72    1.39
  -1   9  -1   50.19    1.35
  -1   9  -1   50.32    1.29
   9  -8  -1   51.09    1.27
  -1   9  -1   50.15    1.30
  -1   9  -1   51.26    1.26
   8   1   1   49.34    1.35
   1  -9   1   49.08    1.28
   8   1   1   50.49    1.23
   8   1   1   49.17    1.24
  -9   8   1   50.50    1.27
   8   1   1   51.10    1.40
   8   1   1   46.68    1.89
  -9   8   1   48.61    1.37
   8   1   1   49.93    1.32
   8   1   1   49.75    1.28
   0   8  -1   89.05    1.91
  -8   0  -1   88.73    2.00
   0   8  -1   87.74    2.02
   0   8  -1   86.40    2.05
   0   8  -1   88.42    2.85
  -8   0  -1   89.71    2.52
   8  -8  -1   87.83    1.91
   8  -8  -1   88.94    2.13
  -8   0  -1   87.56    2.05
   0   8  -1   88.73    2.01
   8  -8  -1   89.75    1.97
  -8   0  -1   87.10    1.89
   8   0   1   86.74    1.96
  -8   8   1   88.14    1.97
   8   0   1   87.89    1.92
   8   0   1   86.70    1.93
   8   0   1   85.96    2.89
   8   0   1   83.79    2.00
   8   0   1   88.14    2.13
   8   0   1   84.43    2.03
   0  -8   1   88.53    2.00
  -8   8   1   86.78    2.08
  -8   1  -1    4.68    0.31
   7  -8  -1    4.92    0.34
  -8   1  -1    4.83    0.37
   1   7  -1    4.77    0.29
   1   7  -1    4.67    0.31
  -8   1  -1    4.50    0.27
   7  -8  -1    4.75    0.29
   1   7  -1    4.65    0.44
   1   7  -1    4.73    0.32
   7  -8  -1    4.32    0.30
  -8   1  -1    4.49    0.30
   1   7  -1    4.51    0.27
   8  -1   1    5.34    0.30
   8  -1   1    5.17    0.32
   8  -1   1    4.73    0.29
   8  -1   1    4.69    0.33
   8  -1   1    4.88    0.33
   8  -1   1    4.77    0.46
  -7   8   1    4.27    0.31
   8  -1   1    4.79    0.27
  -7   8   1    4.75    0.31
  -7   8   1    4.62    0.31
  -1  -7   1    4.59    0.31
   8  -1   1    4.21    0.29
   6  -8  -1   72.15    1.65
   2   6  -1   71.76    2.43
   2   6  -1   74.32    1.72
   2   6  -1   74.12    1.73
  -8   2  -1   74.57    1.74
  -8   2  -1   73.24    1.62
   6  -8  -1   73.59    1.79
   6  -8  -1   73.53    1.58
  -8   2  -1   73.02    1.74
  -2  -6   1   75.30    1.73
  -6   8   1   73.62    1.65
   8  -2   1   71.74    1.62
  -6   8   1   74.72    1.69
   8  -2   1   71.95    1.72
  -2  -6   1   75.69    1.72
  -6   8   1   73.05    1.63
   8  -2   1   73.38    2.44
  -6   8   1   73.68    1.73
   8  -2   1   73.70    1.69
   8  -2   1   74.27    1.65
   8  -2   1   75.04    1.83
   8  -2   1   73.53    1.67
   8  -2   1   75.06    1.65
  -8   3  -1   76.28    1.78
  -8   3  -1   76.59    1.68
   3   5  -1   78.23    1.77
  -8   3  -1   78.11    1.82
   3   5  -1   78.87    2.53
   5  -8  -1   77.23    1.69
   5  -8  -1   77.69    1.83
   3   5  -1   77.08    1.75
   8  -3   1   75.77    1.73
   8  -3   1   74.37    1.68
   8  -3   1   77.53    1.70
  -5   8   1   77.07    1.75
   8  -3   1   77.63    2.51
   8  -3   1   75.85    1.87
  -3  -5   1   76.10    1.78
  -5   8   1   74.95    1.71
   8  -3   1   76.83    1.77
  -5   8   1   75.54    1.67
   8  -3   1   76.29    1.69
  -5   8   1   76.45    1.75
   8  -3   1   76.63    1.72
  -5   8   1   75.93    1.81
  -3  -5   1   76.32    1.77
   4   4  -1    2.86    0.23
   4   4  -1    2.67    0.25
   4  -8  -1    2.69    0.24
  -8   4  -1    2.33    0.24
  -8   4  -1    2.80    0.25
   4   4  -1    2.63    0.34
  -8   4  -1    2.65    0.22
   8  -4   1    2.29    0.22
   8  -4   1    1.78    0.19
  -4   8   1    1.98    0.23
   8  -4   1    2.02    0.25
   8  -4   1    2.38    0.25
  -4  -4   1    2.15    0.24
   8  -4   1    2.32    0.23
  -4   8   1    2.23    0.25
   8  -4   1    2.11    0.30
  -4   8   1    2.15    0.21
   8  -4   1    2.04    0.23
   8  -4   1    2.63    0.23
  -4  -4   1    2.40    0.22
  -4   8   1    1.90    0.18
  -8   5  -1   76.77    1.72
  -8   5  -1   78.51    1.86
   3  -8  -1   79.85    1.84
   5   3  -1   79.38    1.75
  -8   5  -1   77.88    1.79
   5   3  -1   82.33    2.59
   5   3  -1   78.48    1.67
  -8   5  -1   80.92    1.77
   5   3  -1   77.59    1.79
   8  -5   1   77.14    1.74
  -3   8   1   77.81    1.78
  -5  -3   1   77.20    1.81
   8  -5   1   76.71    1.76
   8  -5   1   77.17    1.74
  -3   8   1   76.56    2.33
   8  -5   1   78.11    1.79
  -3   8   1   77.59    1.77
   8  -5   1   77.60    1.76
   8  -5   1   78.03    1.72
   8  -5   1   77.73    1.89
  -5  -3   1   76.88    1.81
   8  -5   1   74.79    2.48
  -3   8   1   77.15    1.82
   8  -5   1   75.81    1.72
  -8   6  -1   72.55    1.78
   6   2  -1   72.61    1.60
   6   2  -1   74.14    1.71
   6   2  -1   74.92    1.70
  -8   6  -1   72.45    1.69
   2  -8  -1   73.13    1.74
   6   2  -1   73.82    2.43
   2  -8  -1   71.29    2.20
  -8   6  -1   72.52    1.65
  -8   6  -1   71.69    1.66
   8  -6   1   71.62    1.78
   8  -6   1   73.70    1.70
  -2   8   1   72.27    1.69
   8  -6   1   73.07    1.66
   8  -6   1   72.81    1.63
   8  -6   1   72.60    1.64
  -6  -2   1   72.51    1.73
   8  -6   1   72.65    1.67
  -2   8   1   71.75    1.71
  -6  -2   1   74.68    1.74
   8  -6   1   74.00    2.37
  -2   8   1   72.65    1.72
   8  -6   1   73.26    1.67
  -8   7  -1    4.90    0.31
  -8   7  -1    4.72    0.29
  -8   7  -1    4.50    0.33
   7   1  -1    4.21    0.28
   7   1  -1    4.59    0.43
  -8   7  -1    4.30    0.29
   1  -8  -1    4.76    0.31
   7   1  -1    4.63    0.29
   7   1  -1    4.63    0.31
   1  -8  -1    4.51    0.40
  -1   8   1    4.96    0.31
   8  -7   1    4.35    0.29
   8  -7   1    4.81    0.28
   8  -7   1    4.70    0.29
   8  -7   1    4.99    0.30
   8  -7   1    4.77    0.41
   8  -7   1    4.24    0.29
  -1   8   1    4.26    0.31
  -1   8   1    4.72    0.31
   8  -7   1    4.42    0.31
  -7  -1   1    5.48    0.34
  -7  -1   1    4.88    0.32
  -1   8   1    4.79    0.41
   8  -7   1    4.78    0.33
  -8   8  -1   87.16    2.12
   0  -8  -1   88.01    2.06
   8   0  -1   93.21    2.92
   8   0  -1   87.27    1.92
  -8   8  -1   88.11    2.01
   0  -8  -1   87.40    2.63
  -8   8  -1   88.77    2.01
   8   0  -1   89.19    2.09
   8   0  -1   88.14    1.94
   8   0  -1   89.73    2.02
  -8   8  -1   86.43    1.99
   8  -8   1   88.79    1.99
   8  -8   1   88.18    2.00
   0   8   1   90.25    2.06
   8  -8   1   89.08    2.10
   0   8   1   91.60    2.85
   0   8   1   88.51    2.08
   8  -8   1   89.81    1.94
  -8   0   1   90.52    2.09
   8  -8   1   90.27    2.81
   8  -8   1   88.68    1.96
   0   8   1   88.66    2.00
  -8   0   1   88.70    2.10
   8  -8   1   88.45    1.97
   0   8   1   86.54    1.88
   8  -8   1   87.44    2.00
   9  -1  -1   49.77    1.24
   9  -1  -1   49.10    1.25
  -8   9  -1   49.66    1.30
  -8   9  -1   50.12    1.26
   9  -1  -1   49.31    1.27
  -8   9  -1   49.37    1.36
  -8   9  -1   49.63    1.28
   9  -1  -1   50.58    1.35
  -1  -8  -1   49.04    1.69
   1   8   1   47.71    1.34
   8  -9   1   49.80    1.76
   1   8   1   48.06    1.18
   8  -9   1   50.11    1.28
   1   8   1   49.35    1.29
   8  -9   1   47.93    1.21
   1   8   1   48.52    1.28
   8  -9   1   48.87    1.22
   1   8   1   48.22    1.26
   8  -9   1   50.05    1.26
   8  -9   1   49.43    1.28
  -9   1   1   48.71    1.36
   8  -9   1   49.96    1.24
  -9   1   1   48.53    1.33
  10  -2  -1   10.25    0.49
  -8  10  -1    9.86    0.45
  -8  10  -1    9.89    0.48
  -8  10  -1   10.35    0.51
  10  -2  -1   10.22    0.52
  -8  10  -1   10.82    0.47
  -8  10  -1   10.79    0.53
  10  -2  -1   10.51    0.48
  10  -2  -1   10.58    0.49
  -2  -8  -1   10.61    0.66
   8 -10   1   10.69    0.46
   2   8   1    9.99    0.52
   2   8   1   10.25    0.70
   8 -10   1   10.63    0.65
   8 -10   1   10.69    0.49
   8 -10   1   11.22    0.47
   8 -10   1   10.18    0.49
   8 -10   1   10.71    0.47
 -10   2   1   11.49    0.54
   2   8   1   10.03    0.49
 -10   2   1   10.73    0.54
   2   8   1   10.53    0.49
   2   8   1   10.19    0.48
  -3  -8  -1   11.96    0.74
  -3  -8  -1   12.73    0.53
  -8  11  -1   12.84    0.61
  -8  11  -1   12.16    0.56
  11  -3  -1   12.10    0.57
  11  -3  -1   12.24    0.61
  11  -3  -1   12.57    0.77
  11  -3  -1   12.91    0.56
  -8  11  -1   11.04    0.56
  11  -3  -1   12.75    0.57
 -11   3   1   14.08    0.64
   8 -11   1   13.38    0.53
   3   8   1   13.54    0.59
   8 -11   1   13.25    0.57
   3   8   1   14.60    0.64
   3   8   1   12.81    0.56
 -11   3   1   12.68    0.60
   3   8   1   12.43    0.55
   3   8   1   14.03    0.88
  -4  -8  -1  115.56    2.57
  -8  12  -1  111.56    2.60
  -8  12  -1  116.72    2.73
  -8  12  -1  113.56    2.63
  12  -4  -1  111.66    2.55
  12  -4  -1  112.36    2.56
  -4  -8  -1  113.96    3.37
  12  -4  -1  111.35    2.78
   8 -12   1  112.43    2.52
 -12   4   1  113.06    2.65
   4   8   1  111.47    2.63
   4   8   1  112.19    2.53
 -12   4   1  112.15    2.76
   8 -12   1  112.34    2.53
   4   8   1  116.93    3.80
   4   8   1  111.09    2.70
  13  -5  -1    0.41    0.19
  13  -5  -1    0.73    0.23
  -8  13  -1    0.64    0.22
  -5  -8  -1    0.47    0.23
  -8  13  -1    0.82    0.22
  13  -5  -1    0.75    0.22
  -8  13  -1    0.51    0.19
  -5  -8  -1    0.76    0.19
   5   8   1    0.66    0.28
 -13   5   1    0.81    0.24
   5   8   1    0.61    0.20
   5   8   1    0.98    0.23
 -13   5   1    0.63    0.21
  -8  14  -1    9.99    0.57
  -6  -8  -1    9.80    0.56
  -8  14  -1   10.06    0.58
  14  -6  -1   10.16    0.63
  -6  -8  -1   10.11    0.72
  14  -6  -1    8.82    0.56
  -8  14  -1    9.93    0.58
  14  -6  -1    9.67    0.57
 -14   6   1   10.53    0.63
 -14   6   1   10.94    0.59
   6   8   1   10.81    0.62
   6   8   1   10.96    0.62
  -8  15  -1   14.90    0.73
  -7  -8  -1   15.07    0.72
  -8  15  -1   14.24    0.73
  15  -7  -1   12.81    0.70
  15  -7  -1   14.47    0.79
  15  -7  -1   14.63    0.72
 -15   7   1   14.94    0.80
   7   8   1   14.98    0.76
   7   8   1   15.76    0.79
  16  -8  -1    2.69    0.39
  -8  16  -1    3.10    0.41
  -8  -8  -1    3.55    0.42
  16  -8  -1    3.13    0.41
  -8  16  -1    3.05    0.40
  16  -8  -1    3.15    0.45
   8   8   1    3.42    0.44
 -16   8   1    3.16    0.45
   8   8   1    2.88    0.42
  -8  17  -1    2.85    0.41
  17  -9  -1    2.99    0.45
  -9  -8  -1    2.88    0.41
  -8  17  -1    2.99    0.42
  17  -9  -1    2.10    0.36
  17  -9  -1    2.48    0.40
   9   8   1    3.71    0.47
 -17   9   1    3.74    0.49
   9   8   1    3.29    0.46
  -9  -7  -1   14.98    0.76
  -7  16  -1   14.32    0.75
  16  -9  -1   14.76    0.83
  16  -9  -1   14.82    0.77
  16  -9  -1   15.34    0.77
  -7  16  -1   13.58    0.74
   9   7   1   13.59    0.77
 -16   9   1   13.53    0.79
   9   7   1   13.79    0.75
  15  -9  -1   40.91    1.31
  -6  15  -1   39.41    1.30
  -9  -6  -1   40.03    1.32
  15  -9  -1   39.84    1.42
  15  -9  -1   39.23    1.31
  -6  15  -1   39.16    1.33
 -15   9   1   37.07    1.38
   9   6   1   38.92    1.32
   9   6   1   39.26    1.36
  -5  14  -1   36.27    1.24
  14  -9  -1   36.43    1.21
  14  -9  -1   35.94    1.18
  14  -9  -1   36.15    1.32
  -9  -5  -1   36.23    1.23
  -5  14  -1   35.50    1.18
   9   5   1   37.39    1.14
   9   5   1   36.36    1.23
   9   5   1   37.37    1.27
   9   5   1   37.61    1.24
 -14   9   1   35.93    1.30
  -9  -4  -1    4.87    0.41
  13  -9  -1    5.18    0.45
  -4  13  -1    5.73    0.44
  -4  13  -1    5.52    0.41
  13  -9  -1    5.51    0.42
  13  -9  -1    5.18    0.42
   9   4   1    5.62    0.45
 -13   9   1    4.77    0.43
   9   4   1    4.92    0.39
   9   4   1    4.62    0.41
   9   4   1    5.11    0.41
   9   4   1    5.31    0.62
  -3  12  -1   60.35    1.59
  12  -9  -1   60.64    1.77
  -3  12  -1   61.61    2.26
  12  -9  -1   58.31    1.61
  -3  12  -1   61.80    1.68
  12  -9  -1   61.02    1.59
  -9  -3  -1   60.49    1.67
  -3  12  -1   63.35    1.59
   9   3   1   60.77    1.64
   9   3   1   60.31    1.56
   9   3   1   59.68    2.38
   9   3   1   60.88    1.70
   9   3   1   58.81    1.67
 -12   9   1   61.45    1.74
  11  -9  -1   28.06    0.96
  -2  11  -1   28.45    0.93
  -9  -2  -1   28.54    0.99
  11  -9  -1   28.60    1.04
  -2  11  -1   27.98    0.99
  -2  11  -1   29.21    1.33
  -2  11  -1   29.62    0.93
  11  -9  -1   29.32    0.93
 -11   9   1   29.10    1.03
   9   2   1   29.73    0.96
   9   2   1   31.10    0.90
   9   2   1   30.44    1.02
   2 -11   1   30.52    0.93
   9   2   1   29.59    1.44
   9   2   1   29.53    1.01
   9   2   1   30.05    0.95
 -11   9   1   30.42    0.93
  10  -9  -1   23.19    0.81
  -1  10  -1   23.13    0.85
  10  -9  -1   22.78    0.87
  -1  10  -1   23.97    1.15
  10  -9  -1   23.02    0.78
  -1  10  -1   23.77    0.81
  -1  10  -1   23.76    0.77
  -9  -1  -1   23.90    0.99
  -9  -1  -1   23.06    0.84
 -10   9   1   24.87    0.80
   9   1   1   23.31    0.80
   1 -10   1   24.82    0.80
   9   1   1   23.56    0.87
   9   1   1   22.46    1.19
   9   1   1   24.22    0.87
   9   1   1   25.42    0.83
   9   1   1   23.66    0.75
 -10   9   1   22.97    0.86
   0   9  -1  104.43    2.40
   9  -9  -1  100.84    2.46
   0   9  -1  101.58    3.30
   9  -9  -1  101.97    2.23
  -9   0  -1  102.48    2.19
  -9   0  -1  103.13    2.39
   0   9  -1  107.25    2.25
   0   9  -1  104.47    2.34
   0   9  -1  105.58    2.35
  -9   0  -1  104.77    2.91
   9  -9  -1  105.08    2.29
   9   0   1   99.70    2.21
   9   0   1  100.95    2.26
   9   0   1   99.27    2.46
   9   0   1  101.18    2.33
   0  -9   1  102.82    2.32
   9   0   1  101.22    2.38
  -9   9   1  103.63    2.30
   9   0   1  100.10    3.35
  -9   9   1  102.72    2.44
   9   0   1  100.60    2.27
   1   8  -1   49.72    1.88
   8  -9  -1   51.14    1.41
  -9   1  -1   48.49    1.34
   8  -9  -1   50.60    1.24
   1   8  -1   50.75    1.35
   1   8  -1   49.75    1.32
  -9   1  -1   50.52    1.22
   1   8  -1   51.20    1.22
   1   8  -1   50.50    1.30
   8  -9  -1   51.47    1.30
  -9   1  -1   51.63    1.32
  -9   1  -1   49.43    1.61
   9  -1   1   49.94    1.30
  -8   9   1   49.74    1.35
   9  -1   1   49.19    1.91
   9  -1   1   50.34    1.41
   9  -1   1   49.57    1.23
   9  -1   1   49.19    1.29
   9  -1   1   50.03    1.24
   9  -1   1   49.30    1.24
  -1  -8   1   50.13    1.31
  -8   9   1   50.80    1.31
   9  -1   1   48.89    1.35
  -9   2  -1    8.36    0.43
   7  -9  -1    8.12    0.41
   2   7  -1    7.83    0.60
   7  -9  -1    7.90    0.38
   2   7  -1    7.86    0.42
   7  -9  -1    8.67    0.46
  -9   2  -1    7.36    0.43
   2   7  -1    7.80    0.43
  -9   2  -1    8.08    0.51
  -9   2  -1    7.79    0.38
  -7   9   1   10.01    0.44
   9  -2   1    9.59    0.45
  -2  -7   1   10.03    0.46
   9  -2   1    9.55    0.42
   9  -2   1   10.20    0.44
   9  -2   1   10.39    0.42
  -2  -7   1    9.69    0.43
  -7   9   1    9.71    0.45
   9  -2   1    9.99    0.66
   9  -2   1    9.15    0.48
   9  -2   1   10.08    0.47
   9  -2   1    9.72    0.40
  -7   9   1    9.22    0.44
  -9   3  -1   70.59    1.72
   6  -9  -1   70.93    1.75
   3   6  -1   68.42    1.68
  -9   3  -1   71.62    1.59
   3   6  -1   72.64    1.70
   6  -9  -1   70.00    1.53
   3   6  -1   70.71    2.41
  -9   3  -1   72.38    1.73
   6  -9  -1   70.30    1.61
  -6   9   1   68.22    1.59
   9  -3   1   69.74    2.40
   9  -3   1   70.87    1.66
  -6   9   1   69.36    1.67
   9  -3   1   69.19    1.69
   9  -3   1   71.49    1.81
  -6   9   1   70.71    1.62
  -6   9   1   68.88    1.67
  -3  -6   1   71.30    1.71
   9  -3   1   68.47    1.60
   9  -3   1   70.74    1.62
   9  -3   1   69.50    1.64
  -3  -6   1   69.56    1.67
   9  -3   1   71.10    1.61
   4   5  -1   64.89    1.60
   4   5  -1   67.44    2.31
  -9   4  -1   65.35    1.51
  -9   4  -1   64.85    1.61
   4   5  -1   68.06    1.59
  -9   4  -1   67.91    1.66
   5  -9  -1   65.60    1.52
   5  -9  -1   67.08    1.65
  -5   9   1   66.76    1.64
   9  -4   1   65.75    1.57
   9  -4   1   66.59    1.56
   9  -4   1   64.47    1.52
   9  -4   1   65.95    1.54
  -4  -5   1   66.81    1.60
   9  -4   1   64.37    1.59
  -4  -5   1   67.64    1.64
   9  -4   1   65.57    1.55
   9  -4   1   65.54    2.26
   9  -4   1   67.06    1.71
  -5   9   1   65.12    1.59
  -5   9   1   65.54    1.56
  -5   9   1   67.03    1.51
  -5   9   1   65.76    1.56
   4  -9  -1   63.00    1.48
  -9   5  -1   66.33    1.61
   5   4  -1   64.11    1.59
   5   4  -1   67.41    2.31
  -9   5  -1   66.24    1.54
   4  -9  -1   65.86    1.62
  -9   5  -1   65.50    1.66
   5   4  -1   65.08    1.46
  -4   9   1   65.74    1.61
  -4   9   1   65.83    1.59
  -4   9   1   62.75    1.56
   9  -5   1   65.10    1.56
   9  -5   1   65.27    1.54
   9  -5   1   66.24    1.56
   9  -5   1   65.16    2.22
   9  -5   1   66.14    1.69
  -5  -4   1   66.00    1.62
  -4   9   1   65.06    1.48
   9  -5   1   64.95    1.53
  -5  -4   1   64.59    1.59
   9  -5   1   66.22    1.55
   9  -5   1   65.21    1.51
   6   3  -1   70.27    1.70
   6   3  -1   73.25    2.45
  -9   6  -1   71.03    1.69
   3  -9  -1   69.86    1.72
  -9   6  -1   69.77    1.63
   6   3  -1   72.21    1.58
  -9   6  -1   71.70    1.78
   3  -9  -1   69.65    1.58
   6   3  -1   72.50    1.66
  -9   6  -1   72.78    1.66
   6   3  -1   72.95    1.64
   9  -6   1   70.78    1.79
   9  -6   1   69.32    1.65
   9  -6   1   69.98    2.35
   9  -6   1   70.16    1.69
  -6  -3   1   71.07    1.73
   9  -6   1   70.39    1.66
  -3   9   1   71.94    1.71
   9  -6   1   71.23    1.66
   9  -6   1   69.30    1.65
  -3   9   1   69.58    1.57
  -3   9   1   71.66    1.71
   9  -6   1   71.41    1.62
  -3   9   1   69.77    1.69
   9  -6   1   69.52    1.65
  -6  -3   1   69.39    1.71
   7   2  -1    8.26    0.44
   7   2  -1    8.37    0.63
  -9   7  -1    8.17    0.42
   7   2  -1    7.52    0.39
   2  -9  -1    7.74    0.39
  -9   7  -1    8.11    0.40
  -9   7  -1    8.16    0.46
   7   2  -1    8.18    0.41
  -9   7  -1    8.25    0.42
   2  -9  -1    7.87    0.42
   9  -7   1   10.36    0.49
  -2   9   1   10.58    0.45
  -2   9   1   10.14    0.47
  -2   9   1   10.34    0.42
   9  -7   1   10.49    0.46
  -2   9   1   10.66    0.48
   9  -7   1   10.63    0.46
   9  -7   1    9.58    0.46
  -7  -2   1   10.14    0.49
   9  -7   1   10.26    0.44
  -2   9   1    8.57    0.54
  -7  -2   1   10.70    0.48
   9  -7   1    9.71    0.61
   9  -7   1    9.75    0.43
   9  -7   1    9.86    0.41
   8   1  -1   50.68    1.25
   8   1  -1   51.00    1.88
   8   1  -1   50.53    1.22
  -9   8  -1   50.17    1.39
   1  -9  -1   51.00    1.32
   8   1  -1   50.94    1.32
   1  -9  -1   50.05    1.72
  -9   8  -1   51.39    1.28
  -9   8  -1   50.01    1.29
   8   1  -1   50.51    1.32
  -9   8  -1   49.54    1.29
  -8  -1   1   48.79    1.34
   9  -8   1   48.53    1.77
  -1   9   1   50.40    1.31
   9  -8   1   50.93    1.24
   9  -8   1   48.96    1.26
   9  -8   1   48.65    1.26
   9  -8   1   49.46    1.28
   9  -8   1   48.14    1.26
   9  -8   1   48.21    1.29
  -1   9   1   48.93    1.34
  -1   9   1   48.96    1.20
   9  -8   1   49.52    1.38
  -1   9   1   48.48    1.29
  -1   9   1   50.61    1.80
   9   0  -1  104.12    2.34
  -9   9  -1   99.11    2.43
   9   0  -1  104.38    2.23
   0  -9  -1  103.63    3.04
   0  -9  -1  104.38    2.37
   9   0  -1  102.73    2.24
  -9   9  -1  102.22    2.31
  -9   9  -1  103.49    2.31
   9   0  -1  104.46    3.32
   9   0  -1  104.45    2.41
  -9   9  -1  104.90    2.31
   0   9   1  102.29    2.40
   9  -9   1  101.32    2.26
   9  -9   1   98.83    2.23
  -9   0   1   99.71    2.39
   9  -9   1  102.17    2.26
   9  -9   1  101.04    2.28
  -9   0   1  101.52    2.42
   9  -9   1  101.10    2.42
   0   9   1  100.42    2.34
   9  -9   1   99.96    2.28
   9  -9   1  103.43    2.31
   0   9   1  107.14    3.29
   0   9   1   99.76    2.30
   9  -9   1  102.92    3.21
  10  -1  -1   23.52    0.80
  10  -1  -1   22.97    0.80
  -9  10  -1   24.18    0.80
  -9  10  -1   22.87    0.81
  -1  -9  -1   22.69    1.05
  10  -1  -1   23.38    0.78
  -9  10  -1   22.81    0.86
  10  -1  -1   23.96    0.85
  -9  10  -1   23.57    0.78
   1   9   1   24.13    0.87
   1   9   1   23.08    0.78
 -10   1   1   23.14    0.85
   9 -10   1   23.41    0.81
   9 -10   1   23.57    0.79
   9 -10   1   23.57    0.77
   9 -10   1   22.63    0.75
 -10   1   1   23.32    0.85
   9 -10   1   23.48    0.75
   1   9   1   25.07    1.18
   1   9   1   22.90    0.80
   9 -10   1   23.00    0.82
  -9  11  -1   27.77    0.92
  11  -2  -1   28.13    0.99
  11  -2  -1   28.52    0.91
  -9  11  -1   28.83    0.95
  -2  -9  -1   27.92    1.22
  -9  11  -1   28.65    1.00
  11  -2  -1   29.69    0.93
  11  -2  -1   27.99    0.91
   9 -11   1   29.63    0.88
   2   9   1   29.20    0.94
   2   9   1   28.36    0.92
 -11   2   1   27.92    0.97
 -11   2   1   28.75    1.01
   2   9   1   29.61    1.37
   9 -11   1   28.93    0.93
   2   9   1   28.07    0.99
  -9  12  -1   59.68    1.58
  12  -3  -1   59.16    1.55
  12  -3  -1   59.17    1.55
  12  -3  -1   58.43    1.68
  -3  -9  -1   58.98    2.05
  12  -3  -1   57.90    1.54
  -9  12  -1   58.64    1.59
  -9  12  -1   58.93    1.66
   3   9   1   53.92    2.25
   3   9   1   59.97    1.55
 -12   3   1   59.27    1.62
   9 -12   1   60.74    1.51
   3   9   1   57.75    1.65
   3   9   1   60.07    1.60
   9 -12   1   58.93    1.54
 -12   3   1   59.13    1.68
  13  -4  -1    4.96    0.41
  -4  -9  -1    4.45    0.48
  13  -4  -1    5.20    0.44
  -9  13  -1    5.90    0.42
  -9  13  -1    5.09    0.42
  13  -4  -1    5.32    0.41
  -9  13  -1    5.66    0.44
   4   9   1    5.86    0.62
 -13   4   1    5.08    0.44
   9 -13   1    5.55    0.41
 -13   4   1    5.09    0.41
   4   9   1    4.49    0.40
   4   9   1    4.97    0.39
   4   9   1    4.92    0.42
  -9  14  -1   36.18    1.22
  -5  -9  -1   37.77    1.54
  14  -5  -1   35.08    1.30
  14  -5  -1   35.85    1.19
  14  -5  -1   37.31    1.21
  -9  14  -1   38.86    1.23
 -14   5   1   37.92    1.31
   5   9   1   37.69    1.24
   5   9   1   37.87    1.28
 -14   5   1   36.80    1.23
  -9  15  -1   39.64    1.31
  15  -6  -1   39.17    1.41
  -9  15  -1   40.84    1.31
  15  -6  -1   38.68    1.29
  15  -6  -1   39.31    1.28
 -15   6   1   38.77    1.29
   6   9   1   37.48    1.33
 -15   6   1   38.53    1.39
   6   9   1   38.52    1.32
  16  -7  -1   14.38    0.82
  16  -7  -1   14.94    0.77
  -9  16  -1   14.78    0.76
  -9  16  -1   14.46    0.75
  16  -7  -1   14.87    0.77
   7   9   1   14.22    0.78
   7   9   1   13.67    0.77
 -16   7   1   14.06    0.80
  17  -8  -1    2.55    0.43
  -9  17  -1    2.93    0.42
  17  -8  -1    2.81    0.42
  -9  17  -1    4.02    0.48
  17  -8  -1    3.44    0.45
   8   9   1    3.40    0.46
 -17   8   1    3.34    0.47
   8   9   1    3.71    0.49
  -9  18  -1   14.03    0.79
  -9  18  -1   13.70    0.79
  18  -9  -1   13.65    0.78
  18  -9  -1   13.66    0.80
   9   9   1   14.16    0.82
   9   9   1   14.32    0.85
 -18   9   1   13.71    0.85
  19 -10  -1    5.25    0.52
  19 -10  -1    4.76    0.57
  -9  19  -1    5.55    0.54
  -9  19  -1    4.28    0.54
  10   9   1    6.12    0.56
  10   9   1    5.26    0.61
  18 -10  -1    5.21    0.51
  -8  18  -1    5.04    0.50
  -8  18  -1    4.93    0.49
 -10  -8  -1    5.40    0.52
  18 -10  -1    5.30    0.52
  10   8   1    5.94    0.55
 -18  10   1    4.95    0.52
  10   8   1    6.08    0.56
  -7  17  -1    1.55    0.33
  17 -10  -1    1.23    0.31
 -10  -7  -1    1.14    0.29
  -7  17  -1    1.71    0.34
  17 -10  -1    1.75    0.34
  17 -10  -1    1.23    0.33
  10   7   1    1.35    0.32
 -17  10   1    1.36    0.33
  10   7   1    1.01    0.31
  16 -10  -1   14.63    0.75
  16 -10  -1   13.81    0.81
  -6  16  -1   13.65    0.76
  -6  16  -1   15.52    0.77
 -10  -6  -1   13.40    0.74
  16 -10  -1   14.06    0.76
 -16  10   1   13.70    0.80
  10   6   1   14.02    0.75
  10   6   1   14.25    0.79
  15 -10  -1   10.33    0.67
  -5  15  -1   10.72    0.63
  15 -10  -1   11.52    0.65
  -5  15  -1   11.01    0.65
  15 -10  -1   10.85    0.64
 -10  -5  -1   10.71    0.64
  10   5   1   10.06    0.65
 -15  10   1   10.24    0.67
  10   5   1   10.68    0.63
  -4  14  -1    0.32    0.19
  -4  14  -1    0.52    0.20
  14 -10  -1    0.16    0.18
  14 -10  -1    0.31    0.19
 -10  -4  -1    0.32    0.18
  14 -10  -1    0.58    0.21
  10   4   1    0.09    0.17
  10   4   1    0.37    0.20
  10   4   1    0.42    0.20
  10   4   1    0.47    0.22
 -14  10   1    0.35    0.18
  -3  13  -1    3.95    0.39
  13 -10  -1    4.69    0.40
  13 -10  -1    3.41    0.38
  13 -10  -1    3.47    0.42
  -3  13  -1    4.24    0.37
  -3  13  -1    3.82    0.35
 -10  -3  -1    3.51    0.41
  10   3   1    5.53    0.44
 -13  10   1    5.13    0.43
  10   3   1    5.68    0.42
  10   3   1    5.11    0.41
  10   3   1    5.44    0.44
  -2  12  -1   27.09    1.30
  12 -10  -1   25.40    0.90
  12 -10  -1   25.33    0.92
  -2  12  -1   24.98    0.88
 -10  -2  -1   25.17    0.95
  12 -10  -1   25.04    1.00
  -2  12  -1   25.62    0.96
  -2  12  -1   26.81    0.91
  10   2   1   25.85    1.38
  10   2   1   24.53    0.96
  10   2   1   25.53    0.91
 -12  10   1   26.35    1.00
 -12  10   1   27.08    0.89
  10   2   1   26.70    0.92
  10   2   1   25.21    0.97
  -1  11  -1    1.57    0.27
  -1  11  -1    1.49    0.34
  -1  11  -1    1.59    0.25
 -10  -1  -1    1.39    0.26
  11 -10  -1    1.35    0.24
  -1  11  -1    1.74    0.25
  11 -10  -1    0.93    0.21
  11 -10  -1    1.54    0.27
  10   1   1    1.40    0.25
  10   1   1    1.43    0.22
   1 -11   1    1.65    0.25
 -11  10   1    1.63    0.26
 -11  10   1    1.29    0.26
  10   1   1    1.27    0.34
  10   1   1    1.23    0.25
  10   1   1    1.56    0.27
  10   1   1    1.19    0.23
 -10   0  -1   32.51    1.06
  10 -10  -1   32.61    1.09
   0  10  -1   33.85    0.97
  10 -10  -1   31.91    1.00
   0  10  -1   32.18    1.06
   0  10  -1   32.71    1.03
   0  10  -1   34.16    1.48
  10 -10  -1   33.33    0.98
  10   0   1   31.44    1.48
  10   0   1   33.50    1.01
 -10  10   1   31.91    1.07
  10   0   1   32.13    0.95
  10   0   1   33.36    1.11
   0 -10   1   33.10    1.00
 -10  10   1   32.56    1.00
  10   0   1   31.65    1.06
  10   0   1   32.33    1.01
   9 -10  -1   22.61    0.79
 -10   1  -1   23.62    0.85
   9 -10  -1   23.95    0.77
   1   9  -1   22.58    0.81
 -10   1  -1   25.38    0.83
   9 -10  -1   24.08    0.88
 -10   1  -1   23.26    0.98
   1   9  -1   24.06    0.85
   1   9  -1   23.25    1.17
  -9  10   1   24.90    0.83
  10  -1   1   23.27    1.19
  10  -1   1   24.63    0.77
  10  -1   1   24.18    0.86
  10  -1   1   23.38    0.89
  -9  10   1   24.13    0.84
  -1  -9   1   24.03    0.82
  10  -1   1   22.68    0.78
  10  -1   1   24.51    0.76
  10  -1   1   24.01    0.76
  10  -1   1   23.24    0.81
   8 -10  -1    9.77    0.48
   2   8  -1   10.16    0.72
   8 -10  -1   10.37    0.46
   2   8  -1    9.74    0.50
   2   8  -1   10.67    0.52
 -10   2  -1   10.02    0.44
 -10   2  -1   10.04    0.49
 -10   2  -1   10.24    0.52
 -10   2  -1   10.51    0.60
   8 -10  -1   10.57    0.53
  -8  10   1   10.96    0.51
  10  -2   1   11.12    0.47
  10  -2   1   10.85    0.53
  10  -2   1   10.47    0.55
  10  -2   1   10.77    0.73
  -8  10   1   10.55    0.49
  10  -2   1   10.35    0.48
  -8  10   1   10.69    0.50
  10  -2   1   10.16    0.44
  10  -2   1   10.36    0.51
  10  -2   1   10.41    0.47
  -2  -8   1   10.39    0.50
   3   7  -1   41.99    1.70
   7 -10  -1   41.10    1.11
   3   7  -1   42.00    1.19
 -10   3  -1   43.25    1.21
   7 -10  -1   39.67    1.05
   7 -10  -1   40.59    1.20
   3   7  -1   41.99    1.18
 -10   3  -1   40.74    1.20
 -10   3  -1   42.34    1.09
  -7  10   1   42.80    1.17
  10  -3   1   42.39    1.19
  10  -3   1   41.54    1.13
  10  -3   1   42.29    1.10
  10  -3   1   42.01    1.16
  10  -3   1   41.21    1.67
  -7  10   1   41.85    1.18
  -7  10   1   42.19    1.11
  10  -3   1   41.78    1.09
  10  -3   1   42.23    1.13
  10  -3   1   44.48    1.29
  -3  -7   1   42.59    1.14
  -3  -7   1   42.20    1.18
   4   6  -1    8.51    0.65
   6 -10  -1    8.45    0.45
   6 -10  -1    9.09    0.43
   4   6  -1    8.75    0.44
   4   6  -1    8.34    0.45
 -10   4  -1    9.08    0.47
 -10   4  -1    8.26    0.44
 -10   4  -1    8.79    0.41
  10  -4   1    8.47    0.45
  -6  10   1    8.30    0.41
  10  -4   1    8.02    0.61
  10  -4   1    8.58    0.40
  10  -4   1    8.68    0.41
  -6  10   1    8.42    0.45
  -4  -6   1    8.39    0.41
  10  -4   1    8.01    0.43
  10  -4   1    8.50    0.41
  10  -4   1    8.18    0.44
  -6  10   1    8.38    0.41
  -4  -6   1    8.41    0.45
  10  -4   1    8.35    0.49
  -6  10   1    8.06    0.40
   5   5  -1    0.17    0.13
 -10   5  -1    0.04    0.10
 -10   5  -1    0.07    0.13
   5   5  -1    0.09    0.11
 -10   5  -1    0.02    0.10
   5   5  -1    0.04    0.16
   5 -10  -1    0.00    0.10
   5   5  -1    0.06    0.10
   5 -10  -1    0.13    0.12
 -10   5  -1    0.16    0.13
  10  -5   1    0.12    0.10
  10  -5   1    0.09    0.14
  -5  10   1    0.28    0.12
  10  -5   1    0.01    0.15
  10  -5   1    0.12    0.11
  10  -5   1    0.04    0.11
  10  -5   1   -0.01    0.12
  -5  -5   1   -0.04    0.10
  -5  10   1    0.00    0.12
  10  -5   1    0.02    0.12
  10  -5   1    0.03    0.10
  -5  -5   1    0.03    0.10
  -5  10   1    0.14    0.12
  -5  10   1   -0.07    0.10
   4 -10  -1    9.15    0.46
   6   4  -1    8.95    0.40
   6   4  -1    8.85    0.42
 -10   6  -1    8.23    0.44
   4 -10  -1    9.42    0.43
   6   4  -1    9.14    0.47
   6   4  -1    8.75    0.65
 -10   6  -1    8.60    0.48
 -10   6  -1    9.12    0.43
 -10   6  -1    8.92    0.43
  -4  10   1    8.49    0.45
  -6  -4   1    8.69    0.43
  -4  10   1    8.38    0.44
  10  -6   1    8.45    0.44
  -4  10   1    8.34    0.40
  10  -6   1    8.86    0.44
  10  -6   1    8.26    0.45
  10  -6   1    8.88    0.62
  -6  -4   1    8.27    0.46
  -4  10   1    8.29    0.45
  10  -6   1    8.34    0.45
  10  -6   1    8.35    0.39
  10  -6   1    8.37    0.40
  10  -6   1    8.83    0.49
   7   3  -1   42.00    1.20
 -10   7  -1   42.05    1.12
 -10   7  -1   40.36    1.23
   3 -10  -1   41.80    1.08
 -10   7  -1   42.26    1.17
   7   3  -1   41.72    1.11
   3 -10  -1   43.37    1.19
   7   3  -1   40.83    1.70
   7   3  -1   41.46    1.08
 -10   7  -1   42.00    1.14
  -3  10   1   42.27    1.20
  10  -7   1   42.77    1.13
  10  -7   1   42.04    1.10
  10  -7   1   42.57    1.15
  10  -7   1   41.60    1.17
  -7  -3   1   44.52    1.20
  -3  10   1   43.26    1.17
  -3  10   1   42.55    1.19
  10  -7   1   43.04    1.63
  -7  -3   1   43.01    1.22
  10  -7   1   41.76    1.15
  10  -7   1   42.53    1.27
  -3  10   1   41.85    1.07
   8   2  -1    9.87    0.50
   8   2  -1    9.28    0.45
 -10   8  -1   10.71    0.47
   8   2  -1   10.68    0.75
   8   2  -1   10.46    0.48
 -10   8  -1   10.20    0.49
 -10   8  -1   10.04    0.53
 -10   8  -1   10.40    0.49
   2 -10  -1   10.20    0.48
  10  -8   1   10.81    0.46
  10  -8   1   10.73    0.48
  -2  10   1    9.94    0.50
  -8  -2   1   10.82    0.53
  10  -8   1   10.75    0.47
  10  -8   1   10.72    0.52
  -8  -2   1   10.42    0.51
  10  -8   1   10.73    0.54
  -2  10   1   10.39    0.48
  10  -8   1   11.06    0.50
  10  -8   1   11.11    0.68
  10  -8   1   10.16    0.50
  -2  10   1    9.95    0.51
 -10   9  -1   23.54    0.81
   9   1  -1   22.31    0.74
   9   1  -1   22.99    0.81
   9   1  -1   23.93    0.82
 -10   9  -1   23.34    0.87
   9   1  -1   23.55    0.76
 -10   9  -1   22.26    0.77
   9   1  -1   20.96    1.14
 -10   9  -1   23.01    0.77
  -9  -1   1   24.56    0.86
  10  -9   1   23.09    0.76
  -9  -1   1   23.09    0.82
  10  -9   1   22.27    0.84
  10  -9   1   23.32    1.07
  10  -9   1   25.25    0.78
  10  -9   1   23.43    0.74
  -1  10   1   23.28    0.85
  10  -9   1   22.34    0.77
  -1  10   1   22.61    0.81
  10  -9   1   21.99    0.80
  10  -9   1   23.83    0.78
  10   0  -1   34.85    1.51
 -10  10  -1   33.00    0.99
 -10  10  -1   33.03    0.99
  10   0  -1   33.98    0.98
 -10  10  -1   32.98    1.03
   0 -10  -1   32.08    1.34
  10   0  -1   34.15    1.06
 -10  10  -1   31.67    1.08
  10   0  -1   34.01    1.04
  10   0  -1   33.74    0.99
   0  10   1   33.47    1.08
  10 -10   1   33.41    1.03
  10 -10   1   31.90    0.98
  10 -10   1   33.04    0.99
 -10   0   1   31.53    1.06
  10 -10   1   31.82    0.97
  10 -10   1   31.96    1.06
  10 -10   1   32.31    0.95
 -10   0   1   32.39    1.07
   0  10   1   33.15    1.03
 -10  11  -1    1.35    0.26
 -10  11  -1    1.42    0.25
  11  -1  -1    1.44    0.36
  11  -1  -1    1.61    0.26
  11  -1  -1    1.36    0.24
 -10  11  -1    1.53    0.24
  -1 -10  -1    1.47    0.32
  11  -1  -1    1.10    0.22
  11  -1  -1    1.40    0.24
   1  10   1    1.60    0.27
 -11   1   1    1.70    0.28
   1  10   1    1.58    0.25
  10 -11   1    1.66    0.27
   1  10   1    1.67    0.37
   1  10   1    1.95    0.27
  10 -11   1    1.32    0.21
 -11   1   1    1.53    0.26
  10 -11   1    1.70    0.27
  12  -2  -1   27.14    0.92
 -10  12  -1   28.20    0.93
  -2 -10  -1   25.10    1.20
  12  -2  -1   27.41    0.92
  12  -2  -1   26.45    0.92
 -10  12  -1   25.48    0.98
 -10  12  -1   25.82    0.94
  12  -2  -1   26.70    0.99
  12  -2  -1   25.25    1.27
   2  10   1   26.53    0.99
   2  10   1   26.85    1.37
   2  10   1   26.68    0.93
   2  10   1   27.18    0.92
 -12   2   1   26.90    0.98
 -12   2   1   25.61    0.98
  10 -12   1   26.45    0.93
 -10  13  -1    3.75    0.37
  13  -3  -1    3.42    0.41
 -10  13  -1    3.91    0.39
  13  -3  -1    3.65    0.36
  13  -3  -1    3.53    0.34
  13  -3  -1    3.46    0.39
  -3 -10  -1    4.60    0.49
 -10  13  -1    4.34    0.37
 -13   3   1    5.61    0.44
  10 -13   1    5.43    0.41
   3  10   1    5.33    0.40
 -13   3   1    5.62    0.45
   3  10   1    5.74    0.63
   3  10   1    5.56    0.45
   3  10   1    5.38    0.42
  14  -4  -1    0.20    0.17
  14  -4  -1    0.31    0.19
 -10  14  -1    0.50    0.19
 -10  14  -1    0.48    0.20
  14  -4  -1    0.31    0.19
  -4 -10  -1    0.28    0.22
 -10  14  -1    0.20    0.18
 -14   4   1    0.19    0.18
   4  10   1    0.41    0.20
 -14   4   1    0.65    0.23
  10 -14   1    0.39    0.20
   4  10   1    0.54    0.22
  15  -5  -1   10.34    0.62
  15  -5  -1   10.27    0.62
 -10  15  -1   10.78    0.61
 -10  15  -1   10.53    0.63
  15  -5  -1   10.13    0.66
  -5 -10  -1    9.57    0.75
 -10  15  -1   10.61    0.63
   5  10   1   10.78    0.66
 -15   5   1    9.65    0.64
   5  10   1   10.17    0.64
 -15   5   1   10.51    0.62
  16  -6  -1   12.25    0.76
 -10  16  -1   12.73    0.72
 -10  16  -1   14.66    0.75
  16  -6  -1   14.23    0.75
  16  -6  -1   14.28    0.74
   6  10   1   13.89    0.77
 -16   6   1   13.24    0.78
   6  10   1   13.41    0.76
 -10  17  -1    1.20    0.30
 -10  17  -1    1.42    0.31
  17  -7  -1    1.06    0.29
  17  -7  -1    1.25    0.32
  17  -7  -1    1.18    0.30
   7  10   1    1.34    0.33
   7  10   1    1.26    0.31
 -17   7   1    0.71    0.27
 -10  18  -1    5.60    0.50
  18  -8  -1    4.22    0.51
 -10  18  -1    4.93    0.49
  18  -8  -1    5.00    0.56
   8  10   1    4.82    0.56
 -18   8   1    4.08    0.54
   8  10   1    5.29    0.53
  19  -9  -1    5.65    0.54
  19  -9  -1    4.37    0.54
 -10  19  -1    5.19    0.58
   9  10   1    4.96    0.59
   9  10   1    5.09    0.60
  19 -11  -1    4.73    0.56
  -8  19  -1    4.73    0.56
  19 -11  -1    4.73    0.56
 -11  -8  -1    4.47    0.54
  -8  19  -1    5.15    0.51
  11   8   1    4.46    0.57
 -11  -7  -1    5.21    0.52
  18 -11  -1    5.45    0.51
  -7  18  -1    4.38    0.51
  -7  18  -1    4.65    0.49
  18 -11  -1    4.86    0.55
  11   7   1    4.76    0.57
 -18  11   1    4.08    0.54
  -6  17  -1   24.37    1.08
  -6  17  -1   24.46    1.03
 -11  -6  -1   25.58    1.08
  17 -11  -1   23.89    1.14
  17 -11  -1   24.57    1.06
  17 -11  -1   22.51    1.01
  11   6   1   25.59    1.06
  11   6   1   25.84    1.13
 -17  11   1   23.71    1.11
  16 -11  -1    6.91    0.54
  -5  16  -1    6.25    0.50
 -11  -5  -1    5.65    0.49
  -5  16  -1    6.01    0.51
  16 -11  -1    5.87    0.50
  16 -11  -1    5.81    0.54
  11   5   1    5.83    0.49
  11   5   1    6.63    0.55
 -16  11   1    5.91    0.53
  15 -11  -1   16.42    0.86
 -11  -4  -1   16.15    0.81
  15 -11  -1   15.50    0.78
  -4  15  -1   16.54    0.81
  15 -11  -1   16.93    0.79
  11   4   1   15.79    0.75
 -15  11   1   16.69    0.85
  11   4   1   15.02    0.76
  11   4   1   16.80    0.82
  11   4   1   15.65    0.82
  -3  14  -1   16.66    0.75
  14 -11  -1   15.83    0.75
 -11  -3  -1   15.59    0.77
  -3  14  -1   16.01    0.79
  14 -11  -1   16.41    0.83
  14 -11  -1   16.19    0.75
  11   3   1   15.89    0.79
  11   3   1   15.94    0.79
 -14  11   1   16.00    0.81
  11   3   1   15.81    0.75
  11   3   1   17.01    0.74
  -2  13  -1    4.50    0.42
  -2  13  -1    5.31    0.58
  13 -11  -1    5.80    0.45
  13 -11  -1    5.43    0.42
  -2  13  -1    4.34    0.39
  -2  13  -1    5.03    0.40
  13 -11  -1    4.58    0.44
 -11  -2  -1    5.30    0.44
  11   2   1    4.34    0.41
 -13  11   1    5.02    0.44
  11   2   1    5.07    0.45
  11   2   1    4.67    0.41
  11   2   1    4.79    0.41
  12 -11  -1   19.79    0.87
 -11  -1  -1   18.33    0.82
  -1  12  -1   20.26    0.86
  -1  12  -1   20.46    1.15
  12 -11  -1   19.75    0.78
  -1  12  -1   20.57    0.80
  -1  12  -1   20.57    0.77
  12 -11  -1   20.48    0.81
  11   1   1   21.25    0.81
 -12  11   1   19.99    0.86
  11   1   1   20.78    1.21
  11   1   1   20.19    0.80
  11   1   1   20.44    0.87
 -12  11   1   20.69    0.79
  11   1   1   20.21    0.86
   0  11  -1   20.83    0.84
  11 -11  -1   21.16    0.87
   0  11  -1   21.36    0.81
  11 -11  -1   20.64    0.77
 -11   0  -1   20.43    0.84
  11 -11  -1   21.03    0.81
   0  11  -1   21.10    1.15
 -11  11   1   22.10    0.87
  11   0   1   19.83    0.72
  11   0   1   19.95    0.77
  11   0   1   20.99    0.81
   0 -11   1   20.95    0.79
  11   0   1   20.04    0.84
  11   0   1   21.71    1.21
  11   0   1   20.72    0.87
 -11  11   1   22.07    0.81
 -11   1  -1    1.23    0.23
  10 -11  -1    1.33    0.23
  10 -11  -1    1.09    0.24
   1  10  -1    1.23    0.25
 -11   1  -1    1.18    0.25
   1  10  -1    1.37    0.25
   1  10  -1    1.28    0.33
  10 -11  -1    0.99    0.22
  11  -1   1    1.23    0.21
  11  -1   1    1.83    0.39
  -1 -10   1    1.66    0.25
 -10  11   1    1.34    0.25
 -10  11   1    1.38    0.26
  11  -1   1    1.34    0.26
  11  -1   1    1.32    0.23
  11  -1   1    1.54    0.28
  11  -1   1    1.65    0.24
  11  -1   1    1.26    0.25
   9 -11  -1   28.54    0.93
   2   9  -1   28.99    0.98
 -11   2  -1   29.98    0.98
   9 -11  -1   29.61    1.02
   2   9  -1   29.67    1.41
 -11   2  -1   30.67    1.02
   2   9  -1   29.78    1.00
   9 -11  -1   29.73    0.90
  11  -2   1   29.79    1.00
  11  -2   1   28.67    1.39
  11  -2   1   29.14    0.92
  11  -2   1   31.32    0.94
  11  -2   1   30.25    1.06
  -9  11   1   30.99    0.98
  11  -2   1   29.33    0.97
  -2  -9   1   30.39    0.98
  -9  11   1   30.12    0.99
  11  -2   1   30.38    0.90
 -11   3  -1   12.38    0.59
   3   8  -1   12.46    0.84
   8 -11  -1   12.34    0.55
 -11   3  -1   12.36    0.51
   8 -11  -1   12.75    0.52
 -11   3  -1   12.16    0.59
   8 -11  -1   12.05    0.59
   3   8  -1   11.81    0.57
   3   8  -1   12.34    0.58
  11  -3   1   12.34    0.83
  -3  -8   1   13.13    0.59
  11  -3   1   13.23    0.52
  11  -3   1   14.09    0.66
  -8  11   1   12.65    0.56
  11  -3   1   12.12    0.58
  -8  11   1   13.07    0.55
  11  -3   1   12.88    0.59
  11  -3   1   13.70    0.58
  11  -3   1   13.06    0.54
  -8  11   1   13.72    0.61
  11  -3   1   12.83    0.53
   4   7  -1    7.76    0.46
 -11   4  -1    7.45    0.45
 -11   4  -1    7.08    0.39
   7 -11  -1    7.38    0.44
   4   7  -1    6.88    0.62
 -11   4  -1    6.97    0.44
   4   7  -1    6.67    0.42
   7 -11  -1    7.38    0.40
  11  -4   1    7.27    0.61
  11  -4   1    7.80    0.39
  -7  11   1    7.71    0.46
  -7  11   1    7.03    0.40
  11  -4   1    7.42    0.45
  11  -4   1    7.41    0.44
  -4  -7   1    7.71    0.45
  11  -4   1    7.15    0.43
  11  -4   1    7.34    0.48
  11  -4   1    7.22    0.40
   5   6  -1   49.09    1.94
   5   6  -1   50.16    1.33
 -11   5  -1   47.32    1.34
   5   6  -1   48.37    1.36
   5   6  -1   47.28    1.18
   6 -11  -1   48.97    1.25
 -11   5  -1   48.39    1.38
   6 -11  -1   49.52    1.36
 -11   5  -1   47.98    1.24
  -6  11   1   48.95    1.30
  11  -5   1   49.10    1.31
  11  -5   1   47.66    1.26
  -5  -6   1   48.29    1.36
  11  -5   1   47.53    1.24
  -6  11   1   48.24    1.24
  11  -5   1   47.27    1.31
  -6  11   1   48.92    1.35
  11  -5   1   46.57    1.31
  11  -5   1   47.08    1.43
  11  -5   1   48.20    1.87
  -5  -6   1   48.71    1.30
 -11   6  -1   47.39    1.26
   5 -11  -1   48.59    1.35
 -11   6  -1   49.96    1.42
 -11   6  -1   49.65    1.36
   6   5  -1   49.42    1.31
   6   5  -1   46.84    1.35
   6   5  -1   49.97    1.96
   6   5  -1   48.54    1.21
   5 -11  -1   49.69    1.25
  11  -6   1   48.66    1.86
  -6  -5   1   49.50    1.33
  -5  11   1   48.73    1.23
  -5  11   1   48.01    1.35
  11  -6   1   49.32    1.32
  -5  11   1   49.22    1.33
  11  -6   1   47.36    1.31
  11  -6   1   49.28    1.26
  -5  11   1   48.97    1.34
  11  -6   1   49.38    1.45
  11  -6   1   48.83    1.30
  -6  -5   1   49.56    1.39
  11  -6   1   49.96    1.34
   7   4  -1    8.13    0.67
 -11   7  -1    8.16    0.48
 -11   7  -1    7.97    0.43
   7   4  -1    7.58    0.39
   4 -11  -1    7.96    0.44
 -11   7  -1    7.52    0.44
   7   4  -1    7.54    0.41
   7   4  -1    8.03    0.47
  -7  -4   1    7.03    0.41
  -4  11   1    8.04    0.47
  11  -7   1    7.58    0.48
  11  -7   1    7.84    0.46
  -4  11   1    8.33    0.43
  11  -7   1    8.08    0.61
  11  -7   1    7.93    0.44
  -7  -4   1    7.92    0.48
  11  -7   1    7.53    0.45
  -4  11   1    8.08    0.46
  11  -7   1    7.12    0.38
 -11   8  -1   11.99    0.56
   8   3  -1   12.11    0.59
   8   3  -1   12.88    0.86
   8   3  -1   12.13    0.52
 -11   8  -1   11.99    0.62
 -11   8  -1   11.95    0.56
  -8  -3   1   13.32    0.63
  11  -8   1   13.80    0.61
  11  -8   1   13.73    0.65
  -3  11   1   13.50    0.61
  11  -8   1   13.70    0.60
  -8  -3   1   13.03    0.58
  11  -8   1   13.93    0.80
  11  -8   1   13.39    0.56
  11  -8   1   13.59    0.54
  -3  11   1   13.75    0.61
 -11   9  -1   29.23    0.94
   9   2  -1   28.94    0.97
   9   2  -1   29.11    0.94
   9   2  -1   28.44    0.88
 -11   9  -1   28.03    1.01
 -11   9  -1   28.82    0.92
   9   2  -1   28.97    1.40
  -2  11   1   27.96    0.95
  -9  -2   1   29.73    0.97
  -9  -2   1   27.58    0.98
  -2  11   1   28.26    0.98
  11  -9   1   29.04    0.87
  11  -9   1   29.19    1.01
  11  -9   1   28.90    0.96
  11  -9   1   28.01    0.92
 -11  10  -1    1.41    0.25
  10   1  -1    1.29    0.34
  10   1  -1    1.46    0.26
 -11  10  -1    1.45    0.23
  10   1  -1    1.39    0.25
  10   1  -1    1.53    0.24
 -11  10  -1    1.52    0.27
  10   1  -1    1.48    0.23
 -10  -1   1    1.80    0.27
  11 -10   1    1.53    0.25
 -10  -1   1    1.57    0.27
  11 -10   1    1.77    0.28
  -1  11   1    1.81    0.28
  11 -10   1    1.64    0.25
  11 -10   1    1.56    0.23
  -1  11   1    1.48    0.27
  11 -10   1    1.57    0.26
  11   0  -1   16.50    1.06
  11   0  -1   20.89    0.76
 -11  11  -1   20.40    0.80
  11   0  -1   21.26    0.83
 -11  11  -1   19.89    0.84
  11   0  -1   20.54    0.81
  11   0  -1   20.18    0.76
  11 -11   1   21.25    0.84
   0  11   1   21.59    0.82
  11 -11   1   20.13    0.80
  11 -11   1   21.30    0.78
 -11   0   1   20.93    0.83
 -11   0   1   20.02    0.84
   0  11   1   20.26    0.84
  12  -1  -1   20.12    0.85
 -11  12  -1   20.11    0.82
  12  -1  -1   21.28    0.84
  12  -1  -1   19.94    0.78
  12  -1  -1   20.68    0.79
 -11  12  -1   20.40    0.87
 -12   1   1   21.93    0.89
  11 -12   1   21.72    0.84
   1  11   1   21.20    0.82
   1  11   1   21.05    0.88
 -12   1   1   22.86    0.90
  13  -2  -1    5.79    0.46
  13  -2  -1    4.96    0.41
  13  -2  -1    4.53    0.39
 -11  13  -1    5.24    0.43
 -11  13  -1    5.23    0.45
  13  -2  -1    4.95    0.42
   2  11   1    5.25    0.42
 -13   2   1    4.52    0.42
   2  11   1    4.85    0.40
   2  11   1    4.87    0.43
  11 -13   1    4.17    0.38
 -13   2   1    4.93    0.43
 -11  14  -1   17.39    0.82
  14  -3  -1   17.70    0.79
  14  -3  -1   18.44    0.79
  14  -3  -1   17.97    0.85
 -11  14  -1   17.06    0.79
 -14   3   1   16.50    0.80
   3  11   1   16.86    0.75
  11 -14   1   17.22    0.77
   3  11   1   16.91    0.82
   3  11   1   17.63    0.79
 -14   3   1   16.66    0.82
  15  -4  -1   16.36    0.78
  15  -4  -1   15.99    0.77
 -11  15  -1   15.95    0.79
  15  -4  -1   16.83    0.85
 -11  15  -1   16.42    0.81
 -15   4   1   16.02    0.83
 -15   4   1   16.06    0.80
   4  11   1   15.11    0.81
  11 -15   1   15.47    0.75
   4  11   1   17.46    0.81
 -11  16  -1    5.49    0.49
  16  -5  -1    5.68    0.50
 -11  16  -1    5.80    0.50
  16  -5  -1    5.63    0.49
  16  -5  -1    5.61    0.52
   5  11   1    6.03    0.51
 -16   5   1    5.86    0.53
   5  11   1    5.95    0.52
 -16   5   1    6.06    0.51
  17  -6  -1   24.68    1.05
  17  -6  -1   26.84    1.19
 -11  17  -1   27.67    1.12
  17  -6  -1   26.07    1.08
 -17   6   1   25.75    1.16
   6  11   1   26.09    1.13
   6  11   1   26.35    1.13
  18  -7  -1    5.12    0.49
  18  -7  -1    4.55    0.53
 -11  18  -1    5.30    0.51
 -18   7   1    5.00    0.53
   7  11   1    5.11    0.52
   7  11   1    5.35    0.54
 -11  19  -1    4.47    0.54
  19  -8  -1    4.38    0.53
  19  -8  -1    4.45    0.54
   8  11   1    3.91    0.53
   8  11   1    4.82    0.58
  -7  19  -1    0.40    0.25
  -7  19  -1    0.55    0.26
  19 -12  -1    0.52    0.28
  19 -12  -1    0.51    0.27
  18 -12  -1   22.80    1.04
 -12  -6  -1   23.85    1.08
  -6  18  -1   21.95    1.05
  -6  18  -1   22.11    1.01
  18 -12  -1   24.26    1.07
  12   6   1   22.44    1.09
  17 -12  -1   15.95    0.85
  17 -12  -1   17.32    0.86
 -12  -5  -1   15.97    0.86
  17 -12  -1   16.48    0.93
  -5  17  -1   17.23    0.85
  -5  17  -1   16.69    0.88
 -17  12   1   14.27    0.86
  12   5   1   16.51    0.90
  16 -12  -1   17.03    0.83
  -4  16  -1   15.18    0.83
 -12  -4  -1   16.80    0.86
  -4  16  -1   16.79    0.81
  16 -12  -1   17.08    0.91
  16 -12  -1   16.76    0.83
  12   4   1   15.36    0.85
 -16  12   1   16.41    0.89
  15 -12  -1   16.65    0.80
  15 -12  -1   15.69    0.85
  -3  15  -1   15.85    0.77
  -3  15  -1   17.47    0.85
 -12  -3  -1   14.73    0.80
  15 -12  -1   16.82    0.80
 -15  12   1   15.72    0.84
  12   3   1   17.12    0.84
  12   3   1   15.95    0.83
  12   3   1   16.91    0.78
  -2  14  -1   21.62    0.95
 -12  -2  -1   20.99    0.94
  -2  14  -1   23.28    0.89
  14 -12  -1   21.90    0.89
  14 -12  -1   21.50    0.89
  14 -12  -1   19.81    0.95
  12   2   1   21.59    0.95
  12   2   1   21.47    0.88
 -14  12   1   22.05    0.97
  12   2   1   21.71    0.96
  13 -12  -1   26.62    0.99
  13 -12  -1   26.15    0.95
  13 -12  -1   25.47    1.06
 -12  -1  -1   26.99    1.05
  -1  13  -1   25.25    1.02
 -13  12   1   26.78    0.96
  12   1   1   26.54    1.04
  12   1   1   25.73    0.97
 -13  12   1   25.33    1.04
  12   1   1   25.07    1.03
   0  12  -1   27.20    1.39
   0  12  -1   27.83    0.98
   0  12  -1   26.97    1.02
 -12   0  -1   27.35    1.03
  12 -12  -1   26.90    0.97
  12 -12  -1   26.70    1.04
  12 -12  -1   28.13    0.94
 -12  12   1   25.22    1.00
  12   0   1   23.69    0.98
  12   0   1   25.14    0.95
 -12  12   1   25.15    0.94
  12   0   1   24.36    1.01
   1  11  -1   20.45    1.18
  11 -12  -1   19.67    0.85
   1  11  -1   20.75    0.84
 -12   1  -1   19.66    0.85
  11 -12  -1   20.25    0.80
  11 -12  -1   19.99    0.76
   1  11  -1   19.55    0.83
  -1 -11   1   21.34    0.81
  12  -1   1   21.33    0.77
  12  -1   1   21.34    0.87
  12  -1   1   19.89    0.81
  12  -1   1   21.02    1.20
  12  -1   1   20.20    0.88
 -11  12   1   19.98    0.80
 -11  12   1   20.54    0.85
   2  10  -1   26.64    1.36
 -12   2  -1   25.25    0.96
   2  10  -1   26.29    0.94
 -12   2  -1   27.14    0.94
  10 -12  -1   26.19    0.86
  10 -12  -1   25.60    0.96
   2  10  -1   25.59    0.96
  10 -12  -1   25.24    0.89
  12  -2   1   24.44    0.99
  12  -2   1   26.46    0.94
  12  -2   1   26.15    1.35
  12  -2   1   26.10    0.88
  -2 -10   1   27.21    0.94
  12  -2   1   26.58    0.97
 -10  12   1   26.33    0.94
 -10  12   1   26.44    0.95
   3   9  -1   59.82    1.64
 -12   3  -1   63.81    1.68
   9 -12  -1   60.65    1.69
   3   9  -1   61.61    2.37
   9 -12  -1   59.07    1.54
   3   9  -1   61.80    1.66
 -12   3  -1   59.86    1.67
  12  -3   1   58.17    1.74
  -3  -9   1   59.03    1.62
  -9  12   1   60.61    1.63
  12  -3   1   61.19    1.53
  -9  12   1   59.08    1.62
  12  -3   1   60.04    1.61
  12  -3   1   61.61    1.56
  12  -3   1   60.93    2.34
  12  -3   1   60.30    1.65
   4   8  -1  109.73    2.60
   8 -12  -1  110.13    2.66
 -12   4  -1  108.40    2.62
   4   8  -1  114.36    3.75
   4   8  -1  110.04    2.60
 -12   4  -1  113.38    2.68
   8 -12  -1  108.59    2.45
  12  -4   1  116.64    2.52
  -8  12   1  109.69    2.58
  12  -4   1  110.72    2.49
  12  -4   1  105.54    2.74
  -4  -8   1  111.04    2.61
  12  -4   1  109.56    2.59
  12  -4   1  107.96    3.63
  12  -4   1  112.84    2.56
   5   7  -1   32.00    1.50
   5   7  -1   32.07    1.02
   7 -12  -1   31.92    0.95
   5   7  -1   30.83    1.04
 -12   5  -1   32.03    1.07
   7 -12  -1   31.86    1.03
 -12   5  -1   31.09    1.03
 -12   5  -1   31.81    0.94
  -7  12   1   31.74    1.04
  12  -5   1   31.32    1.02
  -7  12   1   29.15    0.92
  12  -5   1   29.93    0.92
  12  -5   1   30.32    1.41
  -5  -7   1   30.70    1.04
  12  -5   1   30.61    1.11
  -7  12   1   30.17    0.96
  12  -5   1   30.17    1.00
  12  -5   1   30.70    1.00
  12  -5   1   29.76    0.94
 -12   6  -1   36.31    1.17
   6 -12  -1   35.38    1.02
 -12   6  -1   35.05    1.02
   6   6  -1   34.61    1.08
   6 -12  -1   35.93    1.11
   6   6  -1   34.66    1.13
 -12   6  -1   36.53    1.13
   6   6  -1   36.08    1.63
  12  -6   1   35.08    1.20
  12  -6   1   35.68    1.11
  -6  -6   1   34.94    1.14
  -6  12   1   35.78    1.08
  12  -6   1   35.28    1.02
  -6  12   1   35.45    1.01
  12  -6   1   34.07    1.08
  -6  12   1   35.35    1.13
  12  -6   1   35.18    1.08
  12  -6   1   34.88    1.53
 -12   7  -1   30.72    1.01
 -12   7  -1   30.30    1.06
   7   5  -1   32.97    1.07
 -12   7  -1   32.58    0.97
   7   5  -1   33.36    1.54
   7   5  -1   32.10    0.98
  12  -7   1   31.22    1.11
  -5  12   1   30.69    1.03
  -5  12   1   31.19    1.02
  -7  -5   1   29.31    1.03
  12  -7   1   31.39    0.93
  12  -7   1   30.83    1.39
  12  -7   1   30.27    1.01
  12  -7   1   30.29    0.98
  12  -7   1   29.47    1.00
 -12   8  -1  109.40    2.74
   8   4  -1  114.01    2.45
   8   4  -1  120.26    3.87
 -12   8  -1  114.13    2.62
 -12   8  -1  116.08    2.56
   8   4  -1  112.16    2.66
  -4  12   1  115.12    2.67
  -8  -4   1  110.34    2.68
  12  -8   1  113.19    2.59
  12  -8   1  109.58    2.56
  12  -8   1  110.26    2.57
  12  -8   1  110.73    2.79
  -4  12   1  113.04    2.64
  12  -8   1  113.73    2.54
  -8  -4   1  115.48    2.66
   9   3  -1   62.57    2.39
 -12   9  -1   61.08    1.57
   9   3  -1   57.65    1.62
 -12   9  -1   58.21    1.70
 -12   9  -1   60.38    1.59
   9   3  -1   59.98    1.49
  12  -9   1   59.10    1.58
  12  -9   1   59.83    1.72
  -9  -3   1   60.96    1.63
  12  -9   1   60.41    1.51
  12  -9   1   58.45    1.60
  -3  12   1   59.55    1.65
  -9  -3   1   58.75    1.67
  -3  12   1   58.85    1.62
  10   2  -1   27.79    1.39
 -12  10  -1   25.94    0.90
 -12  10  -1   26.90    0.94
  10   2  -1   26.15    0.87
 -12  10  -1   25.65    1.00
  10   2  -1   27.29    0.97
  -2  12   1   27.03    0.99
  12 -10   1   27.39    0.96
  12 -10   1   26.95    0.92
  12 -10   1   27.15    1.01
 -10  -2   1   27.07    1.00
  -2  12   1   26.84    0.96
 -10  -2   1   26.36    0.95
  11   1  -1   21.84    1.23
 -12  11  -1   20.73    0.82
 -12  11  -1   20.44    0.88
  11   1  -1   20.47    0.77
  11   1  -1   22.03    0.85
  11   1  -1   19.59    0.82
  11   1  -1   20.58    0.76
  12 -11   1   20.98    0.84
 -11  -1   1   20.16    0.86
  -1  12   1   21.37    0.84
 -11  -1   1   20.46    0.84
  -1  12   1   22.28    0.90
  12 -11   1   19.71    0.85
  12 -11   1   21.00    0.79
 -12  12  -1   27.87    0.97
  12   0  -1   27.38    0.98
  12   0  -1   26.56    0.98
  12   0  -1   27.78    0.92
  12   0  -1   27.97    0.94
  12   0  -1   20.27    1.28
 -12  12  -1   27.67    1.04
   0  12   1   24.58    0.94
   0  12   1   24.46    0.99
  12 -12   1   24.36    0.89
 -12   0   1   24.36    0.98
  12 -12   1   25.02    0.98
  12 -12   1   23.39    0.93
 -12   0   1   23.84    0.95
  13  -1  -1   27.08    1.00
 -12  13  -1   25.57    0.98
 -12  13  -1   25.90    1.05
  13  -1  -1   25.93    1.03
  13  -1  -1   27.45    0.97
  13  -1  -1   27.64    0.96
  12 -13   1   26.52    0.99
   1  12   1   27.24    1.06
 -13   1   1   26.59    1.04
 -13   1   1   25.26    1.02
   1  12   1   25.44    0.97
 -12  14  -1   21.80    0.96
  14  -2  -1   22.31    0.89
  14  -2  -1   22.00    0.88
  14  -2  -1   20.61    0.93
  14  -2  -1   20.74    0.88
 -12  14  -1   21.07    0.90
 -14   2   1   22.27    0.96
   2  12   1   20.91    0.95
 -14   2   1   21.67    0.95
  12 -14   1   22.05    0.91
   2  12   1   22.20    0.89
 -12  15  -1   16.30    0.84
  15  -3  -1   18.02    0.81
  15  -3  -1   16.98    0.80
  15  -3  -1   17.40    0.87
 -12  15  -1   17.23    0.83
   3  12   1   17.59    0.88
 -15   3   1   18.15    0.87
  12 -15   1   16.90    0.79
 -15   3   1   17.68    0.88
  16  -4  -1   16.17    0.81
 -12  16  -1   16.93    0.86
  16  -4  -1   16.09    0.87
  16  -4  -1   16.20    0.81
 -12  16  -1   16.29    0.83
 -16   4   1   17.24    0.87
  12 -16   1   17.38    0.82
   4  12   1   16.59    0.87
 -16   4   1   16.34    0.87
  17  -5  -1   16.62    0.91
  17  -5  -1   17.15    0.84
 -12  17  -1   15.31    0.83
  17  -5  -1   16.22    0.84
 -17   5   1   15.35    0.88
   5  12   1   16.55    0.89
   5  12   1   16.42    0.87
 -17   5   1   16.30    0.86
 -12  18  -1   21.51    1.03
  18  -6  -1   22.17    1.02
  18  -6  -1   22.13    1.02
   6  12   1   23.37    1.10
   6  12   1   24.08    1.08
 -18   6   1   22.99    1.11
 -12  19  -1    0.37    0.25
  19  -7  -1    0.60    0.28
  19  -7  -1    0.78    0.29
   7  12   1    0.94    0.32
   7  12   1    0.48    0.28
  19 -13  -1    3.33    0.48
  -6  19  -1    3.81    0.50
  18 -13  -1   10.61    0.70
  18 -13  -1   10.37    0.69
  -5  18  -1   10.23    0.71
 -13  -5  -1    9.37    0.68
  -5  18  -1    9.96    0.67
  13   5   1   10.02    0.73
 -18  13   1   10.34    0.74
  17 -13  -1    1.61    0.35
  -4  17  -1    1.98    0.36
  -4  17  -1    2.06    0.38
 -13  -4  -1    2.07    0.38
  17 -13  -1    1.75    0.35
  13   4   1    1.77    0.37
 -17  13   1    2.02    0.39
  16 -13  -1    7.70    0.62
  -3  16  -1    7.62    0.59
  16 -13  -1    7.00    0.56
 -13  -3  -1    8.04    0.61
  16 -13  -1    7.63    0.56
  13   3   1    7.05    0.58
 -16  13   1    7.81    0.61
  13   3   1    8.00    0.58
  -2  15  -1   14.72    0.80
  15 -13  -1   14.23    0.75
 -13  -2  -1   13.64    0.78
  15 -13  -1   15.42    0.77
  15 -13  -1   13.73    0.80
  13   2   1   14.76    0.81
 -15  13   1   13.94    0.79
  13   2   1   15.09    0.75
  13   2   1   14.82    0.81
  14 -13  -1    0.70    0.24
  -1  14  -1    0.41    0.21
 -13  -1  -1    0.83    0.26
  -1  14  -1    0.67    0.23
  14 -13  -1    0.88    0.26
  14 -13  -1    0.47    0.22
  13   1   1    0.79    0.24
 -14  13   1    0.49    0.22
  13   1   1    0.58    0.24
 -14  13   1    1.17    0.27
  13   1   1    0.66    0.25
 -13   0  -1   25.47    1.04
  13 -13  -1   26.22    0.99
   0  13  -1   25.95    1.04
  13 -13  -1   25.42    1.06
  13 -13  -1   26.83    0.96
  13   0   1   25.63    0.98
 -13  13   1   25.76    0.97
  13   0   1   25.02    1.03
  13   0   1   25.22    1.05
 -13  13   1   23.40    1.01
  12 -13  -1   26.53    0.94
   1  12  -1   27.44    1.00
   1  12  -1   25.61    1.02
 -13   1  -1   25.39    1.02
  12 -13  -1   27.37    1.06
  12 -13  -1   26.37    0.96
  13  -1   1   25.19    1.06
 -12  13   1   26.78    1.03
 -12  13   1   25.92    0.98
  13  -1   1   25.65    1.02
  13  -1   1   26.11    0.99
   2  11  -1    5.83    0.45
  11 -13  -1    5.38    0.41
  11 -13  -1    5.52    0.45
 -13   2  -1    5.38    0.42
   2  11  -1    5.58    0.45
  11 -13  -1    5.52    0.41
 -13   2  -1    4.88    0.43
  13  -2   1    4.58    0.44
  -2 -11   1    4.26    0.38
  13  -2   1    4.51    0.43
  13  -2   1    5.52    0.45
  13  -2   1    5.35    0.41
 -11  13   1    5.27    0.43
 -11  13   1    5.42    0.44
 -13   3  -1    3.95    0.38
  10 -13  -1    3.63    0.35
  10 -13  -1    3.39    0.36
 -13   3  -1    3.89    0.38
   3  10  -1    3.81    0.38
   3  10  -1    4.21    0.39
  13  -3   1    5.25    0.43
  13  -3   1    5.53    0.43
 -10  13   1    5.93    0.44
  13  -3   1    5.19    0.41
  13  -3   1    5.43    0.60
  13  -3   1    4.62    0.43
  -3 -10   1    5.45    0.43
   4   9  -1    5.36    0.43
 -13   4  -1    5.64    0.43
   4   9  -1    5.62    0.61
   9 -13  -1    4.78    0.38
 -13   4  -1    5.02    0.42
   4   9  -1    5.52    0.43
   9 -13  -1    5.36    0.42
  13  -4   1    4.83    0.39
  13  -4   1    4.83    0.54
  13  -4   1    5.10    0.42
  -4  -9   1    4.32    0.39
  -9  13   1    5.20    0.42
  13  -4   1    4.85    0.43
  13  -4   1    5.17    0.42
   8 -13  -1    0.66    0.21
   5   8  -1    0.68    0.29
   5   8  -1    0.41    0.19
 -13   5  -1    0.83    0.22
   8 -13  -1    0.67    0.19
 -13   5  -1    0.57    0.20
   5   8  -1    0.66    0.21
  -8  13   1    0.85    0.23
  -5  -8   1    0.81    0.22
  -8  13   1    0.70    0.19
  13  -5   1    0.77    0.29
  13  -5   1    0.58    0.20
  13  -5   1    0.94    0.24
  13  -5   1    1.01    0.26
  13  -5   1    0.99    0.25
 -13   6  -1    9.39    0.54
   6   7  -1    9.63    0.56
   6   7  -1    9.78    0.82
   6   7  -1    9.61    0.53
 -13   6  -1    9.63    0.48
 -13   6  -1    8.79    0.55
  13  -6   1    9.40    0.53
  -7  13   1    8.79    0.54
  13  -6   1   10.02    0.56
  13  -6   1    9.72    0.74
  -6  -7   1   10.26    0.56
  13  -6   1    9.44    0.55
  -7  13   1    9.42    0.52
  13  -6   1    9.67    0.60
 -13   7  -1   10.27    0.52
   7   6  -1    9.85    0.52
   7   6  -1   10.78    0.86
   7   6  -1   10.26    0.58
 -13   7  -1   10.26    0.56
 -13   7  -1    9.27    0.57
  -6  13   1    9.97    0.57
  13  -7   1   10.76    0.58
  -7  -6   1   10.57    0.59
  13  -7   1   10.38    0.57
  13  -7   1    9.82    0.53
  13  -7   1   10.07    0.61
  -6  13   1   10.85    0.56
 -13   8  -1    0.61    0.19
 -13   8  -1    0.48    0.19
 -13   8  -1    0.75    0.20
   8   5  -1    0.75    0.22
   8   5  -1    0.65    0.28
  -5  13   1    0.81    0.21
  13  -8   1    0.74    0.22
  -8  -5   1    0.98    0.24
  13  -8   1    0.79    0.23
  -5  13   1    0.79    0.22
  13  -8   1    0.82    0.21
 -13   9  -1    5.03    0.39
   9   4  -1    4.78    0.41
   9   4  -1    5.56    0.61
 -13   9  -1    4.38    0.37
 -13   9  -1    4.97    0.43
  -9  -4   1    5.02    0.41
  13  -9   1    4.97    0.41
  -4  13   1    4.32    0.40
  13  -9   1    4.30    0.41
  13  -9   1    4.30    0.40
  -4  13   1    4.68    0.40
 -13  10  -1    4.27    0.37
  10   3  -1    3.93    0.35
  10   3  -1    4.12    0.55
  10   3  -1    3.44    0.41
 -13  10  -1    4.47    0.38
 -13  10  -1    4.22    0.41
  -3  13   1    5.06    0.42
  -3  13   1    5.38    0.44
  13 -10   1    5.87    0.44
  13 -10   1    5.33    0.42
 -10  -3   1    5.43    0.45
  13 -10   1    4.91    0.44
 -10  -3   1    5.45    0.41
 -13  11  -1    4.92    0.44
 -13  11  -1    5.05    0.41
  11   2  -1    5.13    0.40
  11   2  -1    4.79    0.42
 -11  -2   1    4.84    0.43
 -11  -2   1    4.43    0.39
  13 -11   1    5.44    0.43
  -2  13   1    5.13    0.43
  -2  13   1    4.27    0.40
  13 -11   1    4.39    0.41
  13 -11   1    4.91    0.45
  12   1  -1   26.52    0.92
 -13  12  -1   27.09    1.07
 -13  12  -1   26.51    0.97
  12   1  -1   26.15    1.01
 -12  -1   1   25.46    1.03
  -1  13   1   25.37    0.99
 -12  -1   1   26.82    1.01
  13 -12   1   25.32    1.02
  13 -12   1   25.85    0.99
  13 -12   1   25.03    0.93
  -1  13   1   27.09    1.05
 -13  13  -1   25.73    0.99
  13   0  -1   26.01    1.02
  13   0  -1   25.70    1.00
 -13  13  -1   24.45    1.04
  13   0  -1   25.97    0.95
  13   0  -1   26.31    0.94
   0  13   1   26.89    1.01
 -13   0   1   23.00    1.01
   0  13   1   25.06    1.04
 -13   0   1   26.26    1.03
  13 -13   1   26.25    1.01
 -13  14  -1    0.45    0.22
  14  -1  -1    0.68    0.23
  14  -1  -1    0.96    0.26
  14  -1  -1    0.87    0.24
 -13  14  -1    0.72    0.25
  14  -1  -1    0.87    0.26
 -14   1   1    0.76    0.24
   1  13   1    0.63    0.24
  13 -14   1    0.61    0.25
 -14   1   1    0.58    0.23
   1  13   1    0.75    0.23
  15  -2  -1   14.44    0.79
  15  -2  -1   14.35    0.73
 -13  15  -1   15.30    0.79
  15  -2  -1   14.61    0.73
 -13  15  -1   14.23    0.80
 -15   2   1   14.04    0.78
   2  13   1   13.76    0.78
  13 -15   1   14.77    0.75
 -15   2   1   14.49    0.79
 -13  16  -1    7.21    0.56
  16  -3  -1    7.76    0.56
 -13  16  -1    8.92    0.64
  16  -3  -1    7.90    0.62
  16  -3  -1    8.36    0.58
 -16   3   1    6.93    0.58
  13 -16   1    7.31    0.56
 -16   3   1    7.17    0.57
   3  13   1    7.24    0.59
 -13  17  -1    1.72    0.36
  17  -4  -1    1.75    0.34
 -13  17  -1    1.50    0.34
  17  -4  -1    2.16    0.38
  17  -4  -1    1.79    0.37
 -17   4   1    2.12    0.38
 -17   4   1    1.85    0.37
   4  13   1    1.78    0.37
  18  -5  -1    9.54    0.67
  18  -5  -1   10.38    0.69
 -13  18  -1   10.06    0.69
 -18   5   1    9.60    0.68
   5  13   1   10.02    0.73
  19  -6  -1    3.90    0.51
 -13  19  -1    3.40    0.49
  18 -14  -1   10.33    0.70
  -4  18  -1   10.85    0.74
  18 -14  -1   10.45    0.72
  14   4   1   11.39    0.78
 -14  -3  -1    8.92    0.66
  -3  17  -1    9.24    0.67
  17 -14  -1    8.89    0.63
  17 -14  -1    8.70    0.63
 -17  14   1    8.90    0.68
  14   3   1    8.69    0.67
  16 -14  -1    1.38    0.32
 -14  -2  -1    1.47    0.33
  -2  16  -1    1.83    0.36
  16 -14  -1    1.31    0.33
  16 -14  -1    1.30    0.30
  14   2   1    1.26    0.30
 -16  14   1    1.33    0.33
  14   2   1    1.94    0.38
  14   2   1    1.34    0.32
  15 -14  -1    5.37    0.49
  15 -14  -1    6.37    0.51
  -1  15  -1    5.34    0.51
  15 -14  -1    5.07    0.52
 -14  -1  -1    5.38    0.50
 -15  14   1    5.84    0.52
  14   1   1    6.64    0.55
  14   1   1    6.09    0.51
  14   1   1    5.87    0.53
  14 -14  -1   23.75    0.97
 -14   0  -1   23.42    1.04
   0  14  -1   24.19    1.04
  14 -14  -1   24.09    0.96
  14 -14  -1   23.92    1.05
 -14  14   1   21.58    1.00
  14   0   1   24.64    1.05
  14   0   1   24.76    1.00
  14   0   1   24.72    1.08
 -14  14   1   23.60    0.97
   1  13  -1    0.52    0.21
 -14   1  -1    0.75    0.24
  13 -14  -1    0.88    0.25
   1  13  -1    0.56    0.24
  13 -14  -1    0.64    0.23
  13 -14  -1    0.89    0.25
  14  -1   1    0.96    0.27
  14  -1   1    0.69    0.24
 -13  14   1    0.35    0.21
  14  -1   1    0.91    0.27
 -13  14   1    0.37    0.21
   2  12  -1   21.43    0.94
 -14   2  -1   21.16    0.94
   2  12  -1   22.08    0.93
  12 -14  -1   21.69    0.88
  14  -2   1   21.76    0.99
  14  -2   1   22.36    0.96
 -12  14   1   21.56    0.93
  14  -2   1   23.34    0.94
 -12  14   1   21.77    0.91
 -14   3  -1   15.74    0.79
  11 -14  -1   16.77    0.74
   3  11  -1   17.77    0.82
   3  11  -1   17.78    0.81
  11 -14  -1   15.69    0.78
 -14   3  -1   17.18    0.78
  14  -3   1   16.25    0.79
  14  -3   1   16.80    0.78
  14  -3   1   15.99    0.73
 -11  14   1   16.46    0.79
  14  -3   1   16.51    0.85
  -3 -11   1   17.39    0.78
 -14   4  -1    0.42    0.20
  10 -14  -1    0.44    0.18
   4  10  -1    0.39    0.19
  10 -14  -1    0.29    0.18
 -14   4  -1    0.39    0.19
   4  10  -1    0.37    0.19
  14  -4   1    0.56    0.22
  14  -4   1    0.26    0.18
  -4 -10   1    0.49    0.20
 -10  14   1    0.56    0.22
  14  -4   1    0.33    0.20
  14  -4   1    0.22    0.18
   5   9  -1   37.43    1.25
   5   9  -1   36.77    1.26
 -14   5  -1   35.15    1.23
 -14   5  -1   37.72    1.28
  14  -5   1   38.66    1.76
  -9  14   1   37.41    1.26
  14  -5   1   39.44    1.23
  14  -5   1   39.84    1.27
  14  -5   1   36.97    1.34
  -5  -9   1   38.26    1.25
  14  -5   1   37.15    1.24
   6   8  -1   10.83    0.59
 -14   6  -1   10.30    0.62
   6   8  -1   10.28    0.61
 -14   6  -1   10.05    0.59
  -8  14   1   10.43    0.61
  14  -6   1   10.34    0.65
  14  -6   1   10.97    0.62
  -6  -8   1    9.31    0.58
  14  -6   1   10.49    0.59
  14  -6   1    9.77    0.56
   7   7  -1    2.75    0.37
 -14   7  -1    3.12    0.40
   7   7  -1    2.90    0.36
 -14   7  -1    2.79    0.36
  -7  14   1    2.42    0.34
  -7  14   1    3.00    0.39
  14  -7   1    2.98    0.38
  -7  -7   1    2.34    0.34
  14  -7   1    2.46    0.33
  14  -7   1    2.59    0.39
  14  -7   1    2.72    0.36
   8   6  -1   10.25    0.61
 -14   8  -1   10.14    0.54
 -14   8  -1   10.06    0.57
 -14   8  -1   10.15    0.62
  14  -8   1   10.40    0.64
  14  -8   1    9.78    0.58
  -6  14   1   10.97    0.60
  -6  14   1   10.90    0.62
  14  -8   1   10.31    0.60
  -8  -6   1   10.20    0.60
   9   5  -1   36.53    1.25
 -14   9  -1   37.64    1.16
 -14   9  -1   36.21    1.28
 -14   9  -1   36.69    1.20
  14  -9   1   36.97    1.23
  14  -9   1   36.91    1.22
  -9  -5   1   36.32    1.27
  14  -9   1   37.27    1.32
  -5  14   1   38.68    1.26
  -5  14   1   36.62    1.25
 -14  10  -1    0.26    0.18
  10   4  -1    0.44    0.21
 -14  10  -1    0.40    0.20
  -4  14   1    0.44    0.21
  -4  14   1    0.42    0.20
  14 -10   1    0.52    0.21
  14 -10   1    0.41    0.20
  14 -10   1    0.56    0.22
 -10  -4   1    0.58    0.22
 -14  11  -1   17.98    0.86
  11   3  -1   16.57    0.79
 -14  11  -1   19.09    0.79
 -11  -3   1   17.07    0.83
  -3  14   1   18.22    0.84
  14 -11   1   16.98    0.77
  14 -11   1   17.61    0.85
  -3  14   1   16.75    0.80
  14 -11   1   16.59    0.79
  12   2  -1   21.35    0.83
  12   2  -1   21.36    0.93
 -14  12  -1   19.84    0.93
 -14  12  -1   20.30    0.86
  -2  14   1   20.93    0.94
  -2  14   1   22.01    0.92
 -12  -2   1   21.25    0.95
  14 -12   1   22.57    0.89
  14 -12   1   21.55    0.91
  14 -12   1   21.65    0.96
 -14  13  -1    0.82    0.26
  13   1  -1    0.84    0.25
 -14  13  -1    1.05    0.26
  13   1  -1    0.83    0.23
  14 -13   1    0.72    0.26
  -1  14   1    0.60    0.25
 -13  -1   1    0.76    0.24
  14 -13   1    0.68    0.24
 -13  -1   1    0.86    0.26
 -14  14  -1   24.36    1.01
  14   0  -1   25.78    1.04
 -14  14  -1   24.09    1.07
  14   0  -1   24.46    0.95
   0  14   1   24.43    1.07
  14 -14   1   23.83    1.00
   0  14   1   24.91    1.01
 -14   0   1   23.96    1.05
 -14   0   1   23.61    1.02
 -14  15  -1    5.32    0.49
  15  -1  -1    6.12    0.49
  15  -1  -1    6.05    0.50
  15  -1  -1    5.81    0.51
 -14  15  -1    6.57    0.55
 -15   1   1    6.53    0.54
   1  14   1    6.11    0.54
 -15   1   1    5.39    0.51
   1  14   1    5.92    0.50
  14 -15   1    6.10    0.51
  16  -2  -1    1.44    0.32
 -14  16  -1    1.23    0.31
 -14  16  -1    1.53    0.34
  16  -2  -1    1.27    0.32
  16  -2  -1    1.62    0.33
   2  14   1    1.45    0.34
  14 -16   1    1.66    0.35
 -16   2   1    1.57    0.35
 -16   2   1    1.33    0.33
 -14  17  -1    8.13    0.63
  17  -3  -1    9.36    0.64
  17  -3  -1    9.45    0.64
 -14  17  -1    8.93    0.66
  14 -17   1    9.38    0.65
 -17   3   1    8.79    0.66
 -17   3   1    9.34    0.68
   3  14   1   10.64    0.73
  18  -4  -1   10.50    0.71
  18  -4  -1   11.63    0.74
 -14  18  -1   11.67    0.76
   4  14   1   11.63    0.79
 -18   4   1   11.97    0.77
 -18   4   1   11.34    0.77
  18 -15  -1   16.81    0.90
  17 -15  -1   18.99    0.94
  -2  17  -1   18.63    0.98
  17 -15  -1   18.90    0.91
 -15  -2  -1   18.31    0.98
 -17  15   1   18.24    0.99
  15   2   1   18.03    0.90
  15   2   1   18.46    0.99
  16 -15  -1    0.54    0.25
  16 -15  -1    0.84    0.28
  -1  16  -1    0.66    0.26
 -15  -1  -1    0.72    0.28
  15   1   1    1.08    0.31
  15   1   1    0.69    0.27
 -16  15   1    1.03    0.30
  15   1   1    0.96    0.31
  15 -15  -1   19.99    0.90
  15 -15  -1   19.47    0.88
   0  15  -1   19.40    0.96
 -15   0  -1   17.85    0.94
  15   0   1   19.61    0.92
  15   0   1   18.17    0.93
 -15  15   1   19.35    0.90
  15   0   1   19.25    0.98
  14 -15  -1    6.81    0.52
 -15   1  -1    5.58    0.52
  14 -15  -1    5.37    0.50
   1  14  -1    6.00    0.53
   1  14  -1    5.61    0.49
  15  -1   1    5.51    0.52
 -14  15   1    5.40    0.50
 -14  15   1    6.19    0.50
  15  -1   1    5.33    0.49
  15  -1   1    6.28    0.55
  13 -15  -1   15.39    0.75
 -15   2  -1   14.85    0.80
   2  13  -1   14.94    0.78
   2  13  -1   14.45    0.80
  15  -2   1   15.37    0.80
  15  -2   1   13.40    0.75
 -13  15   1   14.88    0.77
  15  -2   1   15.13    0.85
  12 -15  -1   17.16    0.78
   3  12  -1   16.99    0.84
   3  12  -1   17.49    0.84
 -15   3  -1   15.49    0.82
  15  -3   1   16.35    0.89
  15  -3   1   16.44    0.82
  15  -3   1   17.42    0.78
 -12  15   1   17.05    0.82
  15  -3   1   19.10    0.88
   4  11  -1   16.75    0.82
 -15   4  -1   16.80    0.83
   4  11  -1   16.70    0.81
  -4 -11   1   16.53    0.78
  15  -4   1   16.81    0.82
  15  -4   1   15.22    0.75
  15  -4   1   15.06    0.83
  15  -4   1   16.04    0.79
 -11  15   1   15.94    0.79
 -15   5  -1   10.68    0.65
 -15   5  -1   11.21    0.66
   5  10  -1   11.09    0.65
   5  10  -1   10.69    0.65
  15  -5   1   11.14    0.63
  15  -5   1   10.63    0.64
 -10  15   1   10.34    0.64
  -5 -10   1   10.68    0.63
  15  -5   1   11.13    0.64
  15  -5   1    9.80    0.67
 -15   6  -1   40.56    1.37
   6   9  -1   39.29    1.35
   6   9  -1   39.06    1.31
 -15   6  -1   37.79    1.30
  15  -6   1   39.80    1.29
  15  -6   1   38.95    1.42
  15  -6   1   40.20    1.29
  -9  15   1   36.57    1.31
  -6  -9   1   38.61    1.31
  15  -6   1   38.30    1.31
   7   8  -1   16.37    0.80
 -15   7  -1   15.37    0.76
 -15   7  -1   15.39    0.80
   7   8  -1   15.95    0.75
  -8  15   1   15.04    0.77
  15  -7   1   15.37    0.84
  -7  -8   1   15.20    0.77
  15  -7   1   16.25    0.77
  15  -7   1   16.49    0.79
 -15   8  -1   14.53    0.73
 -15   8  -1   14.65    0.78
   8   7  -1   14.62    0.76
  -8  -7   1   15.36    0.78
  15  -8   1   16.48    0.78
  15  -8   1   14.13    0.73
  -7  15   1   14.70    0.76
  15  -8   1   15.14    0.82
 -15   9  -1   38.14    1.37
 -15   9  -1   39.77    1.29
   9   6  -1   40.60    1.35
  15  -9   1   38.89    1.30
  -9  -6   1   36.25    1.32
  15  -9   1   38.94    1.30
  15  -9   1   37.90    1.40
  -6  15   1   40.05    1.35
  -6  15   1   39.12    1.31
  10   5  -1   10.64    0.65
 -15  10  -1   11.04    0.61
 -15  10  -1    9.89    0.64
  -5  15   1   10.93    0.65
  15 -10   1   11.18    0.69
  15 -10   1    9.74    0.62
 -10  -5   1   10.63    0.66
  15 -10   1   11.72    0.65
  -5  15   1   10.83    0.64
  11   4  -1   17.04    0.82
 -15  11  -1   16.59    0.76
 -15  11  -1   16.14    0.84
  15 -11   1   16.54    0.79
  -4  15   1   16.27    0.81
  -4  15   1   15.97    0.80
  15 -11   1   16.55    0.85
  15 -11   1   16.69    0.81
 -11  -4   1   16.29    0.83
  12   3  -1   17.00    0.85
 -15  12  -1   15.73    0.84
 -15  12  -1   16.73    0.78
  15 -12   1   17.21    0.87
  -3  15   1   17.35    0.84
  15 -12   1   17.38    0.84
  -3  15   1   17.64    0.87
  15 -12   1   17.09    0.80
 -12  -3   1   16.42    0.85
  13   2  -1   14.53    0.78
 -15  13  -1   13.70    0.73
 -15  13  -1   15.64    0.83
  -2  15   1   14.58    0.81
  -2  15   1   14.11    0.77
  15 -13   1   14.07    0.79
  15 -13   1   13.95    0.73
  15 -13   1   14.56    0.78
 -13  -2   1   15.21    0.81
  14   1  -1    5.95    0.51
 -15  14  -1    6.06    0.50
 -15  14  -1    6.19    0.55
  -1  15   1    6.23    0.51
  -1  15   1    6.46    0.55
  15 -14   1    6.59    0.53
 -14  -1   1    5.40    0.51
  15   0  -1   19.12    0.92
 -15  15  -1   18.00    0.94
 -15  15  -1   17.38    0.87
  15   0  -1   18.14    0.84
   0  15   1   18.20    0.94
 -15   0   1   18.79    0.95
   0  15   1   19.04    0.90
  15 -15   1   17.68    0.88
 -15  16  -1    0.81    0.28
 -15  16  -1    0.67    0.26
  16  -1  -1    0.47    0.24
  15 -16   1    0.94    0.28
 -16   1   1    0.96    0.29
   1  15   1    0.79    0.29
 -15  17  -1   20.56    0.99
  17  -2  -1   20.84    0.95
 -15  17  -1   18.29    0.98
  17  -2  -1   18.45    0.91
   2  15   1   21.42    1.07
 -17   2   1   18.86    0.99
 -17   2   1   19.69    1.01
  15 -17   1   19.06    0.94
  18  -3  -1   16.12    0.87
  18  -3  -1   16.26    0.86
 -15  18  -1   17.31    0.93
  -1  17  -1    0.54    0.26
  17 -16  -1    0.70    0.28
  17 -16  -1    0.85    0.29
 -17  16   1    0.88    0.30
  16   1   1    0.81    0.31
  16   1   1    0.73    0.28
  16 -16  -1   25.47    1.06
   0  16  -1   24.89    1.15
 -16   0  -1   23.89    1.13
 -16  16   1   24.34    1.12
  16   0   1   25.67    1.17
  16   0   1   23.75    1.07
  15 -16  -1    0.53    0.24
   1  15  -1    0.33    0.23
  15 -16  -1    0.39    0.24
 -16   1  -1    0.34    0.24
  16  -1   1    0.91    0.29
 -15  16   1    0.88    0.28
  16  -1   1    1.19    0.32
  14 -16  -1    1.37    0.31
   2  14  -1    1.56    0.34
   2  14  -1    1.44    0.34
 -16   2  -1    1.56    0.35
  16  -2   1    1.67    0.36
 -14  16   1    1.72    0.34
  16  -2   1    1.56    0.35
  16  -2   1    1.63    0.36
 -16   3  -1    8.55    0.62
   3  13  -1    7.29    0.58
   3  13  -1    7.61    0.58
 -13  16   1    7.24    0.56
  16  -3   1    7.72    0.59
  16  -3   1    7.79    0.63
  16  -3   1    8.19    0.60
   4  12  -1   17.26    0.87
 -16   4  -1   17.43    0.88
   4  12  -1   17.37    0.87
  16  -4   1   16.69    0.80
  16  -4   1   16.46    0.91
  16  -4   1   16.58    0.85
 -12  16   1   15.71    0.83
  16  -4   1   17.57    0.86
 -16   5  -1    5.82    0.51
   5  11  -1    6.46    0.52
   5  11  -1    5.72    0.51
 -16   5  -1    5.78    0.50
  16  -5   1    7.05    0.53
  16  -5   1    6.65    0.52
 -11  16   1    6.33    0.53
  16  -5   1    6.73    0.58
  16  -5   1    6.71    0.54
  -5 -11   1    6.27    0.51
 -16   6  -1   14.91    0.78
   6  10  -1   14.48    0.76
   6  10  -1   13.48    0.76
 -16   6  -1   14.42    0.79
  16  -6   1   13.92    0.74
  16  -6   1   14.17    0.76
 -10  16   1   14.74    0.78
  16  -6   1   13.99    0.82
  -6 -10   1   13.64    0.75
 -16   7  -1   15.26    0.81
 -16   7  -1   14.87    0.77
   7   9  -1   14.16    0.78
   7   9  -1   15.06    0.75
  16  -7   1   14.90    0.76
  -7  -9   1   14.34    0.77
  16  -7   1   14.71    0.84
  -9  16   1   14.52    0.78
  16  -7   1   13.73    0.76
 -16   8  -1    3.83    0.47
 -16   8  -1    2.92    0.39
   8   8  -1    2.91    0.41
  -8  16   1    3.17    0.43
  16  -8   1    3.01    0.42
  -8  -8   1    3.35    0.44
  16  -8   1    2.90    0.41
  16  -8   1    3.07    0.45
 -16   9  -1   13.58    0.78
   9   7  -1   14.48    0.78
 -16   9  -1   13.78    0.72
  16  -9   1   13.31    0.80
  -9  -7   1   13.42    0.76
  16  -9   1   13.49    0.74
  16  -9   1   14.26    0.76
  -7  16   1   12.92    0.75
 -16  10  -1   13.70    0.79
  10   6  -1   14.76    0.79
  -6  16   1   14.41    0.78
  16 -10   1   14.57    0.84
  -6  16   1   14.36    0.77
 -10  -6   1   14.37    0.79
  16 -10   1   14.46    0.77
  16 -10   1   14.24    0.76
 -16  11  -1    6.29    0.54
  11   5  -1    5.75    0.51
  16 -11   1    5.74    0.54
 -11  -5   1    6.25    0.53
  -5  16   1    6.59    0.53
  16 -11   1    6.17    0.52
  16 -11   1    5.79    0.51
  -5  16   1    5.71    0.50
  12   4  -1   16.31    0.86
 -16  12  -1   16.62    0.89
 -16  12  -1   15.31    0.77
  16 -12   1   17.68    0.84
  -4  16   1   17.26    0.86
  -4  16   1   18.11    0.89
  16 -12   1   17.69    0.91
 -12  -4   1   17.58    0.90
  16 -12   1   16.17    0.84
 -16  13  -1    8.58    0.58
 -16  13  -1    8.19    0.62
  13   3  -1    7.30    0.57
  -3  16   1    7.79    0.58
  16 -13   1    7.78    0.58
  16 -13   1    6.59    0.57
  16 -13   1    6.95    0.54
 -13  -3   1    6.87    0.58
  -3  16   1    7.64    0.60
  14   2  -1    1.29    0.32
 -16  14  -1    1.40    0.33
 -16  14  -1    1.24    0.30
  -2  16   1    1.46    0.33
  16 -14   1    0.99    0.30
  -2  16   1    1.88    0.38
 -14  -2   1    1.80    0.36
 -16  15  -1    0.50    0.24
  15   1  -1    0.51    0.25
 -16  15  -1    0.61    0.25
  -1  16   1    1.20    0.33
  -1  16   1    1.23    0.32
  16 -15   1    1.09    0.30
 -15  -1   1    0.71    0.27
 -16  16  -1   25.91    1.10
 -16  16  -1   25.61    1.17
  16   0  -1   24.02    1.09
 -16   0   1   25.24    1.16
   0  16   1   26.14    1.18
  16 -16   1   24.08    1.09
 -16  17  -1    0.57    0.26
   1  16   1    0.75    0.29
  16 -17   1    0.34    0.25
   1  16  -1    0.65    0.28
 -16  17   1    0.40    0.25
  17  -1   1    0.63    0.27
  17  -1   1    0.90    0.32
   2  15  -1   20.38    0.99
   2  15  -1   19.50    1.01
 -17   2  -1   19.73    1.02
 -15  17   1   18.60    0.94
  17  -2   1   20.17    0.99
  17  -2   1   20.11    1.00
 -17   3  -1    9.08    0.68
   3  14  -1    8.78    0.66
   3  14  -1    8.94    0.67
  17  -3   1    9.06    0.66
  17  -3   1    9.48    0.67
 -14  17   1    9.12    0.65
 -17   4  -1    2.26    0.40
   4  13  -1    2.39    0.40
   4  13  -1    1.89    0.38
  17  -4   1    2.52    0.42
  17  -4   1    1.95    0.37
 -13  17   1    2.17    0.39
   5  12  -1   16.62    0.87
 -17   5  -1   16.61    0.87
   5  12  -1   17.94    0.91
 -17   5  -1   17.17    0.89
  17  -5   1   15.79    0.81
  17  -5   1   15.27    0.91
  17  -5   1   16.24    0.86
  17  -5   1   16.95    0.87
 -12  17   1   16.74    0.89
   6  11  -1   24.86    1.07
 -17   6  -1   25.52    1.09
 -17   6  -1   25.75    1.10
   6  11  -1   25.55    1.11
  17  -6   1   25.90    1.06
  -6 -11   1   25.63    1.09
 -11  17   1   25.61    1.10
  17  -6   1   22.80    1.05
  17  -6   1   24.00    1.15
   7  10  -1    1.42    0.31
 -17   7  -1    1.34    0.32
   7  10  -1    1.35    0.32
 -17   7  -1    1.04    0.30
 -10  17   1    1.22    0.32
  -7 -10   1    0.70    0.25
  17  -7   1    1.43    0.34
  17  -7   1    1.05    0.29
  17  -7   1    1.46    0.33
 -17   8  -1    3.30    0.45
 -17   8  -1    2.77    0.41
   8   9  -1    3.02    0.45
  -8  -9   1    3.85    0.48
  17  -8   1    3.62    0.47
  17  -8   1    3.39    0.48
  -9  17   1    4.58    0.53
  17  -8   1    3.15    0.44
 -17   9  -1    2.76    0.40
   9   8  -1    3.50    0.46
 -17   9  -1    3.10    0.45
  -9  -8   1    3.63    0.47
  17  -9   1    3.95    0.48
  17  -9   1    3.42    0.46
  -8  17   1    2.83    0.43
  10   7  -1    0.71    0.27
 -17  10  -1    1.27    0.33
 -10  -7   1    1.64    0.34
  17 -10   1    1.21    0.31
  17 -10   1    1.16    0.32
  -7  17   1    1.10    0.30
  17 -10   1    1.28    0.31
  11   6  -1   26.02    1.11
 -17  11  -1   24.96    1.14
  17 -11   1   25.68    1.08
  -6  17   1   23.71    1.08
  -6  17   1   25.89    1.09
 -11  -6   1   23.78    1.09
  17 -11   1   25.42    1.09
  17 -11   1   26.03    1.18
  12   5  -1   17.22    0.90
 -17  12  -1   16.85    0.91
 -12  -5   1   15.91    0.88
  17 -12   1   15.47    0.84
  -5  17   1   16.05    0.87
  17 -12   1   15.74    0.91
  -5  17   1   16.08    0.86
  17 -12   1   16.49    0.85
 -17  13  -1    1.68    0.33
 -17  13  -1    1.72    0.36
  13   4  -1    2.11    0.39
  -4  17   1    1.90    0.37
  17 -13   1    2.36    0.40
  17 -13   1    2.34    0.42
  17 -13   1    2.45    0.40
  -4  17   1    1.57    0.36
 -13  -4   1    2.05    0.38
 -17  14  -1    8.03    0.65
  14   3  -1    8.44    0.65
 -17  14  -1    8.22    0.61
  17 -14   1   10.30    0.67
  -3  17   1   10.03    0.69
 -14  -3   1    9.25    0.69
  -3  17   1    8.72    0.66
  17 -14   1    9.63    0.67
 -17  15  -1   19.33    0.93
  15   2  -1   18.65    0.96
 -17  15  -1   18.89    1.02
  17 -15   1   17.72    0.94
  -2  17   1   19.83    1.02
 -15  -2   1   18.04    0.98
  -2  17   1   20.78    0.99
 -17  16  -1    0.56    0.26
  16   1  -1    0.66    0.28
  -1  17   1    0.52    0.27
  17 -16   1    0.76    0.29
  -1  17   1    0.37    0.25
   3  15  -1   17.14    0.95
   3  15  -1   16.52    0.91
 -15  18   1   16.22    0.90
  18  -3   1   17.10    0.92
  18  -3   1   15.78    0.91
   4  14  -1   11.88    0.78
   4  14  -1   11.38    0.76
  18  -4   1   10.94    0.75
  18  -4   1   11.78    0.76
 -14  18   1   10.67    0.73
   5  13  -1   10.22    0.71
 -18   5  -1   10.35    0.71
   5  13  -1   10.49    0.71
  18  -5   1    9.68    0.65
  18  -5   1    9.24    0.68
 -13  18   1    9.67    0.69
   6  12  -1   22.24    1.06
 -18   6  -1   22.44    1.07
   6  12  -1   23.01    1.06
 -18   6  -1   21.95    1.05
  18  -6   1   21.45    1.03
  18  -6   1   23.06    1.01
 -12  18   1   23.84    1.09
 -18   7  -1    5.03    0.52
   7  11  -1    4.97    0.57
 -18   7  -1    5.40    0.51
   7  11  -1    5.40    0.51
  18  -7   1    4.95    0.55
  18  -7   1    4.39    0.54
 -11  18   1    4.59    0.55
  -7 -11   1    5.44    0.52
   8  10  -1    5.16    0.52
 -18   8  -1    5.05    0.50
 -18   8  -1    4.33    0.54
  18  -8   1    5.72    0.52
  18  -8   1    5.89    0.55
 -10  18   1    5.51    0.53
  -8 -10   1    5.05    0.50
 -18   9  -1   14.57    0.81
   9   9  -1   14.02    0.83
 -18   9  -1   15.87    0.89
  -9  18   1   14.75    0.85
  18  -9   1   15.05    0.84
  18  -9   1   15.20    0.84
  -9  -9   1   14.59    0.84
  10   8  -1    5.71    0.54
 -18  10  -1    5.22    0.53
  -8  18   1    5.45    0.53
 -10  -8   1    5.67    0.54
  18 -10   1    5.14    0.57
  18 -10   1    6.13    0.55
 -18  11  -1    5.43    0.54
  11   7  -1    4.89    0.57
  18 -11   1    5.06    0.56
 -11  -7   1    4.91    0.57
  18 -11   1    4.72    0.55
  -7  18   1    4.94    0.56
  12   6  -1   22.85    1.10
  18 -12   1   24.19    1.07
  18 -12   1   24.14    1.09
  -6  18   1   23.76    1.10
 -12  -6   1   23.46    1.11
  -6  18   1   23.27    1.08
  13   5  -1    9.48    0.69
 -18  13  -1    9.58    0.72
  18 -13   1   10.21    0.71
  18 -13   1   10.66    0.71
  -5  18   1   10.73    0.73
 -13  -5   1    9.49    0.71
  -5  18   1   10.04    0.70
  14   4  -1   10.99    0.75
  18 -14   1   10.82    0.72
  -4  18   1   11.93    0.78
  18 -14   1   10.08    0.71
  15   3  -1   16.65    0.93
  -3  18   1   15.79    0.89
  18 -15   1   17.08    0.93
  -3  18   1   16.36    0.94
   6  13  -1    3.70    0.52
 -13  19   1    3.85    0.53
  19  -6   1    4.12    0.52
   7  12  -1    0.59    0.28
   7  12  -1    0.52    0.26
  19  -7   1    0.51    0.26
  19  -7   1    0.82    0.30
 -12  19   1    1.00    0.32
 -19   8  -1    4.90    0.51
   8  11  -1    4.77    0.57
  19  -8   1    5.57    0.54
 -11  19   1    3.83    0.53
  -8 -11   1    4.18    0.53
  19  -8   1    5.08    0.59
   9  10  -1    5.72    0.57
  19  -9   1    5.18    0.59
 -10  19   1    4.84    0.58
  19  -9   1    5.17    0.59
  10   9  -1    5.75    0.56
  19 -10   1    5.20    0.58
  19 -10   1    5.38    0.60
  -9  19   1    5.12    0.60
  11   8  -1    4.99    0.59
  19 -11   1    5.57    0.54
  19 -11   1    4.71    0.56
  -8  19   1    5.02    0.59
  19 -12   1    0.75    0.30
  19 -12   1    0.74    0.31
  -7  19   1    0.75    0.29
  19 -13   1    3.13    0.48
  -6  19   1    4.05    0.53
  -6  19   1    3.41    0.50
   0   0   2  931.06   26.78
   0   0   2 1000.00   19.83
   1  -1  -2   37.00    1.03
   1  -1  -2   36.96    0.87
   0  -1   2   33.53    0.83
   1   0   2   35.16    0.86
   0  -1   2   32.92    1.16
   0  -1   2   32.78    0.85
  -1   1   2   33.41    0.85
   1   0   2   33.14    1.16
  -1   1   2   33.70    1.10
   0  -1   2   33.88    0.81
   0  -1  -2   34.00    0.99
   1   0  -2   34.52    0.79
  -1   0   2   30.47    1.05
   1  -1   2   30.56    0.77
   0   1   2   30.95    1.04
   1  -1   2   31.17    0.77
  -1   0   2   30.32    0.77
   0   1   2   29.18    0.80
   1  -1   2   30.14    1.09
  -1  -1  -2   11.80    0.50
  -1   2  -2   11.13    0.39
   2  -1  -2   11.34    0.39
  -2   1   2   10.06    0.37
  -2   1   2    9.87    0.45
  -2   1   2   10.05    0.37
   1   1   2   10.23    0.39
   1  -2   2   10.65    0.38
   1  -2   2   10.00    0.37
   1  -2   2   10.39    0.54
   1   1   2   10.13    0.50
  -1   3  -2   29.73    0.81
   3  -2  -2   29.51    0.79
  -1   3  -2   28.59    0.76
  -2  -1  -2   29.30    0.99
   3  -2  -2   29.76    0.85
   3  -2  -2   30.69    0.93
  -1   3  -2   29.51    0.77
  -2  -1  -2   30.06    0.74
   1  -3   2   28.02    0.76
   2   1   2   29.08    1.07
   1  -3   2   28.86    1.10
   2   1   2   28.82    0.73
   1  -3   2   28.24    0.76
  -3   2   2   29.51    0.77
  -3   2   2   29.71    0.79
   2   1   2   28.81    0.80
   1  -3   2   28.25    0.77
   2   1   2   28.25    0.77
   0   2  -2   60.70    1.34
  -2   0  -2   61.73    1.34
   2  -2  -2   61.65    1.64
  -2   0  -2   60.63    1.74
   2  -2  -2   61.03    1.41
   0  -2   2   58.58    1.33
   0  -2   2   60.21    1.90
   2   0   2   59.86    1.90
   2   0   2   61.26    1.40
   2   0   2   61.03    1.33
   2   0   2   59.00    1.36
  -2   2   2   61.59    1.75
  -2   2   2   60.36    1.39
   0  -2   2   60.04    1.35
   0  -2   2   58.66    1.39
   1  -2  -2   11.12    0.40
   1  -2  -2   11.16    0.46
   1   1  -2   11.88    0.53
   1   1  -2   11.28    0.34
  -2   1  -2   11.54    0.39
   2  -1   2   10.20    0.37
  -1  -1   2    9.70    0.38
   2  -1   2    9.80    0.53
  -1  -1   2   10.19    0.33
  -1   2   2   10.06    0.44
  -1  -1   2   10.37    0.37
  -1  -1   2   10.45    0.51
   2  -1   2   10.11    0.37
  -1   2   2   10.15    0.38
   2   0  -2   59.48    1.33
   2   0  -2   58.65    1.79
   2   0  -2   60.72    1.56
  -2   2  -2   58.98    1.35
  -2   2  -2   56.38    1.32
  -2   0   2   58.25    1.35
   2  -2   2   58.69    1.88
   2  -2   2   60.11    1.32
   0   2   2   61.35    1.79
   0   2   2   60.13    1.38
  -2   0   2   58.81    1.31
   2  -2   2   57.33    1.32
   2  -2   2   58.73    1.34
   2  -2   2   59.19    1.33
   3  -1  -2   31.17    0.99
   3  -1  -2   31.07    0.83
  -1  -2  -2   30.57    1.01
   3  -1  -2   30.97    0.78
  -2   3  -2   29.59    0.78
  -2   3  -2   29.51    0.80
   2  -3   2   28.64    1.11
   1   2   2   30.07    0.82
  -3   1   2   28.98    0.79
  -3   1   2   29.64    0.77
   2  -3   2   29.85    0.72
   2  -3   2   27.13    0.76
   2  -3   2   29.17    0.78
   1   2   2   29.52    1.05
   2  -3   2   28.44    0.78
  -2  -2  -2    1.33    0.15
   4  -2  -2    1.36    0.16
  -2  -2  -2    1.32    0.22
   4  -2  -2    1.56    0.13
  -2   4  -2    1.75    0.18
  -2   4  -2    1.62    0.18
  -2   4  -2    1.42    0.18
   4  -2  -2    1.42    0.18
   2   2   2    1.67    0.17
   2  -4   2    1.63    0.19
   2  -4   2    1.60    0.19
  -4   2   2    1.59    0.18
   2   2   2    1.56    0.25
   2  -4   2    1.80    0.19
  -4   2   2    1.52    0.18
   2   2   2    1.53    0.16
   2  -4   2    1.47    0.25
   2   2   2    1.62    0.18
   2   2   2    1.40    0.18
   2   2   2    1.55    0.18
   5  -3  -2   87.52    1.95
  -2   5  -2   84.24    1.87
  -3  -2  -2   88.53    1.83
   5  -3  -2   77.53    2.36
  -2   5  -2   85.26    1.86
  -3  -2  -2   86.09    2.40
  -2   5  -2   89.18    1.95
   3   2   2   84.55    1.85
   3   2   2   83.73    1.83
   3   2   2   83.99    1.95
   3   2   2   82.32    1.88
   2  -5   2   83.30    1.87
   2  -5   2   82.44    1.87
   3   2   2   82.80    1.70
  -5   3   2   83.99    1.91
   3   2   2   85.66    2.62
   2  -5   2   83.42    1.86
   2  -5   2   84.54    2.65
  -1   4  -2   53.52    1.28
  -3  -1  -2   49.96    1.56
   4  -3  -2   52.23    1.27
  -3  -1  -2   50.81    1.19
   4  -3  -2   51.58    1.47
   4  -3  -2   53.36    1.40
  -1   4  -2   49.71    1.20
  -1   4  -2   50.43    1.21
   3   1   2   52.23    1.21
   3   1   2   51.50    1.19
   1  -4   2   51.72    1.74
   3   1   2   51.28    1.72
  -4   3   2   51.82    1.26
   3   1   2   52.11    1.28
   3   1   2   50.57    1.23
   1  -4   2   52.15    1.23
   1  -4   2   51.64    1.23
  -4   3   2   49.98    1.22
   3   1   2   50.32    1.19
   1  -4   2   50.39    1.21
   3   1   2   51.74    1.02
  -3   0  -2  135.37    2.85
  -3   0  -2  138.79    3.69
   0   3  -2  135.03    2.84
   0   3  -2  133.91    2.85
   3  -3  -2  142.52    3.55
   0   3  -2  136.56    4.03
   3  -3  -2  135.87    2.98
   3  -3  -2  141.72    3.81
  -3   3   2  144.58    2.90
   0  -3   2  142.39    2.88
   3   0   2  142.96    2.86
   3   0   2  143.54    2.99
   3   0   2  136.96    2.81
   0  -3   2  144.88    4.06
   0  -3   2  140.91    2.86
   0  -3   2  143.08    2.97
   3   0   2  142.07    4.05
   0  -3   2  140.10    2.86
  -3   3   2  142.17    2.98
   3   0   2  142.05    2.86
   3   0   2  138.95    2.90
   1   2  -2   29.16    1.06
   1   2  -2   28.73    0.74
   2  -3  -2   30.35    0.93
  -3   1  -2   29.82    0.76
   3  -1   2   29.16    0.79
   3  -1   2   27.36    0.76
   3  -1   2   28.24    0.76
  -1  -2   2   27.92    0.78
   3  -1   2   28.80    1.09
  -1  -2   2   28.72    0.75
  -2   3   2   29.48    0.90
   3  -1   2   28.43    0.75
  -1  -2   2   28.89    0.76
  -3   2  -2   31.11    0.80
  -3   2  -2   31.40    0.80
   2   1  -2   31.26    0.73
   1  -3  -2   31.00    0.98
   2   1  -2   31.05    1.07
   1  -3  -2   30.26    0.83
   3  -2   2   28.83    1.12
   3  -2   2   29.13    0.78
   3  -2   2   28.86    0.78
  -2  -1   2   29.62    0.77
  -2  -1   2   28.77    0.80
  -1   3   2   30.17    0.82
   3  -2   2   29.57    0.78
  -1   3   2   29.75    0.97
  -2  -1   2   30.11    0.73
   3  -2   2   28.61    0.78
  -3   3  -2  136.95    2.96
   3   0  -2  144.17    2.99
   3   0  -2  141.45    4.03
   0  -3  -2  141.93    3.74
   3   0  -2  147.06    3.55
  -3   3  -2  143.63    3.03
   3  -3   2  143.39    4.16
   0   3   2  148.51    3.08
   0   3   2  145.65    2.88
  -3   0   2  145.43    2.91
   3  -3   2  141.31    2.94
  -3   0   2  146.21    3.03
   3  -3   2  147.13    2.98
   0   3   2  143.83    2.94
   0   3   2  147.57    4.03
   3  -3   2  143.82    2.97
   3  -3   2  142.07    2.95
   4  -1  -2   53.02    1.61
   4  -1  -2   54.54    1.29
  -1  -3  -2   52.15    1.57
  -3   4  -2   52.41    1.27
  -3   4  -2   49.47    1.22
   4  -1  -2   52.02    1.24
  -3   4  -2   50.54    1.17
   3  -4   2   51.24    1.23
   1   3   2   51.80    1.21
   1   3   2   51.79    1.23
   3  -4   2   51.52    1.18
   3  -4   2   51.14    1.23
   3  -4   2   52.21    1.16
   1   3   2   50.71    1.27
   1   3   2   51.75    1.03
   3  -4   2   50.13    1.23
   1   3   2   52.39    1.67
  -4   1   2   50.88    1.17
  -4   1   2   52.24    1.26
   3  -4   2   52.55    1.76
  -2  -3  -2   84.03    2.35
  -3   5  -2   81.00    1.83
  -3   5  -2   85.03    1.90
   5  -2  -2   82.17    1.73
  -2  -3  -2   86.19    1.75
   5  -2  -2   87.24    2.40
   5  -2  -2   84.38    1.88
  -3   5  -2   82.94    1.82
   2   3   2   80.05    1.84
   2   3   2   83.33    1.79
   3  -5   2   82.64    2.60
   3  -5   2   80.29    1.76
   2   3   2   81.63    1.92
   3  -5   2   81.57    1.73
   3  -5   2   81.14    1.83
   3  -5   2   78.82    1.83
  -5   2   2   83.03    1.88
   2   3   2   80.04    1.66
   2   3   2   79.77    1.79
   2   3   2   83.04    2.54
   3  -5   2   80.56    1.83
  -5   2   2   81.67    1.75
  -3   6  -2  120.58    2.68
  -3   6  -2  117.89    2.61
   6  -3  -2  115.50    2.45
   6  -3  -2  118.75    2.68
  -3  -3  -2  118.56    2.52
  -3   6  -2  118.15    2.57
  -3  -3  -2  114.97    3.30
  -6   3   2  123.60    2.67
   3   3   2  122.06    2.62
  -6   3   2  126.51    2.51
   3   3   2  123.31    2.45
   3  -6   2  121.26    2.58
   3   3   2  124.91    2.51
   3   3   2  121.60    2.57
   3  -6   2  124.41    2.60
   3   3   2  120.92    2.54
   3  -6   2  122.34    2.61
   3   3   2  123.41    3.64
   3  -6   2  125.64    3.68
   3   3   2  122.23    2.71
  -4  -3  -2   15.63    0.75
  -3   7  -2   15.76    0.58
   7  -4  -2   16.06    0.57
  -3   7  -2   16.62    0.55
  -4  -3  -2   16.52    0.55
  -3   7  -2   16.27    0.60
  -3   7  -2   15.68    0.83
   7  -4  -2   16.62    0.63
   7  -4  -2   16.25    0.55
  -3   7  -2   17.06    0.63
   4   3   2   16.56    0.84
  -7   4   2   16.61    0.57
   4   3   2   16.66    0.59
  -7   4   2   16.52    0.51
   3  -7   2   15.69    0.83
   3  -7   2   16.47    0.60
   4   3   2   16.06    0.62
   4   3   2   16.20    0.61
   3  -7   2   15.76    0.59
  -7   4   2   16.82    0.62
   3  -7   2   15.95    0.59
   4   3   2   16.34    0.57
   4   3   2   16.33    0.60
   4   3   2   15.82    0.48
  -2   6  -2   50.78    1.77
  -4  -2  -2   51.09    1.22
  -2   6  -2   50.23    1.17
   6  -4  -2   51.51    1.32
   6  -4  -2   51.74    1.21
   6  -4  -2   51.90    1.17
  -2   6  -2   51.95    1.31
  -2   6  -2   52.34    1.27
  -4  -2  -2   50.42    1.62
  -2   6  -2   50.50    1.24
   4   2   2   49.65    1.21
   4   2   2   49.46    1.22
  -6   4   2   49.83    1.20
   4   2   2   50.16    1.77
  -6   4   2   50.23    1.28
   2  -6   2   49.10    1.25
   4   2   2   50.85    1.25
   4   2   2   49.38    1.27
   2  -6   2   48.99    1.25
   4   2   2   49.35    1.31
   2  -6   2   49.45    1.25
   4   2   2   49.74    1.11
   5  -4  -2   14.57    0.55
  -4  -1  -2   13.84    0.66
  -4  -1  -2   14.70    0.50
  -1   5  -2   14.06    0.72
  -1   5  -2   14.59    0.51
  -1   5  -2   14.34    0.51
  -1   5  -2   14.47    0.54
  -5   4   2   15.26    0.52
   4   1   2   14.58    0.51
   4   1   2   14.35    0.52
   4   1   2   15.30    0.75
   1  -5   2   14.66    0.53
   4   1   2   14.76    0.55
  -5   4   2   14.87    0.54
   1  -5   2   14.24    0.52
   4   1   2   14.31    0.39
   4   1   2   14.92    0.52
   1  -5   2   14.47    0.51
  -4   0  -2  171.01    3.45
   4  -4  -2  170.73    3.60
   0   4  -2  167.49    3.42
   0   4  -2  170.23    3.45
   0   4  -2  169.25    4.85
   4  -4  -2  174.05    4.27
  -4   0  -2  172.65    4.43
   0  -4   2  168.96    3.56
   0  -4   2  168.10    3.43
   4   0   2  170.10    4.88
   4   0   2  169.62    3.44
   0  -4   2  166.86    3.44
   0  -4   2  171.97    3.47
   4   0   2  172.98    3.60
   4   0   2  167.18    3.44
   4   0   2  170.31    3.33
  -4   4   2  171.03    3.49
   4   0   2  166.96    3.48
  -4   4   2  167.06    3.58
   4   0   2  166.15    3.38
   3  -4  -2   53.09    1.49
  -4   1  -2   53.49    1.19
   3  -4  -2   52.53    1.29
  -4   1  -2   48.31    1.16
   1   3  -2   51.14    1.18
   1   3  -2   51.96    1.71
   1   3  -2   50.69    1.20
  -4   1  -2   50.28    1.21
   4  -1   2   50.66    1.23
   4  -1   2   49.86    1.02
  -1  -3   2   49.68    1.25
  -3   4   2   51.67    1.27
  -1  -3   2   51.88    1.21
   4  -1   2   51.24    1.26
  -1  -3   2   51.96    1.18
   4  -1   2   50.72    1.20
  -3   4   2   53.33    1.42
   4  -1   2   51.02    1.74
  -1  -3   2   52.07    1.23
   4  -1   2   49.97    1.22
   4  -1   2   51.75    1.22
  -4   2  -2    1.38    0.17
   2   2  -2    1.43    0.17
  -4   2  -2    1.35    0.16
   2  -4  -2    1.30    0.18
  -4   2  -2    1.17    0.15
   2   2  -2    1.33    0.23
   2  -4  -2    1.51    0.21
  -2  -2   2    1.75    0.18
  -2   4   2    1.57    0.15
  -2  -2   2    1.31    0.18
  -2  -2   2    1.78    0.19
   4  -2   2    1.37    0.18
   4  -2   2    1.63    0.17
   4  -2   2    1.75    0.25
   4  -2   2    1.86    0.18
   4  -2   2    1.57    0.18
  -2   4   2    1.78    0.19
   4  -2   2    1.44    0.18
  -4   3  -2   50.87    1.18
   1  -4  -2   52.04    1.55
   1  -4  -2   52.36    1.29
  -4   3  -2   52.61    1.24
   3   1  -2   51.23    1.18
  -4   3  -2   50.96    1.24
   3   1  -2   51.74    1.67
   3   1  -2   52.58    1.17
  -1   4   2   53.38    1.57
   4  -3   2   51.16    1.20
  -3  -1   2   51.82    1.21
   4  -3   2   52.15    1.23
   4  -3   2   51.22    1.75
   4  -3   2   51.67    1.23
  -3  -1   2   51.04    1.18
   4  -3   2   51.16    1.24
  -1   4   2   50.33    1.19
  -3  -1   2   51.24    1.26
  -1   4   2   51.59    1.03
   4  -3   2   51.23    1.23
  -1   4   2   51.85    1.28
  -1   4   2   53.05    1.20
  -4   4  -2  173.29    3.61
   4   0  -2  177.33    3.57
  -4   4  -2  166.66    3.53
  -4   4  -2  169.58    3.40
  -4   4  -2  173.66    3.53
   4   0  -2  174.70    4.83
   4   0  -2  172.83    3.42
   0  -4  -2  171.18    4.47
   4  -4   2  180.45    3.56
   0   4   2  172.84    3.43
   4  -4   2  171.72    3.36
   4  -4   2  172.86    3.52
   0   4   2  173.90    4.80
   4  -4   2  170.51    3.42
  -4   0   2  175.74    3.62
   4  -4   2  170.12    4.95
   0   4   2  173.31    3.52
   0   4   2  172.71    3.65
   0   4   2  171.79    3.37
   4  -4   2  170.59    3.50
   4  -4   2  167.86    3.53
  -4   0   2  173.40    3.48
  -1  -4  -2   13.93    0.65
   5  -1  -2   14.07    0.50
   5  -1  -2   14.26    0.62
  -4   5  -2   13.87    0.51
  -4   5  -2   13.83    0.52
  -4   5  -2   14.07    0.48
   5  -1  -2   13.59    0.47
   1   4   2   14.14    0.38
  -5   1   2   14.38    0.48
   4  -5   2   13.87    0.73
   4  -5   2   14.65    0.50
   4  -5   2   13.60    0.51
   1   4   2   13.90    0.50
   4  -5   2   13.18    0.50
  -5   1   2   13.81    0.52
   4  -5   2   14.61    0.52
   1   4   2   14.39    0.66
   1   4   2   13.82    0.50
   4  -5   2   14.60    0.45
   1   4   2   13.63    0.52
   6  -2  -2   51.14    1.18
   6  -2  -2   52.62    1.28
  -4   6  -2   50.42    1.19
   6  -2  -2   50.77    1.60
  -4   6  -2   49.50    1.25
  -4   6  -2   49.63    1.23
  -2  -4  -2   49.97    1.60
  -4   6  -2   51.07    1.30
  -2  -4  -2   52.87    1.16
   2   4   2   49.73    1.70
   2   4   2   48.88    1.30
   4  -6   2   50.53    1.14
   2   4   2   48.64    1.19
   4  -6   2   49.27    1.24
  -6   2   2   49.17    1.18
   4  -6   2   48.84    1.24
   2   4   2   48.84    1.25
   2   4   2   49.60    1.20
   4  -6   2   48.03    1.24
  -6   2   2   49.37    1.29
   2   4   2   47.75    1.09
   4  -6   2   47.19    1.75
   2   4   2   48.62    1.22
  -4   7  -2   15.40    0.57
  -4   7  -2   14.72    0.54
  -3  -4  -2   15.92    0.75
   7  -3  -2   15.17    0.54
   7  -3  -2   15.56    0.60
   7  -3  -2   14.91    0.53
  -4   7  -2   14.71    0.59
  -4   7  -2   15.48    0.57
  -3  -4  -2   15.40    0.51
   3   4   2   16.10    0.57
  -7   3   2   15.79    0.60
   4  -7   2   15.10    0.81
   3   4   2   15.81    0.61
   4  -7   2   15.67    0.58
   3   4   2   15.06    0.59
  -7   3   2   15.97    0.53
   3   4   2   15.75    0.57
   3   4   2   15.67    0.80
   4  -7   2   15.62    0.58
   3   4   2   15.83    0.48
   4  -7   2   15.56    0.57
   3   4   2   15.51    0.55
   8  -4  -2  162.96    3.30
  -4  -4  -2  162.59    3.38
   8  -4  -2  164.42    3.59
   8  -4  -2  164.10    3.33
  -4   8  -2  160.51    3.42
  -4   8  -2  164.62    3.58
  -4  -4  -2  160.07    4.41
  -4   8  -2  161.73    3.34
  -4   8  -2  158.87    3.48
  -4   8  -2  159.98    4.84
  -8   4   2  164.15    3.36
   4   4   2  163.94    3.33
   4   4   2  167.23    3.61
   4   4   2  163.63    3.52
   4  -8   2  162.42    3.49
  -8   4   2  167.49    3.59
   4  -8   2  162.95    4.87
   4   4   2  165.68    3.34
   4   4   2  165.49    3.45
   4   4   2  162.65    4.87
   4  -8   2  165.66    3.44
   4   4   2  164.96    3.39
   4  -8   2  169.32    3.47
  -4   9  -2   34.30    0.99
  -4   9  -2   32.32    1.03
  -5  -4  -2   31.81    1.28
  -5  -4  -2   34.30    0.97
   9  -5  -2   34.26    0.97
  -4   9  -2   32.25    0.95
  -4   9  -2   34.02    1.03
   9  -5  -2   33.05    1.06
  -4   9  -2   32.36    1.39
   9  -5  -2   34.48    0.99
   5   4   2   33.40    1.04
   5   4   2   33.68    0.90
   5   4   2   34.57    1.03
   5   4   2   34.49    0.99
   5   4   2   34.14    1.45
   5   4   2   34.28    1.05
  -9   5   2   33.15    1.06
   4  -9   2   34.14    1.00
   4  -9   2   34.29    1.01
   5   4   2   34.34    0.97
  -3   8  -2   54.16    1.93
  -3   8  -2   54.91    1.37
  -5  -3  -2   56.03    1.35
  -5  -3  -2   53.89    1.77
  -3   8  -2   55.96    1.31
   8  -5  -2   55.67    1.35
  -3   8  -2   55.04    1.44
   8  -5  -2   55.29    1.46
  -3   8  -2   53.49    1.39
   8  -5  -2   56.17    1.32
   5   3   2   52.73    1.38
  -8   5   2   52.67    1.42
   5   3   2   52.42    1.44
   5   3   2   51.82    1.95
   3  -8   2   53.58    1.37
   5   3   2   53.30    1.41
   5   3   2   51.72    1.25
   3  -8   2   51.91    1.36
   5   3   2   52.28    1.32
   5   3   2   52.33    1.34
  -2   7  -2    5.68    0.36
  -5  -2  -2    5.89    0.43
  -2   7  -2    5.79    0.30
  -2   7  -2    6.12    0.48
  -2   7  -2    5.63    0.34
   7  -5  -2    6.00    0.37
  -2   7  -2    5.89    0.34
   7  -5  -2    6.41    0.33
  -5  -2  -2    6.06    0.33
   7  -5  -2    5.88    0.34
   5   2   2    5.59    0.49
   5   2   2    6.00    0.36
   5   2   2    5.58    0.35
  -7   5   2    5.97    0.34
  -7   5   2    5.77    0.35
   5   2   2    5.72    0.35
   5   2   2    5.71    0.34
   2  -7   2    5.83    0.35
   2  -7   2    5.42    0.34
   5   2   2    5.43    0.33
   5   2   2    5.43    0.26
  -1   6  -2   66.22    1.55
   6  -5  -2   66.88    1.51
   6  -5  -2   66.92    1.45
  -1   6  -2   67.23    2.21
   6  -5  -2   66.82    1.64
  -1   6  -2   67.21    1.56
  -1   6  -2   65.60    1.44
  -1   6  -2   66.14    1.62
  -5  -1  -2   67.84    2.02
  -5  -1  -2   67.43    1.55
   1  -6   2   64.07    1.55
   1  -6   2   65.52    1.57
   5   1   2   64.17    1.41
   5   1   2   64.71    1.58
   5   1   2   63.78    1.51
   5   1   2   65.85    1.58
  -6   5   2   66.48    1.58
   5   1   2   65.81    1.64
  -6   5   2   64.08    1.49
   5   1   2   65.19    2.22
   5   1   2   67.01    1.51
   0   5  -2   31.94    1.26
   5  -5  -2   32.87    1.03
  -5   0  -2   34.09    1.18
   0   5  -2   32.25    0.88
   5  -5  -2   33.55    0.96
   5  -5  -2   33.53    0.88
  -5   0  -2   32.86    0.90
   0   5  -2   32.87    0.89
   5   0   2   31.58    1.28
   0  -5   2   33.24    0.93
   5   0   2   32.18    0.90
   5   0   2   32.58    0.88
   5   0   2   32.61    0.86
   5   0   2   32.03    0.90
  -5   5   2   33.10    0.83
  -5   5   2   33.87    0.89
  -5   5   2   32.24    0.94
   0  -5   2   32.55    0.91
   0  -5   2   33.03    0.91
   5   0   2   33.37    0.95
   5   0   2   33.14    0.77
  -5   5   2   32.10    0.86
   1   4  -2   14.26    0.49
   4  -5  -2   15.15    0.56
   4  -5  -2   15.44    0.61
  -5   1  -2   13.72    0.48
   1   4  -2   14.49    0.72
  -5   1  -2   14.48    0.52
  -5   1  -2   14.59    0.48
   1   4  -2   13.81    0.50
  -4   5   2   14.88    0.55
  -1  -4   2   14.30    0.52
  -4   5   2   14.62    0.47
   5  -1   2   14.74    0.52
  -1  -4   2   14.61    0.53
   5  -1   2   14.09    0.52
  -4   5   2   15.68    0.49
   5  -1   2   14.91    0.76
   5  -1   2   14.01    0.39
   5  -1   2   15.17    0.55
   5  -1   2   14.32    0.51
  -1  -4   2   14.78    0.53
   5  -1   2   14.31    0.52
  -5   2  -2   84.77    1.81
   3  -5  -2   84.30    1.95
  -5   2  -2   87.63    1.88
   3  -5  -2   80.07    2.27
   2   3  -2   87.41    2.62
   2   3  -2   88.21    1.82
   3  -5  -2   90.18    2.35
   2   3  -2   86.49    1.85
  -2  -3   2   85.22    1.88
  -3   5   2   84.06    2.28
  -2  -3   2   84.23    1.93
   5  -2   2   81.31    2.65
   5  -2   2   83.41    1.83
   5  -2   2   80.24    1.86
   5  -2   2   83.97    1.93
   5  -2   2   84.90    1.70
  -3   5   2   83.75    1.81
   5  -2   2   81.88    1.88
  -2  -3   2   82.72    1.85
  -3   5   2   85.99    1.96
  -5   3  -2   83.63    1.84
   3   2  -2   82.66    1.79
   3   2  -2   84.20    2.55
   2  -5  -2   83.84    1.92
   3   2  -2   85.88    1.75
  -5   3  -2   84.07    1.86
   2  -5  -2   84.89    2.33
  -5   3  -2   82.38    1.78
  -3  -2   2   78.42    1.78
  -3  -2   2   81.32    1.83
   5  -3   2   80.95    1.66
  -3  -2   2   82.25    1.89
  -2   5   2   80.05    1.78
   5  -3   2   82.58    1.84
   5  -3   2   81.18    1.85
  -2   5   2   80.13    1.91
  -2   5   2   84.78    2.33
   5  -3   2   82.62    1.84
   5  -3   2   81.48    2.61
   5  -3   2   81.75    1.80
   5  -3   2   82.71    1.88
   1  -5  -2   13.90    0.64
  -5   4  -2   13.32    0.50
   1  -5  -2   14.33    0.54
  -5   4  -2   14.54    0.52
   4   1  -2   14.52    0.68
   4   1  -2   14.54    0.45
  -5   4  -2   13.23    0.48
  -5   4  -2   13.87    0.51
   4   1  -2   14.76    0.48
   5  -4   2   14.07    0.38
   5  -4   2   14.00    0.50
  -1   5   2   14.09    0.59
   5  -4   2   13.97    0.73
  -1   5   2   14.40    0.53
   5  -4   2   13.88    0.51
  -4  -1   2   14.32    0.53
  -1   5   2   14.04    0.50
   5  -4   2   14.31    0.51
  -1   5   2   13.96    0.38
   5  -4   2   13.98    0.49
   5  -4   2   14.17    0.51
  -4  -1   2   14.80    0.51
   5  -4   2   14.51    0.51
  -5   5  -2   29.22    0.81
   5   0  -2   29.61    0.80
  -5   5  -2   29.87    0.86
   0  -5  -2   29.15    1.08
  -5   5  -2   30.13    0.86
   5   0  -2   30.02    1.12
   5   0  -2   30.91    0.79
  -5   5  -2   30.34    0.88
   5   0  -2   30.01    0.81
   5  -5   2   31.22    0.83
  -5   0   2   30.23    0.88
   5  -5   2   30.30    1.21
   5  -5   2   30.28    0.85
   0   5   2   31.33    1.09
   5  -5   2   30.57    0.83
   5  -5   2   29.92    0.81
  -5   0   2   29.92    0.83
   0   5   2   29.58    0.88
   0   5   2   28.74    0.83
   0   5   2   30.22    0.71
   0   5   2   30.05    0.84
   5  -5   2   30.30    0.85
   5  -5   2   28.36    0.84
  -5   6  -2   64.10    1.54
  -5   6  -2   66.45    1.59
  -5   6  -2   65.95    1.49
   6  -1  -2   65.25    1.54
  -5   6  -2   64.97    1.55
  -1  -5  -2   65.78    1.98
   6  -1  -2   65.29    1.46
   6  -1  -2   68.01    2.06
  -1  -5  -2   67.12    1.40
  -6   1   2   64.67    1.59
   1   5   2   64.04    1.46
   5  -6   2   63.40    1.50
   1   5   2   62.33    1.59
   5  -6   2   64.93    1.48
   1   5   2   61.51    1.45
   5  -6   2   63.20    1.54
   5  -6   2   64.11    1.53
   5  -6   2   62.96    2.17
   1   5   2   64.55    1.39
   1   5   2   65.60    2.09
   1   5   2   63.36    1.51
  -6   1   2   65.26    1.51
   5  -6   2   63.53    1.48
   1   5   2   62.23    1.54
   5  -6   2   64.46    1.54
   7  -2  -2    6.13    0.32
  -2  -5  -2    6.67    0.30
  -5   7  -2    6.35    0.37
   7  -2  -2    6.25    0.42
  -5   7  -2    6.35    0.34
   7  -2  -2    5.45    0.32
  -5   7  -2    5.95    0.35
  -5   7  -2    5.17    0.33
   7  -2  -2    6.67    0.36
  -2  -5  -2    6.36    0.45
   2   5   2    5.96    0.27
  -7   2   2    5.84    0.36
   2   5   2    5.60    0.34
   5  -7   2    6.10    0.35
  -7   2   2    5.85    0.32
   5  -7   2    5.51    0.34
   5  -7   2    5.73    0.48
   5  -7   2    6.02    0.35
   2   5   2    6.15    0.47
   2   5   2    6.22    0.34
   2   5   2    6.28    0.37
   2   5   2    5.85    0.33
   2   5   2    5.60    0.34
   8  -3  -2   53.54    1.29
   8  -3  -2   52.80    1.28
  -5   8  -2   52.47    1.29
  -5   8  -2   52.92    1.39
  -3  -5  -2   53.68    1.25
   8  -3  -2   53.64    1.39
  -5   8  -2   52.35    1.32
  -5   8  -2   51.86    1.35
  -3  -5  -2   51.69    1.72
   3   5   2   50.24    1.31
   3   5   2   50.60    1.87
   5  -8   2   48.74    1.33
   3   5   2   51.30    1.40
   5  -8   2   51.83    1.33
   3   5   2   51.47    1.28
  -8   3   2   49.26    1.27
  -8   3   2   51.23    1.39
   5  -8   2   51.31    1.33
   3   5   2   50.51    1.31
   3   5   2   50.06    1.36
   3   5   2   51.38    1.21
   5  -8   2   50.64    1.87
  -5   9  -2   33.28    0.98
   9  -4  -2   33.40    0.96
   9  -4  -2   32.92    1.05
  -4  -5  -2   33.17    0.94
  -5   9  -2   32.49    0.96
  -5   9  -2   32.85    1.04
  -5   9  -2   33.51    1.40
   9  -4  -2   33.03    0.97
  -5   9  -2   32.92    1.01
  -4  -5  -2   31.34    1.27
   4   5   2   32.24    0.95
   5  -9   2   34.54    1.00
  -9   4   2   33.53    1.06
  -9   4   2   32.33    0.94
   4   5   2   33.73    1.44
   5  -9   2   35.66    1.01
   5  -9   2   33.98    1.02
   4   5   2   33.43    0.89
   4   5   2   33.75    1.04
   4   5   2   33.72    0.99
   4   5   2   34.17    1.05
   4   5   2   34.63    1.01
   5  -9   2   33.65    1.41
  -5  10  -2    0.04    0.12
  10  -5  -2    0.09    0.13
  -5  -5  -2    0.13    0.12
  -5  10  -2    0.06    0.12
  10  -5  -2    0.04    0.12
  10  -5  -2    0.26    0.13
  -5  10  -2    0.01    0.14
  -5  10  -2    0.01    0.12
  -5  -5  -2    0.25    0.17
  -5  10  -2   -0.03    0.12
   5   5   2    0.10    0.16
   5   5   2    0.08    0.12
 -10   5   2    0.05    0.14
   5   5   2    0.10    0.13
   5   5   2    0.04    0.10
   5   5   2   -0.05    0.12
   5 -10   2    0.08    0.12
   5 -10   2    0.09    0.10
   5   5   2    0.15    0.14
   5 -10   2    0.02    0.12
   5   5   2    0.12    0.12
  -5  11  -2   36.35    1.07
  11  -6  -2   34.81    1.06
  -5  11  -2   36.55    1.14
  11  -6  -2   35.36    1.18
  -5  11  -2   34.99    1.51
  -5  11  -2   36.46    1.07
  11  -6  -2   36.37    1.10
  -6  -5  -2   35.91    1.06
  -5  11  -2   34.77    1.12
  -6  -5  -2   34.33    1.40
   5 -11   2   35.55    1.08
   6   5   2   34.05    0.99
   6   5   2   34.98    1.07
   6   5   2   34.61    1.15
   5 -11   2   33.83    1.07
   5 -11   2   34.04    0.99
   6   5   2   34.30    1.14
   6   5   2   35.89    1.13
 -11   6   2   34.32    1.16
   6   5   2   36.26    1.62
   6   5   2   34.34    1.05
  10  -6  -2    9.84    0.54
  -4  10  -2    8.89    0.49
  -4  10  -2    9.10    0.49
  -4  10  -2    8.57    0.45
  -4  10  -2    8.79    0.46
  10  -6  -2    9.92    0.50
  -4  10  -2    9.18    0.66
  10  -6  -2    9.08    0.47
  -6  -4  -2    9.63    0.48
  -6  -4  -2    9.11    0.61
   6   4   2    9.39    0.42
   4 -10   2    9.77    0.49
   6   4   2    9.25    0.47
   6   4   2    8.56    0.69
   4 -10   2    9.66    0.49
   6   4   2    9.35    0.51
 -10   6   2    9.79    0.53
   6   4   2    9.79    0.52
   6   4   2    9.70    0.51
   6   4   2    9.52    0.48
   9  -6  -2  116.57    2.56
  -3   9  -2  117.35    2.53
   9  -6  -2  120.58    2.52
  -3   9  -2  116.43    2.60
   9  -6  -2  114.93    2.76
  -6  -3  -2  118.69    2.61
  -3   9  -2  117.29    2.71
  -3   9  -2  115.84    2.66
  -6  -3  -2  116.19    3.36
  -3   9  -2  114.75    3.68
   6   3   2  119.45    2.76
   6   3   2  116.53    2.68
   6   3   2  116.18    3.75
  -9   6   2  118.72    2.74
   6   3   2  120.77    2.67
   6   3   2  120.00    2.55
   6   3   2  116.11    2.51
   3  -9   2  120.75    2.64
   6   3   2  117.17    2.56
   3  -9   2  119.16    2.63
  -6  -2  -2   36.06    1.33
  -6  -2  -2   36.36    1.03
   8  -6  -2   37.25    0.98
  -2   8  -2   36.60    1.47
  -2   8  -2   36.43    1.08
  -2   8  -2   37.49    0.97
  -2   8  -2   35.23    1.05
   8  -6  -2   36.63    1.12
  -2   8  -2   36.24    1.03
   8  -6  -2   38.32    1.04
   2  -8   2   36.37    1.04
  -8   6   2   36.01    1.08
   6   2   2   36.47    1.52
   6   2   2   35.66    1.06
   6   2   2   35.11    1.00
   6   2   2   35.59    1.01
   2  -8   2   34.85    1.03
   6   2   2   36.35    0.93
   6   2   2   37.29    1.08
  -8   6   2   37.38    1.02
   6   2   2   36.62    1.11
  -1   7  -2   22.19    1.03
   7  -6  -2   22.51    0.66
  -6  -1  -2   22.39    0.72
  -1   7  -2   21.88    0.72
  -1   7  -2   21.59    0.74
  -6  -1  -2   21.61    0.93
  -1   7  -2   21.73    0.72
   7  -6  -2   21.53    0.70
   7  -6  -2   22.44    0.78
  -1   7  -2   21.74    0.64
   6   1   2   21.82    0.61
   6   1   2   20.79    0.69
  -7   6   2   21.38    0.73
   6   1   2   21.96    0.77
   1  -7   2   21.71    0.73
   1  -7   2   22.39    0.73
  -7   6   2   21.19    0.70
   6   1   2   21.49    0.70
   6   1   2   21.84    0.74
  -7   6   2   20.65    0.64
   6   1   2   21.29    0.73
   6   1   2   22.21    1.05
   0   6  -2  112.72    3.48
   0   6  -2  115.33    2.48
  -6   0  -2  114.07    3.16
   6  -6  -2  115.01    2.60
   6  -6  -2  114.23    2.39
  -6   0  -2  116.17    2.48
   0   6  -2  115.68    2.55
   6  -6  -2  116.61    2.30
   0   6  -2  112.49    2.45
   6   0   2  111.38    2.33
   0  -6   2  111.44    2.48
   6   0   2  110.80    2.47
   6   0   2  111.75    3.52
   6   0   2  112.61    2.49
   6   0   2  110.42    2.38
   0  -6   2  113.08    2.47
  -6   6   2  113.02    2.38
  -6   6   2  111.13    2.35
   6   0   2  109.10    2.39
   6   0   2  110.43    2.57
  -6   6   2  115.45    2.50
   1   5  -2   67.35    1.54
   5  -6  -2   66.03    1.63
   5  -6  -2   68.70    1.90
  -6   1  -2   67.79    2.02
  -6   1  -2   67.85    1.57
   1   5  -2   64.92    2.18
  -6   1  -2   66.63    1.50
   5  -6  -2   66.70    1.51
   1   5  -2   67.99    1.56
  -5   6   2   67.05    1.54
   6  -1   2   65.54    1.63
  -1  -5   2   64.93    1.60
   6  -1   2   63.52    1.51
   6  -1   2   64.50    1.49
   6  -1   2   63.65    1.57
  -5   6   2   65.96    1.49
  -5   6   2   65.84    1.63
   6  -1   2   64.56    1.57
  -1  -5   2   64.61    1.56
   6  -1   2   64.10    2.22
   6  -1   2   66.08    1.42
  -5   6   2   64.38    1.49
  -1  -5   2   63.48    1.55
  -6   2  -2   52.45    1.25
   2   4  -2   51.98    1.22
  -6   2  -2   52.63    1.28
  -6   2  -2   51.71    1.22
   4  -6  -2   52.08    1.55
   2   4  -2   51.37    1.25
   2   4  -2   50.27    1.77
   4  -6  -2   51.49    1.33
   4  -6  -2   52.15    1.23
  -4   6   2   49.18    1.20
   6  -2   2   50.02    1.31
   6  -2   2   49.74    1.26
  -2  -4   2   50.58    1.29
   6  -2   2   49.61    1.20
  -4   6   2   49.97    1.18
   6  -2   2   49.42    1.26
   6  -2   2   49.50    1.12
   6  -2   2   49.74    1.23
   6  -2   2   49.71    1.17
   6  -2   2   51.70    1.82
  -4   6   2   50.23    1.31
   6  -2   2   49.75    1.26
  -2  -4   2   50.63    1.25
  -4   6   2   50.40    1.21
  -2  -4   2   49.73    1.26
  -6   3  -2  114.34    2.49
   3   3  -2  113.96    2.53
   3  -6  -2  114.43    2.47
   3   3  -2  119.93    2.50
   3   3  -2  119.67    3.61
   3  -6  -2  120.09    3.25
  -6   3  -2  117.15    2.61
   3  -6  -2  116.17    2.68
  -6   3  -2  117.84    2.59
   6  -3   2  125.02    2.54
   6  -3   2  120.59    2.66
   6  -3   2  125.01    2.46
  -3   6   2  123.47    2.52
  -3   6   2  120.53    2.48
  -3  -3   2  125.34    2.60
   6  -3   2  121.87    2.59
   6  -3   2  121.90    2.43
   6  -3   2  122.63    2.59
  -3   6   2  122.87    2.52
  -3  -3   2  123.53    2.67
  -3   6   2  122.30    2.69
   6  -3   2  122.49    2.60
   6  -3   2  122.52    3.67
  -6   4  -2   50.79    1.20
  -6   4  -2   50.34    1.25
   2  -6  -2   49.57    1.30
  -6   4  -2   50.85    1.26
  -6   4  -2   48.79    1.24
   2  -6  -2   50.70    1.58
   4   2  -2   50.17    1.21
   4   2  -2   51.64    1.72
   6  -4   2   48.46    1.76
   6  -4   2   47.71    1.09
   6  -4   2   48.77    1.26
  -2   6   2   50.61    1.30
   6  -4   2   50.07    1.25
  -2   6   2   46.89    1.20
  -4  -2   2   49.06    1.28
  -2   6   2   49.30    1.20
   6  -4   2   49.36    1.25
   6  -4   2   49.84    1.19
   6  -4   2   50.26    1.22
   6  -4   2   48.86    1.24
  -2   6   2   50.62    1.51
  -4  -2   2   48.13    1.23
  -2   6   2   48.42    1.18
   1  -6  -2   63.14    1.58
   5   1  -2   64.73    1.45
  -6   5  -2   66.81    1.55
  -6   5  -2   65.24    1.57
   1  -6  -2   64.58    1.96
  -6   5  -2   65.13    1.48
   5   1  -2   66.34    2.10
   5   1  -2   65.40    1.47
  -6   5  -2   64.90    1.54
   6  -5   2   63.70    1.53
   6  -5   2   61.00    2.14
  -5  -1   2   60.17    1.56
  -1   6   2   65.85    1.97
  -1   6   2   63.76    1.58
  -1   6   2   62.45    1.50
   6  -5   2   63.67    1.50
   6  -5   2   63.89    1.53
   6  -5   2   62.78    1.38
  -5  -1   2   64.45    1.52
  -1   6   2   62.70    1.45
   6  -5   2   63.94    1.47
   6  -5   2   62.92    1.53
  -1   6   2   62.03    1.50
   6  -5   2   64.04    1.52
   6   0  -2  116.35    2.40
  -6   6  -2  115.46    2.42
  -6   6  -2  113.62    2.49
  -6   6  -2  116.04    2.50
   6   0  -2  117.93    2.50
   6   0  -2  114.76    2.36
   6   0  -2  109.74    3.38
  -6   6  -2  117.19    2.58
   0  -6  -2  115.79    3.19
   6  -6   2  109.52    3.48
   0   6   2  110.54    2.36
   6  -6   2  110.46    2.47
   0   6   2  108.56    2.47
   0   6   2  115.54    3.36
   6  -6   2  110.12    2.48
   6  -6   2  114.02    2.47
   0   6   2  115.15    2.35
  -6   0   2  114.47    2.47
   0   6   2  112.16    2.35
  -6   0   2  113.33    2.57
   0   6   2  113.81    2.57
   6  -6   2  112.89    2.43
   6  -6   2  111.23    2.33
   0   6   2  116.43    2.45
   6  -6   2  111.67    2.38
   6  -6   2  113.80    2.48
  -6   7  -2   23.03    0.73
   7  -1  -2   22.69    0.71
  -1  -6  -2   23.78    0.98
   7  -1  -2   24.22    0.75
  -6   7  -2   22.45    0.74
   7  -1  -2   23.46    0.98
  -6   7  -2   22.89    0.78
   7  -1  -2   22.01    0.67
  -6   7  -2   23.86    0.77
   6  -7   2   22.93    0.69
  -7   1   2   23.06    0.73
   6  -7   2   22.34    1.05
   6  -7   2   22.19    0.73
   1   6   2   23.78    0.75
  -7   1   2   21.77    0.77
   1   6   2   24.28    0.79
   1   6   2   23.85    1.01
   6  -7   2   23.11    0.75
   1   6   2   21.36    0.68
   1   6   2   22.63    0.76
   1   6   2   23.27    0.64
   6  -7   2   23.58    0.76
   6  -7   2   22.84    0.64
   6  -7   2   22.72    0.75
   1   6   2   22.78    0.71
  -6   8  -2   36.29    1.02
   8  -2  -2   35.91    1.36
  -2  -6  -2   36.20    1.35
  -6   8  -2   36.34    1.02
  -6   8  -2   36.08    1.04
  -6   8  -2   36.06    1.04
  -6   8  -2   37.82    1.11
   8  -2  -2   35.61    0.99
   8  -2  -2   37.28    0.98
   8  -2  -2   36.68    1.06
   6  -8   2   36.31    0.92
  -8   2   2   37.09    1.10
   2   6   2   35.80    1.06
   6  -8   2   35.53    1.46
  -8   2   2   36.08    1.01
   6  -8   2   35.72    1.04
   2   6   2   35.81    1.06
   2   6   2   36.74    1.45
   2   6   2   35.30    0.92
   6  -8   2   36.20    1.03
   6  -8   2   36.31    1.04
   2   6   2   36.07    1.03
   6  -8   2   35.79    1.01
   2   6   2   34.26    0.96
   2   6   2   34.80    0.99
  -3  -6  -2  114.94    3.36
   9  -3  -2  114.77    2.50
   9  -3  -2  114.14    2.49
  -6   9  -2  114.36    2.54
  -6   9  -2  116.13    2.72
   9  -3  -2  115.29    2.70
  -6   9  -2  115.44    2.57
  -6   9  -2  114.70    2.61
  -6   9  -2  115.09    2.62
   6  -9   2  117.99    2.59
   6  -9   2  115.87    2.62
  -9   3   2  116.52    2.57
   6  -9   2  117.60    2.60
   3   6   2  116.70    3.68
  -9   3   2  117.66    2.73
   6  -9   2  116.48    2.49
   3   6   2  114.50    2.57
   3   6   2  115.48    2.48
   3   6   2  118.85    2.68
   3   6   2  116.71    2.57
   3   6   2  119.08    2.71
   6  -9   2  118.16    3.67
   3   6   2  116.16    2.48
  -6  10  -2    9.43    0.49
  10  -4  -2   10.64    0.50
  -6  10  -2    9.62    0.48
  -4  -6  -2    8.96    0.44
  -6  10  -2    9.47    0.67
  10  -4  -2   10.14    0.54
  -4  -6  -2    9.22    0.64
  10  -4  -2    8.86    0.47
  -6  10  -2    8.81    0.46
  -6  10  -2    9.42    0.51
   4   6   2    9.75    0.70
   4   6   2    9.70    0.49
 -10   4   2    9.06    0.53
   4   6   2    9.30    0.52
   4   6   2    9.69    0.50
   6 -10   2    9.58    0.48
   4   6   2    9.61    0.42
   6 -10   2    9.61    0.42
 -10   4   2    9.30    0.46
   4   6   2    9.42    0.48
   4   6   2    9.99    0.52
   6 -10   2   10.59    0.51
   6 -10   2    9.18    0.68
  -5  -6  -2   35.41    1.04
  -6  11  -2   34.53    1.49
  11  -5  -2   34.53    1.07
  -6  11  -2   34.23    1.05
  -5  -6  -2   35.74    1.42
  -6  11  -2   34.91    1.14
  11  -5  -2   34.84    1.17
  11  -5  -2   35.59    1.07
  -6  11  -2   34.44    1.11
  -6  11  -2   34.90    1.06
   5   6   2   35.62    1.15
   5   6   2   33.23    1.12
   5   6   2   34.56    1.07
   5   6   2   34.62    1.57
   5   6   2   35.57    1.05
   6 -11   2   34.37    0.99
   5   6   2   34.48    1.10
   6 -11   2   35.69    1.07
 -11   5   2   33.74    1.15
   6 -11   2   34.43    1.06
   5   6   2   33.77    0.98
  -6  -6  -2   31.35    1.36
  -6  12  -2   32.00    1.03
  -6  12  -2   31.46    1.10
  -6  -6  -2   32.76    1.04
  12  -6  -2   32.68    1.16
  12  -6  -2   32.80    1.07
  -6  12  -2   32.47    1.05
  -6  12  -2   31.54    1.45
  -6  12  -2   31.45    1.08
  12  -6  -2   34.00    1.06
   6 -12   2   34.78    1.07
   6   6   2   31.42    1.09
   6   6   2   34.12    1.60
   6   6   2   32.91    1.12
 -12   6   2   31.71    1.15
   6   6   2   33.05    1.05
   6 -12   2   32.89    0.98
   6   6   2   32.27    1.12
   6   6   2   32.14    1.02
   6 -12   2   33.66    1.06
  -6  13  -2   25.90    1.29
  -7  -6  -2   25.35    0.92
  -7  -6  -2   25.55    1.21
  -6  13  -2   26.22    0.99
  13  -7  -2   25.99    0.95
  -6  13  -2   25.43    0.97
  13  -7  -2   24.89    1.02
  -6  13  -2   25.62    0.92
  13  -7  -2   24.54    0.92
  -6  13  -2   26.37    0.91
   7   6   2   24.78    0.85
   7   6   2   24.28    0.90
   7   6   2   24.47    0.90
   7   6   2   25.10    0.98
   6 -13   2   25.24    0.86
   7   6   2   23.59    0.97
   6 -13   2   26.20    0.92
 -13   7   2   24.05    1.01
   7   6   2   25.10    0.98
  -5  12  -2   17.84    0.76
  -5  12  -2   17.99    0.73
  -7  -5  -2   18.81    0.75
  -5  12  -2   17.49    0.76
  -7  -5  -2   19.54    0.99
  12  -7  -2   18.34    0.74
  12  -7  -2   18.77    0.77
  12  -7  -2   18.39    0.83
  -5  12  -2   18.62    1.03
  -5  12  -2   18.21    0.73
   5 -12   2   18.25    0.68
   7   5   2   17.99    1.11
   5 -12   2   17.91    0.73
   7   5   2   17.37    0.66
 -12   7   2   17.42    0.81
   5 -12   2   17.49    0.72
   7   5   2   18.08    0.72
   7   5   2   18.55    0.79
   7   5   2   18.43    0.80
   7   5   2   18.48    0.79
   7   5   2   18.40    0.74
  11  -7  -2    2.75    0.33
  -7  -4  -2    3.55    0.32
  -4  11  -2    3.04    0.31
  11  -7  -2    3.31    0.32
  -4  11  -2    2.68    0.31
  -7  -4  -2    3.20    0.39
  -4  11  -2    3.15    0.36
  -4  11  -2    2.69    0.31
  11  -7  -2    3.38    0.35
  -4  11  -2    3.02    0.40
   7   4   2    3.23    0.32
   4 -11   2    3.31    0.31
   7   4   2    3.16    0.31
 -11   7   2    2.82    0.35
   4 -11   2    3.20    0.32
   7   4   2    3.62    0.34
   7   4   2    2.99    0.50
   7   4   2    3.10    0.33
   7   4   2    3.14    0.27
   7   4   2    3.47    0.35
  -3  10  -2   12.50    0.59
  -7  -3  -2   11.99    0.72
  -3  10  -2   13.08    0.55
  -3  10  -2   12.39    0.80
  -3  10  -2   12.49    0.59
  10  -7  -2   12.16    0.61
  -3  10  -2   12.72    0.57
  -7  -3  -2   12.33    0.57
  10  -7  -2   12.86    0.58
  10  -7  -2   12.28    0.55
   7   3   2   13.06    0.51
   7   3   2   13.29    0.58
   7   3   2   13.06    0.85
   7   3   2   13.07    0.61
 -10   7   2   12.74    0.61
   3 -10   2   12.55    0.56
   7   3   2   13.29    0.63
   7   3   2   13.43    0.61
   7   3   2   13.22    0.57
   3 -10   2   12.78    0.58
  -2   9  -2   41.34    1.18
   9  -7  -2   42.34    1.12
  -2   9  -2   42.40    1.68
   9  -7  -2   41.70    1.27
  -2   9  -2   43.21    1.12
  -2   9  -2   42.50    1.22
  -7  -2  -2   42.91    1.19
  -2   9  -2   43.34    1.22
   9  -7  -2   43.31    1.18
  -7  -2  -2   42.57    1.52
   7   2   2   41.07    1.15
  -9   7   2   42.94    1.25
   7   2   2   41.44    1.21
   2  -9   2   40.34    1.18
   7   2   2   42.73    1.75
   2  -9   2   42.80    1.19
   7   2   2   41.38    1.16
   7   2   2   42.04    1.08
   7   2   2   41.72    1.27
   7   2   2   43.06    1.24
  -1   8  -2   10.22    0.50
  -7  -1  -2   11.24    0.64
   8  -7  -2   10.39    0.48
   8  -7  -2    9.62    0.52
  -1   8  -2   10.02    0.68
  -1   8  -2   10.71    0.50
  -1   8  -2   10.45    0.49
  -1   8  -2   10.45    0.43
  -7  -1  -2   10.92    0.50
   8  -7  -2   10.12    0.44
   1  -8   2   10.51    0.49
   1  -8   2   10.45    0.50
  -8   7   2   10.81    0.51
   7   1   2   11.19    0.52
   7   1   2   10.26    0.51
   7   1   2   11.03    0.53
  -8   7   2   10.46    0.45
   7   1   2   10.29    0.71
   7   1   2   10.31    0.48
   7   1   2   10.86    0.48
  -8   7   2    9.64    0.48
   7   1   2   10.40    0.42
   0   7  -2   15.68    0.60
   7  -7  -2   15.54    0.54
  -7   0  -2   16.06    0.77
   0   7  -2   15.51    0.61
   0   7  -2   15.49    0.60
   0   7  -2   15.82    0.85
   7  -7  -2   14.81    0.58
   7  -7  -2   15.91    0.65
   0   7  -2   15.42    0.51
  -7   0  -2   15.81    0.61
   7   0   2   15.53    0.64
   7   0   2   15.16    0.58
  -7   7   2   16.05    0.56
  -7   7   2   16.09    0.60
   0  -7   2   15.86    0.61
   0  -7   2   15.70    0.61
   7   0   2   15.67    0.61
   7   0   2   15.54    0.51
   7   0   2   16.57    0.90
   7   0   2   15.86    0.63
  -7   7   2   15.88    0.60
   7   0   2   15.58    0.59
  -7   1  -2   22.64    0.68
   1   6  -2   22.02    0.71
  -7   1  -2   21.73    0.73
  -7   1  -2   22.08    0.94
   1   6  -2   21.17    0.71
  -7   1  -2   20.92    0.68
   6  -7  -2   21.99    0.71
   1   6  -2   22.49    1.04
   6  -7  -2   22.21    0.78
  -1  -6   2   22.27    0.74
  -1  -6   2   21.37    0.72
  -6   7   2   21.17    0.70
   7  -1   2   21.07    0.76
  -6   7   2   22.04    0.69
   7  -1   2   21.76    0.64
   7  -1   2   21.26    0.61
   7  -1   2   21.53    1.05
   7  -1   2   21.51    0.73
  -6   7   2   22.30    0.77
   7  -1   2   22.14    0.75
  -6   7   2   22.79    0.70
  -1  -6   2   21.51    0.73
   7  -1   2   21.36    0.70
   7  -1   2   21.07    0.70
   2   5  -2    5.36    0.46
   5  -7  -2    5.70    0.37
  -7   2  -2    5.82    0.34
  -7   2  -2    5.81    0.32
  -7   2  -2    5.84    0.32
   2   5  -2    5.89    0.34
   2   5  -2    5.71    0.32
   5  -7  -2    5.85    0.34
  -2  -5   2    5.83    0.35
  -5   7   2    5.51    0.30
  -5   7   2    5.41    0.32
   7  -2   2    5.79    0.34
   7  -2   2    5.65    0.34
   7  -2   2    5.94    0.35
  -5   7   2    5.93    0.37
  -2  -5   2    5.67    0.34
   7  -2   2    5.37    0.33
   7  -2   2    5.82    0.27
   7  -2   2    5.65    0.35
   7  -2   2    5.62    0.31
   7  -2   2    5.81    0.50
   7  -2   2    5.77    0.35
  -5   7   2    5.51    0.33
   3   4  -2   16.03    0.83
  -7   3  -2   15.63    0.56
   3   4  -2   16.73    0.55
  -7   3  -2   16.55    0.59
   3   4  -2   15.72    0.58
   4  -7  -2   15.44    0.56
   4  -7  -2   16.31    0.62
  -7   3  -2   16.33    0.61
   4  -7  -2   15.64    0.72
  -4   7   2   17.36    0.57
   7  -3   2   15.93    0.56
  -4   7   2   16.85    0.62
  -3  -4   2   16.35    0.60
   7  -3   2   15.61    0.85
   7  -3   2   17.76    0.64
   7  -3   2   16.53    0.60
   7  -3   2   16.69    0.61
   7  -3   2   15.59    0.60
  -4   7   2   17.05    0.59
   7  -3   2   16.19    0.56
   7  -3   2   16.30    0.49
  -3  -4   2   16.88    0.62
   7  -3   2   16.85    0.59
  -7   4  -2   15.21    0.57
   4   3  -2   15.41    0.50
   3  -7  -2   14.95    0.71
   4   3  -2   14.16    0.54
  -7   4  -2   14.71    0.54
  -7   4  -2   14.36    0.57
   3  -7  -2   14.84    0.59
   3  -7  -2   14.93    0.55
   4   3  -2   14.20    0.76
   7  -4   2   15.31    0.59
   7  -4   2   15.19    0.53
   7  -4   2   15.01    0.57
  -3   7   2   14.67    0.52
  -3   7   2   15.38    0.55
  -4  -3   2   16.13    0.60
   7  -4   2   15.47    0.47
   7  -4   2   16.04    0.57
  -3   7   2   14.89    0.56
   7  -4   2   15.32    0.58
   7  -4   2   15.94    0.83
   7  -4   2   14.72    0.57
   7  -4   2   15.16    0.54
  -4  -3   2   15.38    0.57
  -3   7   2   15.09    0.59
  -7   5  -2    6.17    0.37
   5   2  -2    6.28    0.29
   2  -7  -2    6.39    0.38
  -7   5  -2    6.32    0.36
   5   2  -2    6.35    0.47
   5   2  -2    6.20    0.34
   5   2  -2    6.16    0.28
  -7   5  -2    5.85    0.34
   5   2  -2    6.16    0.34
  -7   5  -2    5.72    0.35
  -2   7   2    6.09    0.33
  -5  -2   2    6.01    0.36
   7  -5   2    6.07    0.35
   7  -5   2    6.02    0.36
   7  -5   2    6.63    0.51
   7  -5   2    5.82    0.35
  -2   7   2    6.05    0.35
  -5  -2   2    6.33    0.37
   7  -5   2    5.68    0.35
  -2   7   2    5.68    0.33
  -2   7   2    5.94    0.37
   7  -5   2    6.51    0.36
   7  -5   2    6.00    0.32
   7  -5   2    5.81    0.27
   7  -5   2    6.00    0.35
  -7   6  -2   22.38    0.76
   6   1  -2   23.52    0.69
   6   1  -2   22.48    0.70
   1  -7  -2   22.06    0.77
   1  -7  -2   22.97    0.96
  -7   6  -2   22.02    0.74
  -7   6  -2   23.67    0.76
   6   1  -2   22.40    0.71
   6   1  -2   23.33    1.01
  -7   6  -2   23.01    0.73
  -6  -1   2   23.44    0.76
   7  -6   2   22.76    0.74
  -1   7   2   23.65    0.93
  -1   7   2   22.46    0.70
   7  -6   2   23.14    1.06
   7  -6   2   22.33    0.74
   7  -6   2   22.14    0.72
   7  -6   2   23.00    0.74
   7  -6   2   21.58    0.74
   7  -6   2   22.23    0.63
  -1   7   2   23.09    0.74
  -1   7   2   22.96    0.74
   7  -6   2   22.78    0.74
  -6  -1   2   23.35    0.78
  -1   7   2   22.31    0.76
   7   0  -2   16.26    0.59
   0  -7  -2   16.87    0.81
  -7   7  -2   16.34    0.63
   7   0  -2   16.11    0.58
  -7   7  -2   15.52    0.61
  -7   7  -2   16.06    0.64
   7   0  -2   15.92    0.58
  -7   7  -2   16.57    0.60
   0  -7  -2   16.23    0.65
   7   0  -2   17.20    0.83
  -7   0   2   16.74    0.62
   7  -7   2   16.59    0.88
   0   7   2   16.69    0.63
   0   7   2   16.86    0.64
   0   7   2   16.40    0.58
   7  -7   2   16.54    0.62
   7  -7   2   15.83    0.61
   7  -7   2   17.01    0.63
  -7   0   2   16.56    0.65
   7  -7   2   17.01    0.62
   7  -7   2   16.75    0.53
   0   7   2   17.04    0.64
   7  -7   2   17.22    0.61
   8  -1  -2   11.46    0.46
   8  -1  -2   10.73    0.48
  -1  -7  -2   11.85    0.67
  -7   8  -2   11.29    0.53
   8  -1  -2   12.25    0.52
  -7   8  -2   11.28    0.50
  -7   8  -2   11.67    0.52
  -7   8  -2   10.86    0.51
  -8   1   2   11.48    0.51
   1   7   2   11.16    0.51
   1   7   2   11.58    0.53
   7  -8   2   11.22    0.51
   7  -8   2   11.80    0.52
   7  -8   2   11.12    0.43
   7  -8   2   12.30    0.52
   1   7   2   11.08    0.47
   1   7   2   11.81    0.54
   7  -8   2   11.42    0.72
  -8   1   2   11.42    0.55
   7  -8   2   11.80    0.51
   1   7   2    8.67    0.63
   1   7   2   10.83    0.47
   9  -2  -2   44.21    1.15
  -7   9  -2   43.48    1.28
  -7   9  -2   44.28    1.20
   9  -2  -2   37.02    1.56
  -2  -7  -2   44.96    1.61
   9  -2  -2   45.73    1.19
   9  -2  -2   46.40    1.27
  -7   9  -2   45.47    1.24
  -7   9  -2   45.50    1.24
  -7   9  -2   43.54    1.19
   2   7   2   43.47    1.26
   2   7   2   44.01    1.18
  -9   2   2   42.83    1.28
   7  -9   2   43.52    1.20
   2   7   2   43.18    1.25
   7  -9   2   44.21    1.21
   2   7   2   42.99    1.21
   7  -9   2   43.29    1.23
  -9   2   2   44.00    1.22
   2   7   2   44.42    1.73
   7  -9   2   43.53    1.21
   7  -9   2   44.61    1.12
   7  -9   2   44.01    1.72
   2   7   2   43.38    1.15
  -7  10  -2   11.24    0.54
  10  -3  -2   11.62    0.53
  -7  10  -2   11.48    0.54
  10  -3  -2   11.79    0.58
  -7  10  -2   11.40    0.58
  10  -3  -2   11.94    0.53
  -7  10  -2   11.21    0.56
  -7  10  -2   12.07    0.56
  -3  -7  -2   11.49    0.72
   3   7   2   11.85    0.56
 -10   3   2   12.54    0.56
   3   7   2   12.45    0.82
   3   7   2   12.02    0.57
   7 -10   2   11.91    0.78
   3   7   2   12.24    0.54
   7 -10   2   12.84    0.49
 -10   3   2   11.78    0.59
   7 -10   2   12.57    0.56
   3   7   2   13.39    0.61
   7 -10   2   11.93    0.55
   7 -10   2   11.35    0.56
   3   7   2   11.87    0.55
  11  -4  -2    2.95    0.36
  -7  11  -2    2.59    0.32
  -7  11  -2    3.24    0.31
  11  -4  -2    3.39    0.32
  -7  11  -2    2.74    0.32
  -7  11  -2    2.74    0.38
  -7  11  -2    3.03    0.30
  -4  -7  -2    2.65    0.40
  11  -4  -2    3.28    0.31
  -7  11  -2    3.18    0.33
   4   7   2    2.57    0.33
   4   7   2    2.96    0.31
 -11   4   2    2.86    0.32
 -11   4   2    3.19    0.33
   4   7   2    2.45    0.29
   4   7   2    3.06    0.43
   4   7   2    2.63    0.32
   7 -11   2    2.82    0.26
   7 -11   2    3.37    0.31
   7 -11   2    3.07    0.40
   7 -11   2    3.11    0.30
   4   7   2    2.91    0.34
  -7  12  -2   18.86    0.80
  12  -5  -2   18.14    0.74
  12  -5  -2   18.82    0.76
  -7  12  -2   18.54    1.03
  -7  12  -2   19.07    0.76
  -7  12  -2   19.18    0.76
  -7  12  -2   17.95    0.77
  12  -5  -2   19.92    0.84
  -7  12  -2   18.61    0.73
  -5  -7  -2   18.25    0.99
   7 -12   2   17.86    0.73
   7 -12   2   18.24    0.74
   5   7   2   18.40    0.78
   5   7   2   18.46    0.79
   5   7   2   18.03    0.74
 -12   5   2   19.28    0.84
   5   7   2   18.07    0.79
   5   7   2   18.38    0.72
   7 -12   2   18.06    0.68
   5   7   2   19.86    1.14
  -7  13  -2   22.84    0.92
  -7  13  -2   24.33    0.95
  -7  13  -2   24.25    0.88
  -6  -7  -2   24.90    1.20
  13  -6  -2   25.29    0.92
  -7  13  -2   24.75    0.92
  13  -6  -2   24.67    0.92
  13  -6  -2   24.93    1.00
   6   7   2   24.41    0.91
   6   7   2   25.25    1.38
 -13   6   2   24.17    1.00
   6   7   2   23.86    0.88
   6   7   2   23.99    0.98
   7 -13   2   23.91    0.89
   7 -13   2   24.71    0.85
   6   7   2   24.27    0.96
   6   7   2   24.81    0.96
  -7  14  -2    0.84    0.24
  14  -7  -2    0.97    0.25
  -7  -7  -2    0.93    0.29
  -7  14  -2    0.83    0.23
  14  -7  -2    0.70    0.23
  -7  14  -2    0.94    0.25
  14  -7  -2    0.95    0.26
   7   7   2    0.66    0.21
   7   7   2    0.62    0.22
   7   7   2    0.83    0.25
 -14   7   2    0.61    0.22
   7 -14   2    0.59    0.19
   7   7   2    0.40    0.20
   7   7   2    0.53    0.23
  15  -8  -2   23.50    1.06
  -7  15  -2   24.01    1.01
  -7  15  -2   25.48    1.01
  15  -8  -2   23.91    0.98
  -7  15  -2   25.03    0.98
  15  -8  -2   22.96    0.97
   8   7   2   25.63    1.04
   8   7   2   23.37    1.01
   8   7   2   23.32    1.02
   8   7   2   25.48    0.96
 -15   8   2   24.98    1.09
  -8  -6  -2   10.41    0.58
  -6  14  -2    9.58    0.57
  14  -8  -2    9.91    0.60
  14  -8  -2   10.08    0.60
  -6  14  -2    8.79    0.58
  -8  -6  -2   10.34    0.75
  14  -8  -2    9.89    0.65
  -6  14  -2   10.05    0.60
   8   6   2   11.42    0.61
   6 -14   2   10.95    0.54
 -14   8   2   10.97    0.67
   8   6   2   11.23    0.65
   8   6   2   11.64    0.65
   8   6   2   12.07    0.67
   8   6   2   10.78    0.54
  -5  13  -2    3.60    0.48
  -5  13  -2    4.01    0.36
  -5  13  -2    4.01    0.38
  -5  13  -2    3.75    0.38
  13  -8  -2    3.81    0.37
  -5  13  -2    3.52    0.36
  -8  -5  -2    4.05    0.46
  -8  -5  -2    3.65    0.36
  13  -8  -2    3.19    0.39
  13  -8  -2    3.20    0.42
   8   5   2    3.41    0.40
   5 -13   2    3.69    0.37
   8   5   2    3.59    0.42
   5 -13   2    4.01    0.32
   8   5   2    3.57    0.37
   8   5   2    3.91    0.38
   8   5   2    4.04    0.32
 -13   8   2    3.73    0.44
   8   5   2    3.84    0.36
  -8  -4  -2   51.49    1.45
  -4  12  -2   49.32    1.40
  12  -8  -2   49.40    1.43
  -4  12  -2   49.23    1.45
  12  -8  -2   49.61    1.54
  -4  12  -2   48.66    1.98
  -4  12  -2   49.67    1.37
  -8  -4  -2   51.23    1.83
  12  -8  -2   52.07    1.41
  -4  12  -2   50.20    1.48
   8   4   2   49.80    1.39
   8   4   2   49.21    1.49
   8   4   2   49.85    1.52
   8   4   2   49.42    1.47
   4 -12   2   50.79    1.43
 -12   8   2   48.40    1.52
   4 -12   2   48.98    1.41
   8   4   2   48.67    1.37
   8   4   2   48.15    2.07
  -3  11  -2   26.89    0.97
  -3  11  -2   27.77    1.33
  -8  -3  -2   27.42    1.20
  11  -8  -2   27.47    1.02
  -8  -3  -2   26.30    0.94
  11  -8  -2   26.20    0.93
  11  -8  -2   27.55    0.91
  -3  11  -2   27.60    0.93
  -3  11  -2   27.04    0.88
  -3  11  -2   26.22    0.95
   3 -11   2   28.29    0.96
   8   3   2   28.64    1.00
   8   3   2   28.25    1.00
   8   3   2   28.45    0.92
   8   3   2   27.92    1.40
   8   3   2   28.75    1.03
 -11   8   2   29.19    1.03
   8   3   2   29.34    0.95
   3 -11   2   29.28    0.95
   8   3   2   27.54    0.86
  -2  10  -2    3.34    0.32
  -2  10  -2    3.25    0.41
  10  -8  -2    3.83    0.35
  -2  10  -2    3.23    0.31
  -2  10  -2    3.84    0.30
  10  -8  -2    3.33    0.30
  -2  10  -2    4.04    0.35
  -8  -2  -2    3.62    0.32
  -8  -2  -2    2.94    0.37
  10  -8  -2    3.28    0.31
   8   2   2    3.13    0.34
   2 -10   2    3.26    0.32
 -10   8   2    3.76    0.34
   8   2   2    3.58    0.35
   8   2   2    3.86    0.35
   8   2   2    3.31    0.33
   8   2   2    3.09    0.25
   2 -10   2    3.74    0.32
   8   2   2    3.55    0.31
   8   2   2    3.39    0.45
  -1   9  -2   28.59    0.93
   9  -8  -2   28.54    0.93
  -1   9  -2   28.57    0.95
   9  -8  -2   28.18    1.00
   9  -8  -2   28.53    0.87
  -8  -1  -2   29.08    1.19
  -1   9  -2   28.92    0.95
  -1   9  -2   27.36    1.30
  -8  -1  -2   28.47    0.94
  -1   9  -2   29.86    0.85
   8   1   2   31.29    1.00
   8   1   2   30.44    0.92
  -9   8   2   30.11    0.88
   8   1   2   29.41    1.01
  -9   8   2   28.72    0.92
   8   1   2   28.87    0.91
   8   1   2   29.33    1.38
  -9   8   2   29.93    0.98
   8   1   2   29.54    0.96
   8   1   2   30.26    0.85
   1  -9   2   28.77    0.94
   1  -9   2   30.47    0.96
   8  -8  -2    4.11    0.29
   0   8  -2    3.70    0.31
   0   8  -2    3.52    0.31
  -8   0  -2    3.93    0.29
  -8   0  -2    3.92    0.32
   0   8  -2    3.75    0.42
  -8   0  -2    3.80    0.39
   8  -8  -2    3.67    0.31
   0   8  -2    3.18    0.30
   8  -8  -2    3.60    0.33
   8   0   2    4.09    0.34
   8   0   2    4.08    0.31
   0  -8   2    4.41    0.34
  -8   8   2    4.22    0.32
   8   0   2    4.66    0.48
   0  -8   2    4.25    0.32
  -8   8   2    4.17    0.33
  -8   8   2    4.21    0.31
   8   0   2    4.31    0.34
   8   0   2    4.50    0.34
   8   0   2    4.40    0.33
   8   0   2    4.41    0.27
   1   7  -2   10.08    0.48
  -8   1  -2   10.25    0.45
   7  -8  -2   10.97    0.54
  -8   1  -2   10.72    0.63
  -8   1  -2   10.86    0.45
  -8   1  -2    9.52    0.49
   1   7  -2   10.51    0.49
   1   7  -2   10.28    0.50
   1   7  -2   10.40    0.69
   7  -8  -2   10.47    0.49
  -7   8   2   11.13    0.50
  -7   8   2   10.65    0.48
  -1  -7   2   10.73    0.50
   8  -1   2   10.51    0.51
   8  -1   2   10.00    0.41
   8  -1   2   10.71    0.44
   8  -1   2    9.68    0.51
   8  -1   2   10.77    0.48
  -1  -7   2   10.95    0.50
  -7   8   2   10.99    0.49
   8  -1   2   10.57    0.72
   8  -1   2    9.76    0.47
   8  -1   2   10.11    0.49
   6  -8  -2   37.10    1.02
   2   6  -2   37.70    1.50
   2   6  -2   36.74    1.04
  -8   2  -2   37.25    1.35
   6  -8  -2   36.32    1.10
  -8   2  -2   34.95    0.98
  -8   2  -2   37.42    1.07
   2   6  -2   37.12    1.02
  -8   2  -2   37.92    1.02
   8  -2   2   36.45    0.93
  -2  -6   2   35.03    1.05
   8  -2   2   35.41    1.06
   8  -2   2   37.07    1.03
  -6   8   2   35.67    1.00
  -6   8   2   35.81    1.00
   8  -2   2   35.84    1.04
  -6   8   2   36.45    1.10
  -6   8   2   36.51    1.02
   8  -2   2   36.20    1.11
   8  -2   2   35.85    1.52
  -2  -6   2   37.21    1.07
   8  -2   2   35.83    0.97
   8  -2   2   35.79    1.01
   5  -8  -2   54.91    1.46
   3   5  -2   55.86    1.33
  -8   3  -2   55.18    1.32
  -8   3  -2   55.55    1.38
  -8   3  -2   53.51    1.39
   5  -8  -2   56.42    1.34
   3   5  -2   56.14    1.38
   3   5  -2   53.36    1.94
  -5   8   2   52.99    1.34
   8  -3   2   52.39    1.25
   8  -3   2   52.05    1.37
  -5   8   2   50.13    1.29
  -3  -5   2   51.76    1.38
   8  -3   2   50.75    1.37
  -5   8   2   51.83    1.42
  -3  -5   2   52.29    1.39
   8  -3   2   53.43    1.34
   8  -3   2   53.20    1.45
   8  -3   2   55.52    1.34
   8  -3   2   52.15    1.29
   8  -3   2   51.06    1.95
  -8   4  -2  166.98    3.57
   4  -8  -2  164.19    3.36
   4   4  -2  160.24    4.88
   4   4  -2  166.28    3.42
   4   4  -2  159.13    3.44
   4  -8  -2  161.93    3.63
  -8   4  -2  163.51    3.38
   4  -8  -2  164.18    4.42
  -8   4  -2  164.73    3.52
   8  -4   2  161.79    4.93
   8  -4   2  167.81    3.52
   8  -4   2  166.56    3.37
  -4   8   2  166.34    3.62
  -4  -4   2  167.11    3.52
   8  -4   2  167.57    3.52
  -4   8   2  166.42    3.35
   8  -4   2  162.29    3.49
   8  -4   2  167.34    3.35
   8  -4   2  165.17    3.41
   8  -4   2  167.46    3.36
  -4  -4   2  168.32    3.60
  -4   8   2  166.22    3.43
   8  -4   2  167.18    3.64
  -4   8   2  169.62    3.43
  -8   5  -2   52.50    1.29
   5   3  -2   52.96    1.23
   5   3  -2   51.19    1.30
  -8   5  -2   52.68    1.35
   5   3  -2   52.34    1.86
   3  -8  -2   51.29    1.69
   3  -8  -2   51.67    1.39
  -8   5  -2   51.09    1.35
   3  -8  -2   51.81    1.28
  -8   5  -2   51.71    1.33
   8  -5   2   50.66    1.31
  -5  -3   2   51.36    1.35
  -3   8   2   49.94    1.37
   8  -5   2   49.86    1.20
   8  -5   2   49.78    1.25
  -3   8   2   49.28    1.30
   8  -5   2   49.93    1.36
   8  -5   2   52.56    1.29
  -3   8   2   49.18    1.28
  -3   8   2   50.58    1.26
  -5  -3   2   49.98    1.36
   8  -5   2   50.69    1.32
   8  -5   2   50.15    1.88
   8  -5   2   49.97    1.33
   2  -8  -2   36.20    1.08
   2  -8  -2   36.32    1.00
   6   2  -2   37.41    1.02
  -8   6  -2   37.58    1.09
  -8   6  -2   35.76    1.03
   2  -8  -2   37.18    1.36
  -8   6  -2   37.19    1.02
   6   2  -2   36.21    0.98
  -8   6  -2   36.15    1.05
   6   2  -2   35.14    1.42
   8  -6   2   36.29    0.98
   8  -6   2   35.59    0.92
  -6  -2   2   34.76    1.04
   8  -6   2   35.57    1.03
   8  -6   2   35.39    1.04
   8  -6   2   36.28    1.48
   8  -6   2   34.02    1.01
  -2   8   2   35.67    1.03
   8  -6   2   35.66    1.04
   8  -6   2   34.87    1.05
  -2   8   2   36.16    1.03
   8  -6   2   35.76    1.02
  -6  -2   2   36.47    1.08
  -2   8   2   35.75    0.98
  -2   8   2   38.46    1.09
  -8   7  -2   11.64    0.52
   7   1  -2   11.69    0.48
   1  -8  -2   11.54    0.67
   7   1  -2   11.52    0.49
   7   1  -2   11.77    0.71
  -8   7  -2   11.67    0.55
   1  -8  -2   10.36    0.52
  -8   7  -2   11.77    0.52
  -8   7  -2   11.04    0.51
   7   1  -2   11.21    0.49
   8  -7   2   11.30    0.72
  -7  -1   2   11.67    0.54
   8  -7   2   11.32    0.52
  -1   8   2   11.01    0.48
   8  -7   2   10.85    0.43
  -7  -1   2   11.60    0.53
   8  -7   2   11.11    0.46
   8  -7   2   11.47    0.51
   8  -7   2   10.69    0.50
  -1   8   2   12.06    0.53
  -1   8   2   11.71    0.53
   8  -7   2   11.29    0.52
  -1   8   2   11.64    0.53
   8  -7   2   11.83    0.52
   8  -7   2   12.45    0.53
  -8   8  -2    3.70    0.30
  -8   8  -2    4.11    0.31
   8   0  -2    4.42    0.32
  -8   8  -2    4.15    0.34
   8   0  -2    4.68    0.29
   8   0  -2    4.30    0.31
   0  -8  -2    4.07    0.42
  -8   8  -2    4.37    0.33
   8   0  -2    3.45    0.40
   0  -8  -2    4.06    0.34
   8   0  -2    4.13    0.32
   8  -8   2    4.29    0.33
   8  -8   2    4.53    0.46
  -8   0   2    4.45    0.34
   8  -8   2    4.49    0.29
   0   8   2    4.65    0.35
   8  -8   2    4.75    0.35
   8  -8   2    4.97    0.35
   8  -8   2    5.31    0.35
   8  -8   2    4.72    0.32
   8  -8   2    4.72    0.28
   0   8   2    4.80    0.35
   0   8   2    4.34    0.32
   0   8   2    3.32    0.40
  -8   0   2    4.70    0.36
   0   8   2    5.07    0.36
   9  -1  -2   27.79    0.85
  -8   9  -2   28.69    0.93
   9  -1  -2   27.95    0.92
   9  -1  -2   28.01    0.89
  -1  -8  -2   26.67    1.19
  -8   9  -2   28.65    0.92
  -8   9  -2   26.96    0.96
  -8   9  -2   27.94    0.92
   8  -9   2   28.97    0.92
   8  -9   2   28.79    0.83
   8  -9   2   29.48    0.93
  -9   1   2   28.75    0.98
   1   8   2   29.86    0.95
   1   8   2   26.99    1.27
   1   8   2   28.53    0.86
   1   8   2   29.78    0.97
   8  -9   2   28.64    1.29
   8  -9   2   30.04    0.93
   1   8   2   30.50    0.94
   8  -9   2   29.04    0.93
  -9   1   2   28.59    0.93
  10  -2  -2    3.32    0.29
  -8  10  -2    2.63    0.31
  -2  -8  -2    3.07    0.38
  10  -2  -2    3.03    0.29
  10  -2  -2    3.21    0.31
  10  -2  -2    3.17    0.31
  -8  10  -2    3.02    0.35
  -8  10  -2    2.80    0.32
  -8  10  -2    3.23    0.31
  -8  10  -2    3.29    0.30
   8 -10   2    2.80    0.32
 -10   2   2    3.06    0.30
   8 -10   2    2.97    0.26
 -10   2   2    3.33    0.34
   2   8   2    3.12    0.31
   8 -10   2    3.93    0.34
   2   8   2    3.14    0.31
   2   8   2    3.33    0.33
   8 -10   2    3.60    0.43
   2   8   2    3.00    0.30
   8 -10   2    2.88    0.29
   2   8   2    3.31    0.44
   8 -10   2    3.23    0.30
   2   8   2    3.19    0.30
  11  -3  -2   27.94    0.92
  -8  11  -2   28.98    0.96
  11  -3  -2   27.77    0.94
  -8  11  -2   27.99    1.01
  11  -3  -2   27.21    1.00
  -8  11  -2   28.13    0.97
  -8  11  -2   27.47    0.95
  -3  -8  -2   27.03    1.25
  -8  11  -2   29.44    0.95
 -11   3   2   29.56    1.05
   3   8   2   31.52    1.45
   8 -11   2   29.27    0.95
   8 -11   2   30.20    0.96
   3   8   2   29.48    1.00
   3   8   2   29.60    0.98
   3   8   2   28.98    0.96
   3   8   2   29.16    1.02
   8 -11   2   29.65    1.36
 -11   3   2   28.18    0.96
   3   8   2   29.15    0.92
   8 -11   2   28.74    0.97
   8 -11   2   30.87    0.90
  -8  12  -2   48.70    1.40
  -8  12  -2   52.31    1.97
  -8  12  -2   51.69    1.42
  12  -4  -2   51.60    1.40
  -4  -8  -2   48.80    1.84
  -8  12  -2   49.87    1.44
  12  -4  -2   49.59    1.50
  -8  12  -2   49.12    1.37
  -8  12  -2   49.90    1.49
  12  -4  -2   50.76    1.40
   8 -12   2   50.41    1.40
   4   8   2   48.43    1.40
   4   8   2   49.04    2.08
   4   8   2   46.85    1.31
   4   8   2   47.23    1.47
 -12   4   2   48.51    1.52
   4   8   2   47.28    1.41
   8 -12   2   48.58    1.38
 -12   4   2   48.92    1.41
   8 -12   2   47.97    1.32
   4   8   2   47.63    1.44
  13  -5  -2    3.33    0.39
  13  -5  -2    3.69    0.40
  13  -5  -2    4.16    0.40
  -8  13  -2    3.81    0.38
  -5  -8  -2    3.06    0.47
  -8  13  -2    3.72    0.37
 -13   5   2    3.34    0.41
   5   8   2    4.09    0.38
   5   8   2    4.65    0.41
   5   8   2    3.57    0.36
   5   8   2    3.86    0.37
   5   8   2    3.62    0.43
   8 -13   2    3.51    0.32
   5   8   2    3.74    0.53
  14  -6  -2    9.04    0.62
  14  -6  -2    9.86    0.59
  -8  14  -2    9.98    0.60
  -8  14  -2   10.37    0.62
  -6  -8  -2    9.15    0.73
  14  -6  -2    9.59    0.59
  -8  14  -2   10.25    0.60
   6   8   2   11.58    0.63
   6   8   2   11.14    0.61
   6   8   2   10.68    0.63
   8 -14   2   11.02    0.55
 -14   6   2   11.00    0.68
   6   8   2   10.98    0.58
   6   8   2   10.98    0.66
  15  -7  -2   25.42    1.00
  15  -7  -2   23.08    1.05
  -8  15  -2   25.86    1.03
  -8  15  -2   24.99    1.02
  15  -7  -2   25.47    1.01
  -7  -8  -2   24.83    1.27
  -8  15  -2   24.40    0.98
 -15   7   2   25.19    1.10
   7   8   2   24.43    1.04
   7   8   2   25.14    1.04
  -8  16  -2   41.03    1.37
  16  -8  -2   40.36    1.39
  16  -8  -2   40.24    1.50
  -8  16  -2   39.67    1.39
  16  -8  -2   39.49    1.36
 -16   8   2   39.66    1.50
   8   8   2   40.94    1.45
   8   8   2   41.42    1.46
  17  -9  -2    8.76    0.61
  -8  17  -2    8.75    0.61
  -8  17  -2    9.39    0.65
  17  -9  -2    8.34    0.62
   9   8   2    7.96    0.63
   9   8   2    7.43    0.60
 -17   9   2    8.14    0.65
  -7  16  -2    5.50    0.48
  16  -9  -2    5.46    0.53
  16  -9  -2    4.88    0.47
  -7  16  -2    5.91    0.51
  16  -9  -2    5.99    0.50
   9   7   2    4.68    0.48
 -16   9   2    5.14    0.52
   9   7   2    5.25    0.50
  15  -9  -2   23.18    0.98
  -9  -6  -2   25.85    1.01
  -6  15  -2   25.67    1.04
  15  -9  -2   24.70    0.98
  -6  15  -2   24.22    0.97
  15  -9  -2   25.12    1.10
   9   6   2   25.60    1.05
   9   6   2   26.16    1.06
   9   6   2   26.02    0.99
   9   6   2   26.00    1.08
 -15   9   2   24.99    1.09
  -5  14  -2   11.87    0.64
  -5  14  -2   11.46    0.61
  -5  14  -2   12.21    0.63
  -9  -5  -2   12.03    0.65
  14  -9  -2   10.89    0.68
  14  -9  -2   12.02    0.64
  -5  14  -2   10.48    0.62
  14  -9  -2   10.85    0.63
   9   5   2   11.49    0.63
   9   5   2   11.00    0.65
   9   5   2   10.65    0.66
   9   5   2   12.54    0.69
   5 -14   2   11.55    0.56
   9   5   2   11.70    0.57
   5 -14   2   12.41    0.63
 -14   9   2   11.65    0.69
  -9  -4  -2    7.91    0.51
  -4  13  -2    6.81    0.48
  13  -9  -2    7.32    0.53
  -4  13  -2    7.71    0.48
  -9  -4  -2    6.73    0.59
  -4  13  -2    7.88    0.49
  -4  13  -2    6.93    0.47
  -4  13  -2    6.99    0.65
  13  -9  -2    7.16    0.50
  13  -9  -2    7.21    0.48
   9   4   2    6.67    0.41
   9   4   2    5.98    0.47
 -13   9   2    6.39    0.51
   4 -13   2    6.43    0.45
   4 -13   2    6.65    0.45
   9   4   2    7.55    0.53
   4 -13   2    7.16    0.42
   9   4   2    6.73    0.51
   9   4   2    7.25    0.49
  -3  12  -2   30.66    1.44
  -9  -3  -2   29.25    1.02
  -9  -3  -2   30.05    1.29
  -3  12  -2   29.55    1.04
  12  -9  -2   28.67    1.01
  -3  12  -2   29.74    0.96
  -3  12  -2   29.50    1.02
  12  -9  -2   28.02    1.09
  12  -9  -2   30.55    0.99
  -3  12  -2   29.24    1.00
   9   3   2   27.40    1.48
   9   3   2   28.54    0.92
   9   3   2   29.12    1.04
   3 -12   2   28.96    1.00
   3 -12   2   29.29    1.00
   9   3   2   28.68    1.07
   9   3   2   27.78    1.07
 -12   9   2   28.17    1.07
   9   3   2   28.83    0.96
   9   3   2   27.94    0.98
  -9  -2  -2   14.22    0.67
  -2  11  -2   13.68    0.66
  11  -9  -2   14.73    0.72
  11  -9  -2   14.51    0.62
  -2  11  -2   14.78    0.92
  -2  11  -2   14.70    0.66
  -9  -2  -2   14.84    0.83
  -2  11  -2   14.25    0.65
  11  -9  -2   13.92    0.65
  -2  11  -2   14.06    0.60
   2 -11   2   14.90    0.66
   9   2   2   15.06    0.71
   9   2   2   14.96    0.59
   9   2   2   15.34    0.69
 -11   9   2   15.19    0.70
   9   2   2   13.69    0.69
   9   2   2   15.24    0.63
   9   2   2   14.30    0.97
   2 -11   2   15.70    0.67
   9   2   2   15.17    0.67
  -9  -1  -2   27.17    0.84
  -9  -1  -2   25.89    1.12
  -9  -1  -2   26.24    0.92
  -1  10  -2   26.15    0.91
  -1  10  -2   25.07    1.25
  10  -9  -2   25.78    0.83
  -1  10  -2   25.60    0.90
  10  -9  -2   25.72    0.97
  -1  10  -2   25.07    0.88
  10  -9  -2   25.69    0.89
   9   1   2   25.68    0.80
   9   1   2   25.28    0.85
   9   1   2   25.87    0.92
   9   1   2   24.54    0.92
   9   1   2   25.55    0.96
   9   1   2   25.27    1.31
 -10   9   2   24.47    0.83
 -10   9   2   25.27    0.93
   1 -10   2   25.69    0.90
   9   1   2   25.61    0.88
  -9   0  -2  103.46    2.43
   0   9  -2  107.08    3.44
   9  -9  -2  102.75    2.24
  -9   0  -2  104.52    3.06
   0   9  -2  101.85    2.42
   9  -9  -2  102.98    2.34
   0   9  -2  105.97    2.41
   0   9  -2  101.44    2.44
  -9   0  -2  103.71    2.29
   9  -9  -2  101.69    2.54
   9   0   2  102.31    2.53
  -9   9   2  103.20    2.33
   9   0   2  102.80    3.47
   9   0   2  102.97    2.29
   0  -9   2  101.59    2.41
   9   0   2  100.35    2.42
   9   0   2  103.04    2.35
   9   0   2  104.48    2.33
  -9   9   2   99.04    2.45
  -9   9   2  103.18    2.33
   9   0   2  103.76    2.46
   8  -9  -2   28.25    1.00
   8  -9  -2   28.09    0.91
  -9   1  -2   28.93    0.88
  -9   1  -2   29.14    1.20
   1   8  -2   28.31    0.95
  -9   1  -2   28.12    0.95
   1   8  -2   29.46    1.35
   1   8  -2   27.71    0.93
   8  -9  -2   29.00    0.84
   1   8  -2   29.56    0.95
  -8   9   2   29.43    0.92
   9  -1   2   29.74    1.02
   9  -1   2   30.53    0.99
  -8   9   2   29.73    0.95
   9  -1   2   31.85    0.96
   9  -1   2   31.69    0.93
   9  -1   2   29.64    0.85
   9  -1   2   30.37    1.41
   9  -1   2   30.39    0.96
   9  -1   2   28.29    0.85
  -8   9   2   30.64    0.92
  -1  -8   2   30.44    0.97
  -9   2  -2   42.43    1.53
   7  -9  -2   42.59    1.17
  -9   2  -2   45.09    1.18
   2   7  -2   42.43    1.71
   2   7  -2   42.06    1.17
  -9   2  -2   42.23    1.22
  -9   2  -2   41.80    1.13
   2   7  -2   42.94    1.21
   7  -9  -2   43.11    1.28
  -7   9   2   40.99    1.16
  -7   9   2   40.89    1.14
  -2  -7   2   41.62    1.20
  -2  -7   2   41.97    1.20
   9  -2   2   41.29    1.72
   9  -2   2   41.63    1.27
  -7   9   2   41.97    1.17
   9  -2   2   41.50    1.15
   9  -2   2   42.12    1.17
   9  -2   2   42.41    1.09
   9  -2   2   41.19    1.11
   9  -2   2   41.18    1.21
   9  -2   2   42.26    1.20
   3   6  -2  117.25    3.74
   6  -9  -2  116.76    2.76
  -9   3  -2  115.39    2.68
   3   6  -2  121.81    2.63
  -9   3  -2  114.59    2.55
  -9   3  -2  122.48    2.70
   3   6  -2  117.12    2.64
   6  -9  -2  119.05    2.57
  -6   9   2  123.19    2.78
   9  -3   2  117.47    2.67
   9  -3   2  119.66    2.58
  -3  -6   2  116.89    2.68
   9  -3   2  121.57    2.59
   9  -3   2  119.17    2.53
  -3  -6   2  120.37    2.71
   9  -3   2  117.99    2.66
   9  -3   2  116.71    2.79
   9  -3   2  117.64    2.53
  -6   9   2  118.05    2.55
   9  -3   2  114.39    3.76
  -6   9   2  120.24    2.61
   4   5  -2   32.25    1.41
   5  -9  -2   33.18    0.97
  -9   4  -2   32.34    0.95
   4   5  -2   32.90    1.00
  -9   4  -2   33.64    1.03
   5  -9  -2   32.60    1.05
  -9   4  -2   33.26    1.01
   4   5  -2   34.10    0.96
  -5   9   2   33.49    1.00
  -4  -5   2   33.32    1.02
   9  -4   2   33.03    1.45
   9  -4   2   34.54    0.99
  -4  -5   2   32.83    1.02
  -5   9   2   35.96    1.07
   9  -4   2   34.50    0.98
   9  -4   2   34.17    1.00
   9  -4   2   35.96    1.09
  -5   9   2   33.66    0.96
   9  -4   2   33.44    1.00
   9  -4   2   33.34    1.02
   9  -4   2   33.32    0.90
   4  -9  -2   33.19    0.96
  -9   5  -2   33.88    1.03
   4  -9  -2   32.61    1.04
   5   4  -2   32.48    1.40
   5   4  -2   33.79    0.92
  -9   5  -2   33.16    1.01
  -9   5  -2   32.97    0.99
   5   4  -2   31.80    0.98
   4  -9  -2   32.33    1.27
  -9   5  -2   30.60    0.94
  -5  -4   2   33.58    1.02
   9  -5   2   35.31    1.03
  -4   9   2   32.92    0.95
   9  -5   2   32.52    1.05
  -4   9   2   34.19    1.01
  -4   9   2   34.05    1.04
   9  -5   2   33.87    1.44
   9  -5   2   33.39    1.00
   9  -5   2   34.08    1.02
   9  -5   2   32.83    0.98
   9  -5   2   33.41    0.96
   9  -5   2   33.81    0.90
  -5  -4   2   34.05    1.03
   9  -5   2   34.13    0.98
   3  -9  -2  116.37    2.72
   6   3  -2  114.36    2.48
  -9   6  -2  115.72    2.70
  -9   6  -2  116.66    2.65
  -9   6  -2  118.55    2.64
   3  -9  -2  114.61    3.35
  -9   6  -2  115.80    2.56
   3  -9  -2  115.46    2.51
   6   3  -2  114.39    2.59
   6   3  -2  117.09    3.69
  -6  -3   2  117.65    2.66
   9  -6   2  119.31    3.72
   9  -6   2  115.74    2.72
   9  -6   2  117.87    2.50
   9  -6   2  118.65    2.55
   9  -6   2  116.34    2.64
   9  -6   2  117.69    2.52
  -3   9   2  118.69    2.61
   9  -6   2  115.03    2.57
  -3   9   2  119.14    2.72
   9  -6   2  118.14    2.63
  -3   9   2  116.91    2.61
  -6  -3   2  119.10    2.71
   9  -6   2  117.51    2.62
  -3   9   2  117.98    2.50
  -9   7  -2   43.71    1.27
   2  -9  -2   44.47    1.19
  -9   7  -2   45.71    1.22
   7   2  -2   48.29    1.77
   7   2  -2   43.08    1.16
   2  -9  -2   45.83    1.29
  -9   7  -2   45.37    1.23
   2  -9  -2   43.76    1.59
   7   2  -2   46.12    1.23
  -9   7  -2   44.18    1.24
  -2   9   2   42.97    1.22
  -2   9   2   44.64    1.24
  -7  -2   2   44.05    1.28
  -2   9   2   44.25    1.27
  -2   9   2   42.64    1.14
   9  -7   2   43.54    1.23
   9  -7   2   44.77    1.13
  -7  -2   2   42.89    1.25
   9  -7   2   44.67    1.23
   9  -7   2   42.87    1.22
   9  -7   2   44.21    1.17
   9  -7   2   44.34    1.24
   9  -7   2   44.01    1.74
   9  -7   2   42.23    1.21
   9  -7   2   44.73    1.28
  -9   8  -2   27.16    0.91
  -9   8  -2   26.52    0.94
   1  -9  -2   25.79    1.16
   8   1  -2   22.67    1.19
  -9   8  -2   27.59    0.89
   8   1  -2   28.42    0.89
   8   1  -2   28.39    0.87
   1  -9  -2   27.59    0.94
  -9   8  -2   28.13    0.92
  -1   9   2   29.00    0.93
   9  -8   2   28.47    0.82
   9  -8   2   28.66    0.93
  -8  -1   2   29.12    0.95
  -1   9   2   28.94    0.94
   9  -8   2   29.16    0.92
   9  -8   2   28.47    1.28
  -1   9   2   27.88    0.86
   9  -8   2   28.07    0.91
   9  -8   2   28.11    0.85
   9  -8   2   28.77    0.92
   9  -8   2   27.88    0.91
  -1   9   2   28.99    0.94
  -8  -1   2   29.68    0.97
   9   0  -2  103.23    2.18
   9   0  -2  103.59    2.26
  -9   9  -2  100.72    2.46
  -9   9  -2   99.91    2.30
   9   0  -2  103.27    2.37
   0  -9  -2   99.81    3.04
   9   0  -2   83.62    3.18
  -9   9  -2  102.42    2.35
   9   0  -2   99.30    2.28
   0  -9  -2  102.61    2.43
  -9   9  -2   99.89    2.35
   0   9   2   98.83    2.39
  -9   0   2  100.38    2.38
   9  -9   2  100.20    2.32
   9  -9   2   99.12    3.28
   0   9   2   99.85    2.40
   0   9   2   98.89    2.33
  -9   0   2  102.71    2.45
   9  -9   2  101.15    2.30
   0   9   2   98.81    2.21
   9  -9   2  101.10    2.34
   9  -9   2  101.39    2.35
   9  -9   2   99.23    2.23
   9  -9   2   93.84    2.36
  -1  -9  -2   24.45    1.17
  10  -1  -2   26.86    0.92
  10  -1  -2   26.95    0.85
  -9  10  -2   26.84    0.91
  -9  10  -2   25.12    0.89
  10  -1  -2   26.08    0.87
  -9  10  -2   27.05    0.98
  -9  10  -2   26.36    0.90
  -1  -9  -2   27.33    0.95
 -10   1   2   25.29    0.91
   1   9   2   25.57    0.90
   9 -10   2   26.28    0.91
   1   9   2   26.04    0.84
   1   9   2   25.27    0.90
   1   9   2   26.35    0.95
 -10   1   2   26.74    0.96
   9 -10   2   26.24    0.89
   9 -10   2   26.97    0.92
   9 -10   2   26.63    0.83
   9 -10   2   27.99    0.91
   9 -10   2   24.94    1.23
  -9  11  -2   14.90    0.66
  -9  11  -2   16.15    0.70
  11  -2  -2   15.95    0.65
  -9  11  -2   15.17    0.68
  11  -2  -2   15.05    0.66
  11  -2  -2   15.22    0.69
  -2  -9  -2   15.42    0.89
  -9  11  -2   14.70    0.72
  -9  11  -2   15.27    0.66
 -11   2   2   16.54    0.75
   2   9   2   15.99    0.69
   9 -11   2   15.75    0.93
 -11   2   2   16.62    0.71
   9 -11   2   16.61    0.70
   9 -11   2   16.17    0.68
   9 -11   2   15.56    0.69
   2   9   2   16.68    0.71
   9 -11   2   16.37    0.68
   2   9   2   16.44    0.73
   2   9   2   16.40    0.65
   9 -11   2   16.31    0.62
  -9  12  -2   29.46    1.03
  -9  12  -2   30.48    1.04
  12  -3  -2   32.47    1.11
  -3  -9  -2   29.68    1.34
  -9  12  -2   29.40    1.09
  12  -3  -2   30.92    1.02
  12  -3  -2   29.78    0.99
  -9  12  -2   30.22    1.01
  -9  12  -2   30.69    0.98
   3   9   2   28.59    1.46
   3   9   2   28.97    0.94
   9 -12   2   30.83    0.95
   3   9   2   30.34    1.03
   3   9   2   28.72    1.00
   9 -12   2   30.05    1.00
   9 -12   2   29.49    0.99
 -12   3   2   27.95    1.09
   3   9   2   29.94    1.08
   3   9   2   28.99    1.03
 -12   3   2   29.52    1.03
  13  -4  -2    6.85    0.47
  13  -4  -2    6.71    0.50
  13  -4  -2    7.00    0.47
  -9  13  -2    7.53    0.52
  -9  13  -2    6.48    0.47
  -9  13  -2    6.69    0.48
  -4  -9  -2    6.98    0.61
 -13   4   2    5.76    0.44
 -13   4   2    6.38    0.51
   4   9   2    5.53    0.44
   4   9   2    6.31    0.47
   9 -13   2    6.98    0.42
   4   9   2    5.73    0.48
   4   9   2    6.12    0.43
   4   9   2    6.24    0.45
   4   9   2    6.82    0.70
  14  -5  -2   10.82    0.66
  -9  14  -2   10.94    0.63
  14  -5  -2   11.00    0.62
  -5  -9  -2   11.57    0.82
  -9  14  -2   12.32    0.69
  -9  14  -2   11.31    0.64
  14  -5  -2   12.03    0.64
   9 -14   2   11.41    0.57
   5   9   2   10.74    0.63
   5   9   2   12.01    0.63
 -14   5   2   11.98    0.70
   5   9   2   10.61    0.66
  -9  15  -2   25.29    1.03
  15  -6  -2   24.66    1.09
  15  -6  -2   26.08    1.02
  15  -6  -2   25.81    1.02
  -9  15  -2   26.48    1.08
  -9  15  -2   25.38    1.02
   6   9   2   27.62    1.08
   6   9   2   26.10    1.09
 -15   6   2   25.80    1.12
  -9  16  -2    5.25    0.49
  16  -7  -2    5.20    0.48
  16  -7  -2    5.35    0.52
  -9  16  -2    5.89    0.49
  16  -7  -2    5.54    0.49
  -9  16  -2    5.13    0.48
   7   9   2    5.50    0.51
   7   9   2    4.68    0.47
 -16   7   2    4.85    0.50
  -9  17  -2    9.59    0.65
  17  -8  -2    9.23    0.62
  17  -8  -2    8.72    0.63
  -9  17  -2    8.88    0.63
  17  -8  -2    8.89    0.67
   8   9   2    7.15    0.60
 -17   8   2    8.25    0.65
   8   9   2    7.76    0.63
  18  -9  -2   16.61    0.88
  -9  18  -2   17.19    0.91
  18  -9  -2   16.03    0.87
 -18   9   2   17.96    0.99
   9   9   2   18.53    0.97
   9   9   2   17.99    0.95
  -8  18  -2   12.56    0.75
  18 -10  -2   11.50    0.73
  18 -10  -2   11.59    0.74
  -8  18  -2   12.46    0.77
  10   8   2   11.76    0.77
 -18  10   2   12.04    0.82
  10   8   2   11.66    0.78
  17 -10  -2    1.49    0.32
  -7  17  -2    1.38    0.32
  17 -10  -2    1.15    0.30
  -7  17  -2    1.19    0.28
  10   7   2    0.78    0.29
  10   7   2    1.21    0.31
 -17  10   2    0.79    0.29
  16 -10  -2    3.44    0.43
  16 -10  -2    2.85    0.44
  -6  16  -2    2.81    0.39
  16 -10  -2    2.67    0.40
  -6  16  -2    2.76    0.41
 -10  -6  -2    2.95    0.41
  10   6   2    3.34    0.43
  10   6   2    3.17    0.45
 -16  10   2    2.65    0.42
  10   6   2    3.15    0.45
  15 -10  -2    5.01    0.45
  15 -10  -2    4.65    0.48
  -5  15  -2    5.05    0.47
  15 -10  -2    4.91    0.46
 -10  -5  -2    5.02    0.45
  -5  15  -2    4.83    0.42
  10   5   2    4.87    0.48
  10   5   2    5.72    0.49
  10   5   2    5.09    0.45
 -15  10   2    4.40    0.47
  10   5   2    5.12    0.47
  14 -10  -2    1.22    0.28
  -4  14  -2    1.78    0.30
  -4  14  -2    1.59    0.30
  14 -10  -2    1.42    0.30
  -4  14  -2    1.95    0.31
 -10  -4  -2    1.29    0.28
  14 -10  -2    1.57    0.33
  10   4   2    1.77    0.33
  10   4   2    1.37    0.31
  10   4   2    1.60    0.31
 -14  10   2    1.45    0.31
   4 -14   2    1.54    0.26
  10   4   2    1.31    0.28
  10   4   2    1.45    0.25
 -10  -3  -2   15.71    0.75
  -3  13  -2   14.47    0.73
  13 -10  -2   15.67    0.80
  13 -10  -2   16.52    0.72
  13 -10  -2   15.56    0.74
  -3  13  -2   15.18    0.72
  -3  13  -2   16.17    0.69
  10   3   2   14.70    0.77
  10   3   2   14.55    0.64
  10   3   2   14.99    0.77
   3 -13   2   15.83    0.72
  10   3   2   16.22    0.77
  10   3   2   15.02    0.72
 -13  10   2   15.71    0.79
  -2  12  -2   15.39    0.69
  12 -10  -2   14.18    0.69
  12 -10  -2   14.97    0.66
 -10  -2  -2   14.66    0.70
  -2  12  -2   14.74    0.68
 -10  -2  -2   14.75    0.86
  12 -10  -2   14.46    0.75
  -2  12  -2   14.96    0.97
  -2  12  -2   14.90    0.71
  10   2   2   13.93    0.73
  10   2   2   14.39    0.73
 -12  10   2   14.51    0.72
   2 -12   2   14.34    0.67
  10   2   2   13.63    0.63
  10   2   2   14.64    0.70
  10   2   2   14.96    0.62
  10   2   2   14.51    0.69
 -10  -1  -2    4.82    0.47
 -10  -1  -2    4.23    0.34
  -1  11  -2    4.90    0.37
  -1  11  -2    4.64    0.39
  -1  11  -2    4.76    0.54
  11 -10  -2    4.76    0.40
  -1  11  -2    4.51    0.39
 -10  -1  -2    4.29    0.38
  11 -10  -2    4.64    0.37
  11 -10  -2    4.27    0.38
   1 -11   2    3.89    0.36
  10   1   2    3.96    0.39
  10   1   2    3.76    0.31
  10   1   2    4.05    0.35
  10   1   2    3.91    0.36
  10   1   2    3.76    0.36
  10   1   2    3.76    0.38
  10   1   2    3.55    0.50
 -11  10   2    4.32    0.39
  10 -10  -2   21.34    0.74
  10 -10  -2   21.18    0.81
   0  10  -2   20.78    0.82
 -10   0  -2   22.24    1.03
 -10   0  -2   22.27    0.75
   0  10  -2   21.40    0.81
   0  10  -2   22.47    1.18
 -10   0  -2   19.89    0.81
  10 -10  -2   21.76    0.89
   0  10  -2   21.97    0.82
  10   0   2   21.07    0.81
 -10  10   2   21.19    0.84
   0 -10   2   20.84    0.81
  10   0   2   19.53    0.79
  10   0   2   19.61    0.70
  10   0   2   21.07    0.77
  10   0   2   20.07    0.84
 -10  10   2   20.47    0.78
  10   0   2   20.63    0.86
  10   0   2   19.56    1.16
 -10   1  -2   25.82    0.92
   1   9  -2   26.16    0.91
 -10   1  -2   26.94    0.85
   1   9  -2   26.43    0.91
   1   9  -2   25.95    1.29
   9 -10  -2   26.13    0.97
   1   9  -2   25.13    0.90
 -10   1  -2   26.03    1.13
   9 -10  -2   25.80    0.80
   9 -10  -2   25.30    0.87
  -9  10   2   25.60    0.91
  10  -1   2   24.70    0.96
  10  -1   2   26.07    0.94
  10  -1   2   24.94    0.88
  -9  10   2   24.96    0.87
  10  -1   2   26.23    0.91
  -1  -9   2   25.41    0.91
  10  -1   2   25.00    0.85
  10  -1   2   25.01    1.32
  -9  10   2   24.77    0.86
 -10   2  -2    3.18    0.29
 -10   2  -2    3.37    0.30
 -10   2  -2    3.48    0.40
   2   8  -2    3.55    0.32
 -10   2  -2    2.78    0.33
   2   8  -2    3.53    0.32
   8 -10  -2    3.49    0.34
   8 -10  -2    3.60    0.32
   2   8  -2    3.44    0.44
   2   8  -2    3.20    0.32
  -8  10   2    3.30    0.32
  10  -2   2    3.16    0.31
  -8  10   2    3.06    0.31
  10  -2   2    3.46    0.33
  10  -2   2    3.34    0.33
  -2  -8   2    3.27    0.32
  10  -2   2    3.20    0.30
  -2  -8   2    3.41    0.31
  10  -2   2    3.19    0.26
  10  -2   2    3.76    0.33
  10  -2   2    3.03    0.42
  10  -2   2    3.21    0.34
 -10   3  -2   11.58    0.52
   7 -10  -2   12.65    0.62
   3   7  -2   12.29    0.56
 -10   3  -2   12.22    0.58
   7 -10  -2   11.98    0.55
 -10   3  -2   12.60    0.74
 -10   3  -2   12.84    0.56
   3   7  -2   12.31    0.81
   3   7  -2   11.61    0.57
  -7  10   2   13.03    0.59
  10  -3   2   12.87    0.55
  10  -3   2   12.69    0.57
  10  -3   2   14.02    0.60
  -3  -7   2   13.90    0.60
  -7  10   2   12.19    0.54
  10  -3   2   13.03    0.51
  10  -3   2   12.08    0.83
  10  -3   2   13.10    0.60
  -3  -7   2   12.85    0.60
  10  -3   2   13.03    0.57
  10  -3   2   13.02    0.63
 -10   4  -2    8.91    0.45
 -10   4  -2    9.21    0.49
   6 -10  -2    8.71    0.50
   6 -10  -2    8.55    0.46
   4   6  -2    9.38    0.69
 -10   4  -2    9.27    0.50
   4   6  -2    8.57    0.48
   4   6  -2    9.04    0.46
  10  -4   2    9.22    0.49
  -6  10   2   10.14    0.49
  10  -4   2    9.48    0.48
  10  -4   2    9.54    0.54
  10  -4   2    9.95    0.49
  -4  -6   2   10.18    0.52
  10  -4   2    9.35    0.42
  10  -4   2    9.02    0.48
  -4  -6   2    9.53    0.49
  10  -4   2    9.14    0.70
  10  -4   2    9.17    0.50
  -6  10   2    9.41    0.50
  -6  10   2   10.02    0.52
 -10   5  -2    0.11    0.13
   5 -10  -2    0.19    0.13
 -10   5  -2    0.05    0.11
   5   5  -2    0.05    0.16
 -10   5  -2    0.05    0.11
   5   5  -2    0.02    0.12
   5   5  -2    0.09    0.11
   5 -10  -2    0.24    0.14
  10  -5   2    0.03    0.12
  -5  10   2   -0.01    0.12
  10  -5   2    0.02    0.13
  -5  10   2    0.28    0.14
  10  -5   2   -0.05    0.11
  10  -5   2    0.10    0.12
  10  -5   2    0.01    0.12
  10  -5   2    0.07    0.10
  10  -5   2   -0.01    0.12
  -5  10   2    0.09    0.12
  10  -5   2    0.03    0.17
  -5  10   2    0.03    0.12
  -5  -5   2   -0.03    0.12
  -5  -5   2    0.00    0.12
   4 -10  -2    8.61    0.50
   6   4  -2    9.61    0.71
   6   4  -2    9.49    0.49
 -10   6  -2    9.98    0.51
 -10   6  -2    9.28    0.49
 -10   6  -2    9.13    0.48
   4 -10  -2    9.39    0.47
   6   4  -2    9.09    0.45
 -10   6  -2    8.99    0.47
  -4  10   2   10.14    0.49
  10  -6   2    9.77    0.43
  10  -6   2    9.30    0.51
  -6  -4   2    9.69    0.51
  10  -6   2    9.53    0.50
  -4  10   2    9.81    0.51
  10  -6   2    9.01    0.49
  10  -6   2   10.06    0.50
  -4  10   2    9.02    0.46
  -4  10   2    9.85    0.50
  10  -6   2    9.96    0.72
  10  -6   2    9.56    0.49
  10  -6   2    9.75    0.51
  -6  -4   2    9.39    0.52
  10  -6   2   10.22    0.50
   3 -10  -2   11.26    0.71
   3 -10  -2   12.56    0.60
 -10   7  -2   12.38    0.60
 -10   7  -2   11.61    0.54
   7   3  -2   11.54    0.55
   7   3  -2   11.45    0.52
 -10   7  -2   12.35    0.57
   7   3  -2   12.34    0.80
   3 -10  -2   12.16    0.54
 -10   7  -2   11.84    0.57
  10  -7   2   12.59    0.49
  10  -7   2   12.39    0.81
  -7  -3   2   13.18    0.60
  -3  10   2   12.00    0.52
  10  -7   2   11.80    0.59
  10  -7   2   12.02    0.57
  10  -7   2   11.78    0.56
  10  -7   2   12.13    0.57
  -3  10   2   12.37    0.58
  10  -7   2   12.06    0.55
  -3  10   2   11.66    0.57
  -3  10   2   11.50    0.55
  10  -7   2   12.71    0.56
  -7  -3   2   11.97    0.58
  10  -7   2   12.73    0.58
 -10   8  -2    2.84    0.34
 -10   8  -2    2.75    0.31
   8   2  -2    3.17    0.42
   8   2  -2    3.49    0.30
 -10   8  -2    3.28    0.31
   8   2  -2    2.99    0.30
   2 -10  -2    3.36    0.41
   2 -10  -2    2.93    0.32
 -10   8  -2    3.10    0.31
   2 -10  -2    2.91    0.34
  -2  10   2    3.37    0.32
  10  -8   2    3.14    0.30
  -2  10   2    2.97    0.30
  -8  -2   2    2.84    0.34
  10  -8   2    3.40    0.43
  10  -8   2    2.78    0.33
  10  -8   2    2.95    0.30
  -2  10   2    2.77    0.32
  -2  10   2    3.07    0.34
  -8  -2   2    3.46    0.33
  10  -8   2    2.84    0.25
  10  -8   2    3.30    0.31
  10  -8   2    2.98    0.31
  10  -8   2    2.91    0.31
   9   1  -2   27.33    1.30
   1 -10  -2   26.93    1.20
 -10   9  -2   27.04    0.91
   9   1  -2   27.45    0.91
   9   1  -2   27.20    0.87
 -10   9  -2   26.78    0.90
 -10   9  -2   25.27    0.95
   1 -10  -2   26.89    0.94
 -10   9  -2   25.88    0.91
  -1  10   2   26.39    0.85
  -9  -1   2   25.54    0.94
  10  -9   2   27.33    0.91
  10  -9   2   25.41    0.81
  10  -9   2   25.19    0.84
  10  -9   2   26.18    0.93
  -1  10   2   26.44    0.93
  -1  10   2   27.62    0.94
  10  -9   2   25.96    1.27
  10  -9   2   26.32    0.92
  10  -9   2   26.01    0.90
  -9  -1   2   26.28    0.95
  10  -9   2   26.19    0.90
  -1  10   2   26.43    0.94
 -10  10  -2   21.57    0.81
 -10  10  -2   20.51    0.84
  10   0  -2   21.39    1.12
   0 -10  -2   21.16    1.06
  10   0  -2   21.44    0.79
   0 -10  -2   22.14    0.84
  10   0  -2   22.38    0.80
 -10  10  -2   21.04    0.80
 -10  10  -2   21.30    0.80
  10 -10   2   20.94    0.79
 -10   0   2   20.50    0.83
   0  10   2   19.81    0.80
   0  10   2   19.15    0.72
  10 -10   2   20.67    0.72
  10 -10   2   19.98    0.80
 -10   0   2   20.99    0.85
   0  10   2   20.38    0.80
  10 -10   2   20.52    0.79
  10 -10   2   19.95    1.09
   0  10   2   20.74    0.84
  10 -10   2   20.37    0.78
 -10  11  -2    4.51    0.38
  11  -1  -2    4.76    0.35
  11  -1  -2    4.72    0.37
 -10  11  -2    4.84    0.41
  11  -1  -2    4.55    0.37
 -10  11  -2    5.12    0.40
 -10  11  -2    4.41    0.38
  -1 -10  -2    4.07    0.46
  -1 -10  -2    4.97    0.39
 -10  11  -2    4.69    0.38
  11  -1  -2    4.25    0.36
 -11   1   2    4.16    0.38
   1  10   2    4.17    0.39
  10 -11   2    3.28    0.34
   1  10   2    4.39    0.38
   1  10   2    3.98    0.34
  10 -11   2    3.96    0.36
  10 -11   2    4.24    0.49
  10 -11   2    4.59    0.39
   1  10   2    4.03    0.36
  10 -11   2    3.95    0.36
 -11   1   2    4.09    0.39
  10 -11   2    3.70    0.31
  12  -2  -2   15.43    0.72
 -10  12  -2   15.04    0.70
 -10  12  -2   14.78    0.67
  12  -2  -2   13.67    0.66
  -2 -10  -2   15.47    0.73
  12  -2  -2   15.39    0.66
 -10  12  -2   15.05    0.75
 -10  12  -2   16.10    0.71
  -2 -10  -2   15.40    0.93
  10 -12   2   15.84    0.69
  10 -12   2   15.39    0.63
  10 -12   2   14.14    0.69
   2  10   2   15.78    0.71
   2  10   2   15.42    0.74
 -12   2   2   14.29    0.74
 -12   2   2   15.05    0.72
  10 -12   2   15.70    0.70
   2  10   2   15.41    0.71
  13  -3  -2   15.78    0.76
  13  -3  -2   15.15    0.71
  13  -3  -2   16.09    0.70
 -10  13  -2   15.74    0.73
 -10  13  -2   15.40    0.72
 -10  13  -2   14.74    0.76
  -3 -10  -2   15.14    0.95
   3  10   2   13.91    0.70
 -13   3   2   14.57    0.72
 -13   3   2   14.70    0.77
  10 -13   2   15.01    0.64
   3  10   2   14.83    0.75
 -10  14  -2    1.71    0.30
  14  -4  -2    1.38    0.29
  14  -4  -2    1.79    0.30
  -4 -10  -2    1.59    0.39
 -10  14  -2    1.60    0.30
 -10  14  -2    1.31    0.29
  14  -4  -2    1.58    0.31
  10 -14   2    1.42    0.25
 -14   4   2    1.76    0.31
   4  10   2    1.54    0.29
 -14   4   2    1.71    0.33
   4  10   2    1.85    0.33
 -10  15  -2    4.55    0.44
 -10  15  -2    4.22    0.43
  15  -5  -2    4.60    0.43
  15  -5  -2    3.99    0.48
  15  -5  -2    4.29    0.48
 -10  15  -2    4.78    0.46
   5  10   2    5.11    0.44
   5  10   2    4.96    0.46
   5  10   2    5.42    0.50
 -15   5   2    4.63    0.47
  16  -6  -2    3.46    0.45
 -10  16  -2    3.00    0.42
 -10  16  -2    3.05    0.42
  16  -6  -2    2.77    0.40
  16  -6  -2    2.80    0.42
 -16   6   2    2.96    0.45
   6  10   2    3.29    0.45
   6  10   2    3.12    0.45
 -10  17  -2    1.55    0.33
 -10  17  -2    1.14    0.31
  17  -7  -2    1.09    0.32
  17  -7  -2    0.93    0.28
  17  -7  -2    1.23    0.31
 -10  17  -2    0.99    0.28
   7  10   2    0.98    0.30
   7  10   2    1.01    0.31
 -17   7   2    0.75    0.28
  18  -8  -2   12.58    0.76
 -10  18  -2   12.05    0.75
  18  -8  -2   12.99    0.78
 -10  18  -2   12.82    0.77
   8  10   2   13.12    0.82
   8  10   2   13.06    0.81
  -7  18  -2    3.95    0.51
  18 -11  -2    3.80    0.51
  18 -11  -2    4.12    0.51
  -7  18  -2    4.25    0.51
 -18  11   2    4.17    0.55
  11   7   2    4.29    0.56
  11   7   2    3.52    0.49
  17 -11  -2    5.39    0.52
  17 -11  -2    5.20    0.48
 -11  -6  -2    4.50    0.46
  -6  17  -2    5.37    0.49
  -6  17  -2    4.74    0.49
  11   6   2    4.41    0.55
 -17  11   2    4.29    0.55
  11   6   2    4.14    0.52
  -5  16  -2    3.99    0.45
  16 -11  -2    3.29    0.44
 -11  -5  -2    3.93    0.47
  16 -11  -2    2.55    0.43
  -5  16  -2    3.43    0.46
  16 -11  -2    2.89    0.41
  11   5   2    3.29    0.43
  11   5   2    3.81    0.50
 -16  11   2    3.35    0.47
  11   5   2    3.47    0.47
  11   5   2    3.19    0.45
  15 -11  -2   24.35    0.98
  -4  15  -2   24.70    1.04
 -11  -4  -2   24.25    1.02
  15 -11  -2   24.82    1.02
  11   4   2   25.53    1.08
  11   4   2   24.77    1.04
  11   4   2   22.90    1.04
 -15  11   2   23.43    1.07
  11   4   2   23.33    0.96
  -3  14  -2   20.05    0.85
  14 -11  -2   20.20    0.84
 -11  -3  -2   20.74    0.90
  14 -11  -2   19.13    0.86
  14 -11  -2   19.15    0.94
  -3  14  -2   20.04    0.90
  11   3   2   19.51    0.88
  11   3   2   18.87    0.91
  11   3   2   18.55    0.90
  11   3   2   18.40    0.84
  11   3   2   19.77    0.77
 -14  11   2   18.99    0.91
  13 -11  -2    3.28    0.38
  13 -11  -2    3.47    0.41
  -2  13  -2    3.07    0.40
 -11  -2  -2    2.95    0.39
  -2  13  -2    2.96    0.38
  13 -11  -2    3.77    0.45
  11   2   2    3.31    0.44
  11   2   2    3.41    0.41
  11   2   2    3.03    0.31
  11   2   2    3.25    0.43
 -13  11   2    3.51    0.43
  11   2   2    3.60    0.42
   2 -13   2    3.72    0.36
  12 -11  -2   33.03    1.13
  12 -11  -2   32.63    1.22
  -1  12  -2   34.01    1.14
  12 -11  -2   34.80    1.08
  -1  12  -2   33.40    1.18
 -11  -1  -2   32.48    1.17
   1 -12   2   34.71    1.15
  11   1   2   34.57    1.06
  11   1   2   33.69    1.20
  11   1   2   34.41    1.15
  11   1   2   35.84    1.18
 -12  11   2   32.58    1.19
  11   1   2   33.21    1.23
   0  11  -2   27.81    1.00
 -11   0  -2   27.83    0.89
  11 -11  -2   27.45    0.89
  11 -11  -2   27.51    0.97
  11 -11  -2   27.52    1.05
 -11   0  -2   27.66    1.01
   0  11  -2   29.05    1.00
   0  11  -2   29.17    1.42
  11   0   2   24.90    0.99
  11   0   2   25.39    0.90
  11   0   2   23.70    1.01
 -11  11   2   24.61    0.97
  11   0   2   26.03    0.96
  11   0   2   25.00    0.86
   0 -11   2   24.13    0.94
  11   0   2   26.11    0.96
 -11  11   2   24.71    0.91
   1  10  -2    4.38    0.36
   1  10  -2    4.72    0.53
 -11   1  -2    4.46    0.39
   1  10  -2    4.79    0.39
 -11   1  -2    4.82    0.36
  10 -11  -2    4.19    0.38
  10 -11  -2    4.41    0.41
   1  10  -2    5.27    0.41
 -11   1  -2    4.42    0.46
  11  -1   2    3.69    0.50
  -1 -10   2    3.97    0.37
  11  -1   2    3.86    0.39
  11  -1   2    3.89    0.38
  11  -1   2    4.71    0.37
  11  -1   2    4.53    0.40
  11  -1   2    4.25    0.37
 -10  11   2    4.30    0.38
  11  -1   2    3.90    0.31
 -10  11   2    4.09    0.38
 -11   2  -2   14.69    0.68
   2   9  -2   14.94    0.67
   2   9  -2   14.44    0.65
   2   9  -2   14.27    0.94
 -11   2  -2   14.62    0.61
   9 -11  -2   13.87    0.69
   2   9  -2   13.54    0.66
 -11   2  -2   14.07    0.82
   9 -11  -2   14.82    0.65
  11  -2   2   14.94    0.73
  11  -2   2   14.65    0.65
  11  -2   2   14.60    0.69
  -9  11   2   15.23    0.67
  11  -2   2   14.92    0.59
  11  -2   2   14.63    0.62
  -9  11   2   15.11    0.66
  11  -2   2   14.93    0.63
  11  -2   2   14.66    0.68
  -2  -9   2   15.10    0.68
  11  -2   2   15.41    1.00
   3   8  -2   27.62    0.94
 -11   3  -2   27.11    0.89
   8 -11  -2   27.40    0.93
 -11   3  -2   27.05    1.20
 -11   3  -2   28.40    0.95
 -11   3  -2   26.68    0.97
   3   8  -2   27.79    1.38
   3   8  -2   27.22    0.96
   8 -11  -2   28.21    1.02
  11  -3   2   27.29    1.03
  11  -3   2   27.90    1.40
  11  -3   2   28.67    0.97
  11  -3   2   28.88    0.93
  11  -3   2   28.66    0.95
  -3  -8   2   28.79    0.96
  -8  11   2   27.91    0.93
  11  -3   2   28.39    0.87
  11  -3   2   29.80    0.93
  -8  11   2   27.26    0.95
  -3  -8   2   28.65    0.99
  11  -3   2   29.29    1.01
   4   7  -2    3.55    0.31
   7 -11  -2    3.03    0.36
 -11   4  -2    3.26    0.30
   4   7  -2    3.20    0.33
 -11   4  -2    3.16    0.32
 -11   4  -2    3.53    0.33
   4   7  -2    3.23    0.43
   7 -11  -2    3.47    0.32
  11  -4   2    3.16    0.38
  11  -4   2    3.40    0.32
  -7  11   2    2.76    0.31
  -4  -7   2    3.05    0.36
  -7  11   2    3.07    0.35
  11  -4   2    3.07    0.30
  11  -4   2    3.24    0.27
  -4  -7   2    3.56    0.33
  11  -4   2    2.96    0.35
  11  -4   2    3.63    0.46
  11  -4   2    2.89    0.30
  11  -4   2    3.06    0.35
 -11   5  -2   36.01    1.14
   5   6  -2   35.37    1.12
   5   6  -2   35.01    1.58
   6 -11  -2   36.00    1.07
   5   6  -2   35.61    1.05
   6 -11  -2   34.97    1.14
 -11   5  -2   36.16    1.05
 -11   5  -2   36.01    1.13
  11  -5   2   35.62    1.08
  11  -5   2   33.84    1.06
  -5  -6   2   33.91    1.11
  11  -5   2   34.88    1.00
  11  -5   2   34.97    1.18
  -6  11   2   34.81    1.11
  -6  11   2   34.59    1.04
  11  -5   2   34.27    1.08
  11  -5   2   35.50    1.12
  11  -5   2   34.40    1.06
  -6  11   2   34.33    1.13
  11  -5   2   34.07    1.56
  -5  -6   2   35.24    1.11
   5 -11  -2   34.55    1.13
   6   5  -2   35.05    1.09
 -11   6  -2   34.72    1.11
 -11   6  -2   34.95    1.12
   6   5  -2   35.29    1.57
   6   5  -2   34.36    1.00
 -11   6  -2   36.13    1.08
 -11   6  -2   33.43    1.04
   5 -11  -2   33.27    1.02
  -5  11   2   35.18    1.12
  11  -6   2   34.05    1.06
  -5  11   2   32.68    1.08
  11  -6   2   34.75    1.07
  11  -6   2   34.16    0.98
  11  -6   2   33.63    1.15
  11  -6   2   35.13    1.07
  -6  -5   2   35.20    1.12
  -5  11   2   33.88    1.02
  11  -6   2   34.40    1.10
  11  -6   2   34.13    1.06
  -6  -5   2   33.46    1.11
  11  -6   2   33.40    1.53
 -11   7  -2    2.50    0.33
 -11   7  -2    2.96    0.30
   4 -11  -2    3.23    0.31
   7   4  -2    3.50    0.34
   4 -11  -2    2.77    0.34
   7   4  -2    3.60    0.46
 -11   7  -2    2.95    0.30
 -11   7  -2    3.54    0.33
   7   4  -2    2.93    0.29
  11  -7   2    2.87    0.26
  11  -7   2    3.82    0.35
  11  -7   2    2.52    0.32
  -4  11   2    2.73    0.30
  11  -7   2    3.53    0.33
  -7  -4   2    3.11    0.32
  -4  11   2    3.05    0.31
  11  -7   2    3.28    0.34
  -7  -4   2    3.12    0.33
  -4  11   2    2.83    0.32
  11  -7   2    2.89    0.33
  -4  11   2    3.04    0.35
  11  -7   2    3.32    0.31
  11  -7   2    2.80    0.33
  11  -7   2    3.11    0.44
   8   3  -2   29.05    0.92
 -11   8  -2   28.57    0.96
 -11   8  -2   26.63    1.00
   8   3  -2   27.89    0.97
   8   3  -2   28.71    1.39
 -11   8  -2   28.87    0.96
 -11   8  -2   28.16    0.98
   3 -11  -2   29.11    0.94
   3 -11  -2   28.68    1.01
  -3  11   2   30.02    1.00
  -8  -3   2   29.13    1.01
  11  -8   2   28.90    0.99
  -3  11   2   29.17    0.99
  -3  11   2   29.24    1.00
  11  -8   2   29.78    0.96
  -8  -3   2   30.00    1.03
  11  -8   2   30.31    0.90
  -3  11   2   28.74    0.90
  11  -8   2   30.39    0.99
  11  -8   2   30.41    0.98
  11  -8   2   30.64    1.40
  11  -8   2   28.18    1.03
  11  -8   2   29.00    0.99
 -11   9  -2   15.16    0.67
   9   2  -2   15.21    0.68
 -11   9  -2   15.48    0.68
   9   2  -2   15.51    0.65
 -11   9  -2   14.26    0.71
 -11   9  -2   14.98    0.66
   2 -11  -2   15.59    0.70
   9   2  -2   16.04    0.99
   2 -11  -2   15.52    0.65
   2 -11  -2   15.14    0.90
  11  -9   2   16.05    0.72
  11  -9   2   15.95    0.66
  -9  -2   2   15.15    0.70
  11  -9   2   15.98    0.69
  11  -9   2   16.16    0.69
  -2  11   2   16.37    0.65
  -2  11   2   17.25    0.73
  11  -9   2   16.15    0.62
  -9  -2   2   17.04    0.73
  11  -9   2   15.66    0.67
  11  -9   2   16.77    0.98
  -2  11   2   15.71    0.71
  -2  11   2   16.49    0.70
  11  -9   2   16.48    0.72
  10   1  -2    5.20    0.40
 -11  10  -2    4.42    0.37
 -11  10  -2    4.45    0.39
 -11  10  -2    4.94    0.39
   1 -11  -2    4.95    0.38
   1 -11  -2    5.05    0.41
  10   1  -2    3.02    0.43
   1 -11  -2    4.46    0.49
 -11  10  -2    5.10    0.39
  10   1  -2    4.80    0.38
  11 -10   2    3.77    0.35
  11 -10   2    4.25    0.36
  11 -10   2    3.81    0.48
  11 -10   2    3.92    0.31
  -1  11   2    4.21    0.35
 -10  -1   2    4.01    0.38
  -1  11   2    4.45    0.39
 -10  -1   2    3.79    0.37
  11 -10   2    4.58    0.39
  11 -10   2    4.28    0.37
  -1  11   2    3.97    0.37
  11 -10   2    4.02    0.37
  -1  11   2    4.04    0.37
  11   0  -2   28.92    0.96
  11   0  -2   26.91    0.93
 -11  11  -2   26.77    1.03
 -11  11  -2   28.35    0.96
 -11  11  -2   28.53    0.96
  11   0  -2   26.05    1.32
 -11  11  -2   28.25    0.98
   0 -11  -2   26.16    1.27
  11 -11   2   25.36    0.96
  11 -11   2   23.78    0.84
   0  11   2   23.89    0.94
  11 -11   2   25.85    0.93
  11 -11   2   24.80    0.91
 -11   0   2   25.40    0.99
  11 -11   2   25.63    0.93
 -11   0   2   24.39    0.98
   0  11   2   24.85    0.99
   0  11   2   24.77    0.93
  -1 -11  -2   34.60    1.52
 -11  12  -2   37.33    1.18
  12  -1  -2   34.99    1.12
 -11  12  -2   34.37    1.24
  12  -1  -2   36.41    1.19
 -11  12  -2   34.99    1.14
  12  -1  -2   35.91    1.14
  12  -1  -2   35.79    1.09
 -11  12  -2   34.02    1.15
  11 -12   2   34.78    1.07
  11 -12   2   34.74    1.15
  11 -12   2   35.51    1.16
   1  11   2   33.05    1.15
  11 -12   2   33.66    1.16
 -12   1   2   33.94    1.23
 -12   1   2   32.38    1.17
   1  11   2   34.29    1.22
  13  -2  -2    2.80    0.38
 -11  13  -2    2.83    0.39
  13  -2  -2    2.65    0.35
 -11  13  -2    3.18    0.38
  13  -2  -2    3.06    0.36
  -2 -11  -2    2.81    0.47
 -11  13  -2    2.88    0.38
   2  11   2    2.70    0.39
 -13   2   2    2.38    0.37
 -13   2   2    2.90    0.39
   2  11   2    3.21    0.40
  11 -13   2    3.42    0.32
  11 -13   2    2.84    0.38
  14  -3  -2   20.29    0.83
 -11  14  -2   20.00    0.88
  14  -3  -2   18.68    0.88
 -11  14  -2   20.43    0.87
  14  -3  -2   19.67    0.85
 -14   3   2   18.87    0.92
 -14   3   2   18.75    0.87
   3  11   2   19.13    0.85
   3  11   2   18.34    0.89
  15  -4  -2   24.61    0.99
  15  -4  -2   24.10    1.05
 -11  15  -2   23.52    0.98
 -11  15  -2   24.74    1.01
  15  -4  -2   24.49    0.96
 -11  15  -2   23.94    1.05
 -15   4   2   23.31    1.07
   4  11   2   22.79    1.04
 -15   4   2   24.59    1.02
   4  11   2   24.08    0.98
  16  -5  -2    2.96    0.41
  16  -5  -2    3.27    0.44
 -11  16  -2    3.76    0.46
  16  -5  -2    3.33    0.46
 -11  16  -2    3.24    0.46
 -11  16  -2    2.90    0.41
   5  11   2    3.79    0.49
 -16   5   2    3.66    0.50
  17  -6  -2    4.13    0.53
  17  -6  -2    4.32    0.51
 -11  17  -2    4.73    0.48
 -11  17  -2    4.20    0.51
  17  -6  -2    4.43    0.51
 -11  17  -2    4.75    0.48
   6  11   2    4.80    0.57
 -17   6   2    4.03    0.53
 -11  18  -2    3.31    0.46
 -11  18  -2    3.57    0.49
  18  -7  -2    4.36    0.53
  18  -7  -2    3.77    0.49
 -18   7   2    3.13    0.49
   7  11   2    4.22    0.54
 -12  -6  -2   19.54    0.98
  18 -12  -2   20.57    1.00
  18 -12  -2   19.83    0.97
  -6  18  -2   21.30    1.04
 -18  12   2   19.46    1.06
  12   6   2   21.07    1.03
  12   6   2   21.59    1.07
  17 -12  -2   12.48    0.75
 -12  -5  -2   10.24    0.70
  17 -12  -2   11.97    0.71
  -5  17  -2   10.87    0.72
  12   5   2   11.34    0.70
  12   5   2   11.72    0.78
  12   5   2   11.59    0.74
 -17  12   2   11.59    0.77
  16 -12  -2    0.93    0.27
 -12  -4  -2    0.76    0.26
  -4  16  -2    0.81    0.27
  16 -12  -2    0.90    0.29
  16 -12  -2    0.86    0.27
  12   4   2    1.48    0.31
  12   4   2    1.17    0.32
 -16  12   2    1.19    0.31
  12   4   2    1.44    0.33
  12   4   2    1.08    0.30
  15 -12  -2   34.26    1.28
 -12  -3  -2   37.43    1.34
  15 -12  -2   37.58    1.26
  -3  15  -2   37.74    1.36
  15 -12  -2   35.13    1.40
  -3  15  -2   37.35    1.27
  12   3   2   35.76    1.36
  12   3   2   37.06    1.32
  12   3   2   37.30    1.29
  12   3   2   38.78    1.41
 -15  12   2   35.05    1.36
  -2  14  -2   21.52    0.97
  14 -12  -2   22.95    0.92
  14 -12  -2   22.17    0.95
 -12  -2  -2   23.15    0.98
  14 -12  -2   21.46    1.01
  -2  14  -2   21.71    0.92
  12   2   2   22.23    0.94
 -14  12   2   22.22    0.99
  12   2   2   23.37    0.96
  12   2   2   23.60    1.05
  12   2   2   23.40    1.01
  -1  13  -2   10.15    0.63
  -1  13  -2   10.18    0.61
 -12  -1  -2   10.10    0.62
  13 -12  -2    9.93    0.61
  13 -12  -2    9.86    0.65
  13 -12  -2    9.97    0.57
   1 -13   2    9.66    0.59
  12   1   2    9.64    0.53
  12   1   2   10.70    0.62
  12   1   2   10.42    0.66
  12   1   2   10.10    0.61
  12   1   2    9.93    0.64
 -13  12   2    9.85    0.62
 -12   0  -2   51.46    1.62
  12 -12  -2   51.44    1.54
   0  12  -2   52.74    1.59
  12 -12  -2   50.29    1.66
  12 -12  -2   52.50    1.48
   0  12  -2   52.94    1.63
  12   0   2   60.28    1.65
  12   0   2   58.62    1.63
  12   0   2   57.70    1.69
 -12  12   2   55.95    1.66
  12   0   2   55.66    1.73
   0 -12   2   55.69    1.60
  11 -12  -2   32.77    1.21
  11 -12  -2   33.59    1.12
 -12   1  -2   33.05    1.17
   1  11  -2   33.02    1.14
   1  11  -2   34.07    1.17
 -11  12   2   32.94    1.11
  12  -1   2   32.25    1.18
  12  -1   2   34.55    1.16
 -11  12   2   33.34    1.16
  12  -1   2   33.84    1.04
  12  -1   2   34.58    1.14
  12  -1   2   32.19    1.22
  -1 -11   2   32.52    1.14
 -12   2  -2   14.18    0.70
  10 -12  -2   14.23    0.73
   2  10  -2   16.36    0.73
  10 -12  -2   14.99    0.70
 -12   2  -2   15.41    0.64
   2  10  -2   15.19    0.71
  12  -2   2   14.28    0.60
  12  -2   2   14.06    0.64
  -2 -10   2   13.94    0.68
 -10  12   2   14.53    0.68
  12  -2   2   15.13    0.68
  12  -2   2   13.37    0.72
 -10  12   2   13.67    0.67
  12  -2   2   14.30    0.72
  12  -2   2   14.39    0.70
   3   9  -2   28.49    1.03
   3   9  -2   29.75    1.02
   9 -12  -2   27.90    0.96
 -12   3  -2   30.55    1.02
   3   9  -2   28.07    1.45
   3   9  -2   29.55    1.01
   9 -12  -2   29.06    1.07
 -12   3  -2   30.02    1.06
 -12   3  -2   30.90    0.96
 -12   3  -2   29.46    1.28
  -3  -9   2   29.21    1.04
  12  -3   2   28.23    1.05
  12  -3   2   29.12    1.00
  12  -3   2   29.20    0.97
  12  -3   2   28.27    1.11
  12  -3   2   28.31    1.48
  -9  12   2   26.95    0.96
  -9  12   2   28.38    1.02
  12  -3   2   30.06    1.04
  12  -3   2   28.07    0.96
 -12   4  -2   52.39    1.85
 -12   4  -2   53.06    1.47
 -12   4  -2   52.01    1.38
   8 -12  -2   49.92    1.52
 -12   4  -2   50.68    1.49
   4   8  -2   50.64    1.42
   8 -12  -2   49.28    1.39
   4   8  -2   49.08    2.07
   4   8  -2   50.57    1.47
  -8  12   2   48.58    1.37
  12  -4   2   47.70    2.07
  12  -4   2   48.63    1.56
  -4  -8   2   50.69    1.45
  12  -4   2   48.62    1.38
  12  -4   2   50.16    1.42
  12  -4   2   49.66    1.44
  12  -4   2   48.09    1.32
  12  -4   2   50.45    1.49
  -8  12   2   50.80    1.46
  12  -4   2   47.61    1.37
  -4  -8   2   48.08    1.46
 -12   5  -2   19.34    0.73
 -12   5  -2   18.54    0.77
   7 -12  -2   18.29    0.73
   5   7  -2   18.33    0.77
   5   7  -2   19.90    1.14
   7 -12  -2   19.72    0.82
 -12   5  -2   18.29    0.78
  -7  12   2   17.30    0.71
  12  -5   2   18.50    0.74
  12  -5   2   18.21    0.74
  12  -5   2   17.90    0.77
  12  -5   2   17.57    0.67
  12  -5   2   18.06    1.09
  -5  -7   2   17.34    0.77
  12  -5   2   17.10    0.75
  -7  12   2   16.69    0.76
  12  -5   2   18.30    0.83
  -5  -7   2   18.36    0.76
  12  -5   2   18.54    0.73
   6 -12  -2   32.40    1.03
   6   6  -2   33.54    1.58
 -12   6  -2   32.48    1.03
 -12   6  -2   32.74    1.06
   6   6  -2   33.60    1.00
 -12   6  -2   33.20    1.12
 -12   6  -2   34.28    1.14
   6 -12  -2   31.99    1.11
   6   6  -2   32.91    1.10
  12  -6   2   32.87    0.99
  -6  -6   2   30.86    1.10
  12  -6   2   32.52    1.05
  12  -6   2   33.36    1.08
  12  -6   2   34.08    1.57
  -6  -6   2   34.02    1.11
  -6  12   2   33.41    1.12
  12  -6   2   33.29    1.08
  12  -6   2   32.47    1.17
  12  -6   2   32.67    1.06
  -6  12   2   32.19    1.10
  -6  12   2   32.80    1.02
  12  -6   2   32.77    1.10
 -12   7  -2   19.40    0.75
   7   5  -2   18.63    0.78
   5 -12  -2   18.12    0.73
 -12   7  -2   18.94    0.75
   7   5  -2   18.06    0.70
 -12   7  -2   18.62    0.79
   7   5  -2   18.09    1.09
   5 -12  -2   19.45    0.80
 -12   7  -2   19.26    0.81
  12  -7   2   18.57    0.76
  -5  12   2   17.84    0.78
  12  -7   2   19.01    0.78
  12  -7   2   17.56    0.76
  -7  -5   2   19.41    0.82
  12  -7   2   18.58    1.09
  -5  12   2   18.23    0.77
  -7  -5   2   19.00    0.79
  12  -7   2   19.27    0.76
  12  -7   2   17.87    0.82
  12  -7   2   18.30    0.76
  12  -7   2   17.79    0.67
  -5  12   2   19.10    0.73
   4 -12  -2   51.16    1.35
   8   4  -2   51.34    2.08
   8   4  -2   50.82    1.34
 -12   8  -2   51.13    1.41
 -12   8  -2   49.21    1.44
 -12   8  -2   49.09    1.39
 -12   8  -2   49.98    1.50
   8   4  -2   52.55    1.47
   4 -12  -2   49.91    1.47
  -4  12   2   47.35    1.44
  12  -8   2   47.56    1.38
  12  -8   2   48.05    1.41
  12  -8   2   50.40    1.41
  12  -8   2   47.64    1.51
  -8  -4   2   46.13    1.46
  -4  12   2   49.31    1.33
  -4  12   2   48.66    1.45
  12  -8   2   48.80    2.01
  -4  12   2   47.00    1.41
  -8  -4   2   49.11    1.47
  12  -8   2   47.22    1.31
  12  -8   2   48.60    1.42
   9   3  -2   28.77    1.47
 -12   9  -2   31.70    1.03
 -12   9  -2   31.19    1.11
   9   3  -2   31.04    1.06
 -12   9  -2   30.28    1.02
   9   3  -2   30.47    0.98
 -12   9  -2   30.09    1.03
   3 -12  -2   30.08    0.97
   3 -12  -2   31.01    1.07
  -3  12   2   29.60    1.06
  -9  -3   2   28.99    1.08
  -9  -3   2   29.91    1.07
  12  -9   2   29.17    0.94
  12  -9   2   30.12    1.02
  12  -9   2   31.49    1.46
  12  -9   2   29.23    1.04
  -3  12   2   30.28    1.06
  -3  12   2   30.89    0.97
  12  -9   2   29.41    1.10
  12  -9   2   29.80    1.00
  -3  12   2   30.34    1.05
  12  -9   2   30.97    1.02
  12  -9   2   29.50    1.04
 -12  10  -2   15.38    0.75
  10   2  -2   15.53    0.70
 -12  10  -2   13.81    0.68
  10   2  -2   15.79    0.68
 -12  10  -2   15.80    0.70
 -12  10  -2   15.69    0.69
  10   2  -2   14.97    1.00
  -2  12   2   15.71    0.74
  12 -10   2   15.02    0.63
  12 -10   2   15.06    0.68
 -10  -2   2   15.10    0.74
  12 -10   2   15.85    0.69
  12 -10   2   15.33    0.70
  12 -10   2   14.63    0.73
  12 -10   2   14.28    0.67
  12 -10   2   14.61    0.71
  -2  12   2   15.03    0.73
 -10  -2   2   14.35    0.72
 -12  11  -2   35.83    1.16
  11   1  -2   33.70    1.10
  11   1  -2   35.76    1.16
  11   1  -2   36.22    1.69
 -12  11  -2   35.78    1.17
   1 -12  -2   34.10    1.52
 -12  11  -2   34.37    1.24
 -12  11  -2   34.55    1.16
 -11  -1   2   34.25    1.21
  12 -11   2   34.75    1.07
 -11  -1   2   35.29    1.23
  12 -11   2   36.57    1.20
  -1  12   2   34.26    1.18
  -1  12   2   34.32    1.21
  12 -11   2   34.94    1.14
  12 -11   2   35.35    1.16
   0 -12  -2   51.03    2.03
 -12  12  -2   48.85    1.61
 -12  12  -2   48.82    1.49
 -12  12  -2   49.39    1.53
  12   0  -2   51.32    1.48
  12   0  -2   51.45    1.51
 -12  12  -2   50.67    1.51
  12 -12   2   54.80    1.58
 -12   0   2   53.42    1.63
   0  12   2   51.84    1.62
   0  12   2   53.13    1.56
 -12   0   2   54.34    1.63
  12 -12   2   54.24    1.53
  12 -12   2   55.41    1.54
  12 -12   2   54.69    1.46
 -12  13  -2    9.41    0.63
  13  -1  -2    9.42    0.57
 -12  13  -2    9.69    0.60
 -12  13  -2   10.45    0.59
   1  12   2    9.94    0.61
 -13   1   2    8.88    0.60
 -13   1   2   10.15    0.64
  12 -13   2   10.12    0.54
   1  12   2    9.65    0.63
  12 -13   2    9.22    0.59
  14  -2  -2   22.48    0.89
 -12  14  -2   22.83    0.93
  14  -2  -2   21.54    0.91
 -12  14  -2   23.73    1.04
 -12  14  -2   21.78    0.94
  14  -2  -2   22.13    0.95
   2  12   2   22.10    0.95
 -14   2   2   22.34    1.01
  12 -14   2   24.05    0.99
   2  12   2   21.95    1.00
 -14   2   2   23.62    1.00
 -12  15  -2   36.54    1.31
  15  -3  -2   38.20    1.37
 -12  15  -2   35.86    1.37
  15  -3  -2   38.87    1.30
  15  -3  -2   36.21    1.24
 -12  15  -2   35.61    1.27
 -15   3   2   38.16    1.40
   3  12   2   36.92    1.29
 -15   3   2   37.97    1.35
   3  12   2   35.78    1.36
  16  -4  -2    1.03    0.28
 -12  16  -2    1.15    0.29
 -12  16  -2    1.07    0.28
  16  -4  -2    1.09    0.29
  16  -4  -2    0.86    0.28
 -12  16  -2    1.04    0.29
 -16   4   2    0.86    0.29
   4  12   2    1.00    0.30
  17  -5  -2   11.04    0.69
  17  -5  -2   11.11    0.71
 -12  17  -2   10.93    0.72
 -12  17  -2   11.31    0.73
 -17   5   2   11.05    0.76
   5  12   2   10.76    0.74
  18  -6  -2   19.55    0.96
  18  -6  -2   20.55    0.99
   6  12   2   20.72    1.07
  18 -13  -2    2.89    0.46
  -5  18  -2    3.35    0.49
  18 -13  -2    3.41    0.47
  13   5   2    3.64    0.51
  -4  17  -2    0.49    0.25
 -13  -4  -2    0.59    0.26
  17 -13  -2    0.36    0.24
  17 -13  -2    0.21    0.22
  13   4   2    0.75    0.30
  13   4   2    0.58    0.26
 -17  13   2    0.69    0.27
 -13  -3  -2    4.19    0.51
  16 -13  -2    4.55    0.51
  16 -13  -2    4.27    0.48
  -3  16  -2    3.94    0.50
 -16  13   2    4.12    0.52
  13   3   2    3.86    0.50
  13   3   2    4.30    0.53
  13   3   2    4.55    0.51
  15 -13  -2    9.66    0.61
  -2  15  -2    9.39    0.62
  15 -13  -2    9.13    0.64
  15 -13  -2    9.60    0.69
 -13  -2  -2    9.72    0.66
  -2  15  -2   10.00    0.67
  13   2   2    8.80    0.62
 -15  13   2    9.35    0.66
  13   2   2    9.31    0.67
  13   2   2    9.71    0.68
  14 -13  -2    0.29    0.19
 -13  -1  -2    0.24    0.19
  -1  14  -2    0.09    0.18
  14 -13  -2    0.38    0.22
  -1  14  -2    0.14    0.18
  14 -13  -2    0.24    0.20
  13   1   2    0.28    0.21
 -14  13   2    0.47    0.22
  13   1   2    0.33    0.22
  13   1   2    0.34    0.22
  13 -13  -2    5.82    0.48
  13 -13  -2    6.40    0.53
   0  13  -2    5.88    0.49
 -13   0  -2    6.08    0.50
   0  13  -2    5.38    0.48
  13   0   2    6.77    0.52
   0 -13   2    6.49    0.49
 -13  13   2    6.56    0.51
  13   0   2    6.35    0.53
  13   0   2    6.51    0.53
   1  12  -2    9.86    0.61
   1  12  -2    9.81    0.61
 -13   1  -2    9.65    0.62
  12 -13  -2   10.27    0.60
  12 -13  -2    9.94    0.64
  13  -1   2    9.98    0.53
  13  -1   2    9.15    0.63
 -12  13   2   10.26    0.59
  13  -1   2    9.32    0.62
  -1 -12   2    9.52    0.60
  13  -1   2    9.81    0.62
 -13   2  -2    3.29    0.41
  11 -13  -2    2.87    0.37
   2  11  -2    3.18    0.40
   2  11  -2    3.08    0.39
  11 -13  -2    3.25    0.42
  13  -2   2    2.90    0.38
  13  -2   2    2.89    0.40
  13  -2   2    3.38    0.43
  -2 -11   2    3.17    0.40
  13  -2   2    3.47    0.32
 -11  13   2    3.85    0.38
 -13   3  -2   16.23    0.77
  10 -13  -2   14.39    0.76
   3  10  -2   15.77    0.75
   3  10  -2   15.80    0.73
  10 -13  -2   15.82    0.73
  -3 -10   2   14.55    0.73
 -10  13   2   15.16    0.72
  13  -3   2   14.70    0.78
  13  -3   2   15.34    0.64
  13  -3   2   15.46    0.77
 -10  13   2   16.23    0.76
  13  -3   2   14.59    0.73
   9 -13  -2    6.55    0.49
 -13   4  -2    7.73    0.46
 -13   4  -2    6.49    0.49
   4   9  -2    7.58    0.49
   4   9  -2    7.29    0.50
   9 -13  -2    7.44    0.48
 -13   4  -2    7.27    0.49
  -9  13   2    6.31    0.48
  13  -4   2    6.31    0.52
  13  -4   2    6.88    0.46
  -9  13   2    7.68    0.50
  13  -4   2    6.98    0.42
  13  -4   2    6.42    0.49
  13  -4   2    6.44    0.47
  -4  -9   2    6.27    0.47
  13  -4   2    7.01    0.51
   5   8  -2    3.65    0.35
   8 -13  -2    4.09    0.39
 -13   5  -2    3.79    0.37
 -13   5  -2    3.98    0.37
 -13   5  -2    4.11    0.35
   8 -13  -2    3.87    0.38
   5   8  -2    3.43    0.40
  13  -5   2    4.17    0.41
  13  -5   2    3.69    0.35
  -8  13   2    4.43    0.38
  -8  13   2    3.86    0.43
  -5  -8   2    3.67    0.38
  13  -5   2    4.02    0.54
  13  -5   2    3.40    0.40
  13  -5   2    4.07    0.42
  13  -5   2    3.90    0.33
  13  -5   2    3.96    0.37
   7 -13  -2   25.34    0.99
 -13   6  -2   25.60    0.97
 -13   6  -2   25.22    0.89
 -13   6  -2   25.38    0.96
   6   7  -2   24.72    0.85
   7 -13  -2   25.54    0.90
   6   7  -2   25.62    0.97
  -7  13   2   24.60    0.96
  13  -6   2   24.01    1.33
  13  -6   2   25.30    0.85
  13  -6   2   24.77    0.95
  13  -6   2   25.35    1.03
  13  -6   2   22.78    0.93
  -6  -7   2   24.94    0.98
  -6  -7   2   24.60    0.93
  13  -6   2   24.71    0.91
  -7  13   2   25.84    0.90
  13  -6   2   24.34    0.92
   7   6  -2   24.67    0.95
   7   6  -2   24.91    0.85
 -13   7  -2   24.61    0.95
 -13   7  -2   24.11    0.96
   6 -13  -2   24.89    0.88
   6 -13  -2   23.79    0.95
 -13   7  -2   25.02    0.89
  13  -7   2   24.98    0.94
  13  -7   2   25.28    0.94
  -7  -6   2   24.20    0.93
  13  -7   2   22.76    0.82
  -7  -6   2   22.98    0.95
  13  -7   2   22.00    0.97
  -6  13   2   24.12    0.86
  13  -7   2   24.47    0.91
  -6  13   2   24.52    0.94
  -6  13   2   24.81    0.96
  13  -7   2   24.63    0.93
  13  -7   2   25.62    1.35
   8   5  -2    3.57    0.33
   8   5  -2    3.32    0.40
   5 -13  -2    3.78    0.36
 -13   8  -2    3.58    0.35
 -13   8  -2    4.03    0.40
 -13   8  -2    3.09    0.38
   5 -13  -2    4.06    0.35
  -5  13   2    4.20    0.39
  13  -8   2    3.75    0.37
  13  -8   2    3.28    0.40
  -8  -5   2    3.95    0.38
  13  -8   2    3.75    0.41
  13  -8   2    3.89    0.32
  -5  13   2    3.63    0.36
  13  -8   2    3.75    0.40
  -8  -5   2    3.21    0.40
  13  -8   2    3.30    0.54
  -5  13   2    3.69    0.42
  -5  13   2    3.70    0.35
   9   4  -2    7.50    0.46
 -13   9  -2    7.15    0.49
   9   4  -2    7.48    0.51
 -13   9  -2    6.56    0.46
 -13   9  -2    6.74    0.49
  -4  13   2    6.58    0.49
  13  -9   2    6.62    0.48
  13  -9   2    6.79    0.50
  -4  13   2    6.23    0.48
  13  -9   2    6.15    0.40
  13  -9   2    6.26    0.46
  -9  -4   2    7.02    0.49
  -9  -4   2    5.84    0.47
  13  -9   2    6.36    0.50
  10   3  -2   15.43    0.73
 -13  10  -2   15.53    0.72
 -13  10  -2   15.03    0.71
 -13  10  -2   15.14    0.77
  10   3  -2   16.02    0.70
  13 -10   2   15.42    0.75
  13 -10   2   14.56    0.70
  -3  13   2   13.29    0.71
  13 -10   2   15.59    0.71
  13 -10   2   14.16    0.75
  -3  13   2   15.64    0.75
 -10  -3   2   15.15    0.77
  13 -10   2   15.00    0.64
 -10  -3   2   14.88    0.74
  11   2  -2    3.07    0.39
 -13  11  -2    2.85    0.40
 -13  11  -2    3.57    0.36
 -13  11  -2    2.87    0.37
  11   2  -2    2.83    0.35
  -2  13   2    3.25    0.41
  13 -11   2    3.13    0.38
 -11  -2   2    3.03    0.39
 -11  -2   2    2.86    0.40
  13 -11   2    2.97    0.40
  13 -11   2    3.09    0.38
  13 -11   2    3.35    0.32
  -2  13   2    3.50    0.42
  12   1  -2   10.99    0.61
  12   1  -2   10.18    0.58
 -13  12  -2    9.55    0.59
 -13  12  -2    9.06    0.62
 -12  -1   2   10.16    0.63
  13 -12   2   10.26    0.63
  13 -12   2    9.40    0.53
  -1  13   2    9.81    0.62
  -1  13   2    9.62    0.62
 -12  -1   2   10.04    0.63
  13   0  -2    6.09    0.49
 -13  13  -2    6.22    0.52
 -13  13  -2    6.14    0.49
  13   0  -2    5.98    0.47
 -13   0   2    6.48    0.53
   0  13   2    7.09    0.55
  13 -13   2    6.88    0.54
   0  13   2    6.16    0.50
 -13   0   2    6.30    0.52
 -13  14  -2    0.13    0.19
  14  -1  -2    0.24    0.19
 -13  14  -2    0.40    0.22
   1  13   2    0.26    0.21
  13 -14   2    0.29    0.21
 -14   1   2    0.29    0.21
   1  13   2    0.38    0.22
 -14   1   2    0.06    0.18
  15  -2  -2    9.38    0.61
 -13  15  -2   11.02    0.68
 -13  15  -2    9.82    0.68
  13 -15   2    9.68    0.64
 -15   2   2   10.26    0.68
   2  13   2    9.38    0.62
   2  13   2    9.51    0.67
 -15   2   2    9.10    0.66
 -13  16  -2    4.34    0.51
  16  -3  -2    4.57    0.51
  16  -3  -2    3.93    0.47
 -13  16  -2    4.15    0.52
   3  13   2    3.99    0.49
 -16   3   2    3.70    0.51
 -16   3   2    4.44    0.52
   3  13   2    4.27    0.53
  17  -4  -2    0.67    0.26
 -13  17  -2    0.60    0.27
 -13  17  -2    0.50    0.25
  17  -4  -2    0.32    0.25
   4  13   2    0.61    0.28
 -17   4   2    0.77    0.29
 -13  18  -2    3.15    0.47
 -13  18  -2    3.41    0.49
  18  -5  -2    3.32    0.48
  18  -5  -2    4.41    0.53
   5  13   2    4.15    0.56
  18 -14  -2    3.98    0.52
  18 -14  -2    4.18    0.52
  14   4   2    3.95    0.51
  17 -14  -2    7.86    0.59
 -14  -3  -2    6.75    0.59
  -3  17  -2    8.37    0.64
  17 -14  -2    6.91    0.58
  14   3   2    6.54    0.57
  14   3   2    6.17    0.60
 -17  14   2    6.85    0.61
  16 -14  -2    4.13    0.50
 -14  -2  -2    4.66    0.55
  16 -14  -2    5.21    0.48
  -2  16  -2    4.22    0.52
  14   2   2    4.25    0.54
 -16  14   2    4.58    0.55
  14   2   2    4.74    0.54
  15 -14  -2    6.55    0.59
  15 -14  -2    7.40    0.56
  -1  15  -2    7.14    0.58
  -1  15  -2    7.38    0.55
 -14  -1  -2    7.11    0.58
 -15  14   2    6.84    0.57
  14   1   2    7.96    0.61
  14   1   2    6.89    0.60
  14   1   2    7.43    0.62
 -14   0  -2   13.50    0.77
   0  14  -2   13.60    0.77
  14 -14  -2   14.81    0.83
   0  14  -2   14.03    0.76
  14 -14  -2   13.19    0.73
  14   0   2   13.22    0.74
  14   0   2   13.03    0.79
  14   0   2   12.37    0.79
 -14   1  -2    0.18    0.19
  13 -14  -2    0.45    0.22
  13 -14  -2    0.58    0.24
   1  13  -2    0.28    0.20
   1  13  -2    0.29    0.20
  14  -1   2    0.08    0.19
  14  -1   2    0.20    0.21
  14  -1   2    0.14    0.20
 -13  14   2    0.31    0.20
  -1 -13   2    0.30    0.20
 -14   2  -2   22.70    1.00
   2  12  -2   22.83    0.97
  12 -14  -2   22.01    0.92
  12 -14  -2   22.28    1.00
   2  12  -2   22.69    0.97
  14  -2   2   24.00    1.03
 -12  14   2   22.23    0.95
  -2 -12   2   23.75    0.98
  14  -2   2   22.12    1.04
  14  -2   2   23.99    1.00
   3  11  -2   19.80    0.87
  11 -14  -2   20.84    0.86
   3  11  -2   21.33    0.91
 -14   3  -2   18.70    0.88
  11 -14  -2   20.16    0.92
 -11  14   2   19.18    0.87
  14  -3   2   18.84    0.94
  14  -3   2   18.94    0.88
  14  -3   2   19.35    0.77
  14  -3   2   18.55    0.89
  -3 -11   2   18.31    0.86
  10 -14  -2    1.23    0.28
   4  10  -2    1.85    0.32
 -14   4  -2    1.42    0.30
  10 -14  -2    1.59    0.31
   4  10  -2    1.68    0.31
  14  -4   2    1.47    0.32
 -10  14   2    1.98    0.32
  14  -4   2    1.35    0.24
  14  -4   2    1.76    0.33
  -4 -10   2    1.62    0.31
  14  -4   2    1.45    0.31
 -10  14   2    1.29    0.29
  14  -4   2    1.87    0.31
   5   9  -2   10.71    0.60
 -14   5  -2   10.93    0.64
   9 -14  -2   11.96    0.67
   9 -14  -2   11.49    0.60
 -14   5  -2   12.70    0.68
   5   9  -2   10.95    0.65
 -14   5  -2   12.20    0.60
  -9  14   2   11.64    0.63
  14  -5   2   11.42    0.63
  14  -5   2   11.41    0.60
  -5  -9   2   10.73    0.64
  14  -5   2   10.89    0.70
  14  -5   2   12.01    0.67
  -9  14   2   11.31    0.67
  14  -5   2   11.13    0.56
  14  -5   2   11.27    0.65
 -14   6  -2    8.85    0.59
   8 -14  -2   10.08    0.62
 -14   6  -2   10.11    0.56
   6   8  -2   10.52    0.58
 -14   6  -2    9.70    0.61
   8 -14  -2   10.00    0.57
   6   8  -2    9.83    0.61
  -8  14   2   11.28    0.65
  14  -6   2   11.29    0.65
  -6  -8   2   10.62    0.64
  14  -6   2   11.32    0.70
  -8  14   2   11.27    0.60
  14  -6   2   10.99    0.55
  14  -6   2   11.62    0.65
  14  -6   2   11.38    0.60
  14  -6   2   10.76    0.61
 -14   7  -2    0.92    0.23
 -14   7  -2    0.54    0.21
   7 -14  -2    0.69    0.22
 -14   7  -2    0.83    0.24
   7 -14  -2    0.65    0.22
   7   7  -2    0.81    0.25
  14  -7   2    0.72    0.24
  14  -7   2    0.82    0.20
  -7  14   2    0.88    0.24
  -7  14   2    0.48    0.22
  -7  -7   2    0.73    0.23
  14  -7   2    0.73    0.24
  14  -7   2    0.49    0.21
  14  -7   2    0.49    0.22
  14  -7   2    0.24    0.18
   8   6  -2    9.11    0.59
 -14   8  -2    9.50    0.56
 -14   8  -2    9.70    0.59
   8   6  -2    8.88    0.52
 -14   8  -2    9.41    0.61
  14  -8   2    9.98    0.59
  14  -8   2   11.06    0.54
  14  -8   2   10.58    0.66
  -6  14   2   10.20    0.62
  14  -8   2   10.84    0.62
  14  -8   2   11.52    0.65
  -8  -6   2   10.15    0.63
   9   5  -2   11.65    0.59
 -14   9  -2   12.54    0.70
   9   5  -2   11.69    0.66
 -14   9  -2   11.49    0.64
 -14   9  -2   11.92    0.63
  -5  14   2   10.92    0.63
  -9  -5   2   11.80    0.65
  14  -9   2   10.34    0.63
  14  -9   2   10.66    0.55
  -9  -5   2   10.94    0.66
  14  -9   2   11.18    0.62
  -5  14   2   11.64    0.67
  14  -9   2   10.70    0.62
  14  -9   2   10.92    0.67
  10   4  -2    1.20    0.26
 -14  10  -2    1.76    0.33
 -14  10  -2    1.97    0.32
 -14  10  -2    1.32    0.28
  10   4  -2    1.73    0.32
 -10  -4   2    1.39    0.29
  -4  14   2    1.66    0.32
  -4  14   2    1.93    0.34
  14 -10   2    1.77    0.27
 -10  -4   2    1.34    0.30
  14 -10   2    1.47    0.31
  14 -10   2    1.72    0.33
  14 -10   2    1.69    0.31
  11   3  -2   19.39    0.79
 -14  11  -2   20.01    0.86
 -14  11  -2   19.17    0.83
  11   3  -2   19.40    0.86
 -14  11  -2   20.25    0.93
  14 -11   2   19.05    0.76
  14 -11   2   18.80    0.90
  14 -11   2   18.15    0.81
 -11  -3   2   17.45    0.87
  14 -11   2   17.53    0.85
  -3  14   2   17.73    0.86
 -11  -3   2   19.49    0.89
 -14  12  -2   22.82    0.96
  12   2  -2   23.45    0.97
  12   2  -2   21.95    0.90
 -14  12  -2   22.67    1.02
  -2  14   2   22.77    1.00
 -12  -2   2   22.90    0.99
  14 -12   2   22.99    0.98
 -12  -2   2   22.91    1.01
  -2  14   2   22.79    0.98
  13   1  -2    0.20    0.20
  13   1  -2    0.42    0.21
 -14  13  -2    0.21    0.21
 -14  13  -2    0.20    0.19
  14 -13   2    0.28    0.22
 -13  -1   2    0.20    0.19
  -1  14   2    0.43    0.22
 -13  -1   2    0.27    0.20
  -1  14   2    0.10    0.18
 -14  14  -2   12.74    0.72
 -14  14  -2   11.73    0.75
  14   0  -2   13.55    0.71
 -14   0   2   14.36    0.79
   0  14   2   12.91    0.77
 -14   0   2   12.27    0.75
   0  14   2   13.44    0.76
  14 -14   2   13.30    0.75
 -14  15  -2    7.67    0.58
  15  -1  -2    7.16    0.55
 -14  15  -2    7.49    0.61
  14 -15   2    8.07    0.60
   1  14   2    7.52    0.59
 -15   1   2    7.53    0.61
   1  14   2    8.60    0.64
 -15   1   2    7.45    0.60
 -14  16  -2    5.59    0.54
  16  -2  -2    4.48    0.51
 -14  16  -2    5.00    0.51
 -16   2   2    4.31    0.53
   2  14   2    3.89    0.49
 -16   2   2    4.02    0.53
   2  14   2    5.08    0.59
 -14  17  -2    7.76    0.64
 -14  17  -2    8.28    0.63
  17  -3  -2    7.08    0.59
 -17   3   2    6.83    0.59
   3  14   2    6.69    0.61
 -17   3   2    7.48    0.64
  18  -4  -2    3.87    0.50
  18  -4  -2    3.72    0.48
 -14  18  -2    3.67    0.50
  17 -15  -2    5.50    0.53
  -2  17  -2    5.79    0.57
  15   2   2    7.00    0.61
  15   2   2    6.30    0.61
 -17  15   2    6.57    0.60
  -1  16  -2    6.14    0.56
 -15  -1  -2    5.33    0.54
  16 -15  -2    5.80    0.53
  15   1   2    5.77    0.56
  15   1   2    6.42    0.58
   0  15  -2   17.80    0.92
   0  15  -2   17.38    0.88
 -15   0  -2   16.64    0.90
  15 -15  -2   16.44    0.85
  15   0   2   17.34    0.92
  15   0   2   16.01    0.86
  14 -15  -2    7.02    0.60
   1  14  -2    6.69    0.54
   1  14  -2    7.25    0.58
  14 -15  -2    8.21    0.59
 -15   1  -2    6.76    0.57
  15  -1   2    7.22    0.61
  15  -1   2    6.53    0.55
  15  -1   2    6.48    0.57
  13 -15  -2    8.90    0.61
  13 -15  -2    9.22    0.65
 -15   2  -2    9.15    0.64
   2  13  -2    7.89    0.59
   2  13  -2    9.08    0.61
 -13  15   2    9.37    0.63
  15  -2   2    8.70    0.62
  15  -2   2    9.38    0.66
  15  -2   2    9.16    0.68
  -2 -13   2    8.48    0.60
   3  12  -2   37.34    1.32
  12 -15  -2   36.08    1.35
  12 -15  -2   37.53    1.27
   3  12  -2   35.64    1.31
 -15   3  -2   36.15    1.35
  15  -3   2   36.96    1.35
  15  -3   2   36.67    1.43
  -3 -12   2   36.57    1.32
  15  -3   2   36.38    1.31
 -12  15   2   38.00    1.32
   4  11  -2   24.04    1.03
   4  11  -2   26.11    1.03
  11 -15  -2   24.34    1.05
 -15   4  -2   24.92    1.05
 -11  15   2   23.05    1.00
  15  -4   2   23.65    1.02
  15  -4   2   23.49    1.03
  -4 -11   2   24.19    1.02
  15  -4   2   23.55    1.09
  10 -15  -2    4.61    0.43
 -15   5  -2    5.54    0.48
  10 -15  -2    4.96    0.47
   5  10  -2    4.52    0.43
 -15   5  -2    4.76    0.46
   5  10  -2    4.78    0.47
  -5 -10   2    5.27    0.47
  15  -5   2    4.51    0.48
  15  -5   2    5.13    0.48
  15  -5   2    5.07    0.46
 -10  15   2    5.35    0.48
 -10  15   2    4.57    0.43
  15  -5   2    5.48    0.48
   9 -15  -2   25.21    1.04
 -15   6  -2   26.21    1.06
 -15   6  -2   24.62    1.04
   9 -15  -2   25.07    0.95
   6   9  -2   24.96    1.04
  -6  -9   2   26.19    1.07
  -9  15   2   25.80    1.06
  15  -6   2   26.26    1.15
  15  -6   2   23.65    1.02
  15  -6   2   26.75    1.03
  15  -6   2   24.94    1.04
  -9  15   2   27.17    0.98
 -15   7  -2   25.01    1.04
   7   8  -2   23.44    1.00
 -15   7  -2   24.65    1.01
 -15   7  -2   24.10    0.92
  15  -7   2   23.73    1.08
  -7  -8   2   22.84    1.00
  15  -7   2   24.62    0.99
  -8  15   2   22.75    1.00
  15  -7   2   24.50    1.00
  15  -7   2   24.52    1.01
 -15   8  -2   24.45    1.04
 -15   8  -2   23.37    1.00
   8   7  -2   24.02    1.03
 -15   8  -2   25.70    0.96
  15  -8   2   27.03    1.05
  15  -8   2   26.33    1.03
  15  -8   2   24.84    1.10
  -8  -7   2   24.28    1.04
  -7  15   2   25.62    1.05
  15  -8   2   26.18    1.03
 -15   9  -2   25.04    1.02
   9   6  -2   27.03    1.08
 -15   9  -2   25.36    0.98
 -15   9  -2   26.16    1.08
  15  -9   2   25.28    1.02
  15  -9   2   25.11    1.03
  -6  15   2   26.67    1.08
  -9  -6   2   26.82    1.09
  15  -9   2   25.89    1.12
 -15  10  -2    4.47    0.46
 -15  10  -2    3.63    0.43
 -15  10  -2    5.18    0.45
  10   5  -2    3.98    0.47
  15 -10   2    5.23    0.50
  -5  15   2    5.01    0.47
 -10  -5   2    5.47    0.50
  15 -10   2    5.93    0.49
  15 -10   2    4.94    0.47
  -5  15   2    4.26    0.43
 -15  11  -2   23.01    1.04
 -15  11  -2   24.68    0.98
 -15  11  -2   24.87    0.99
  11   4  -2   23.86    0.92
  11   4  -2   23.16    0.99
  15 -11   2   23.43    0.98
  15 -11   2   23.21    1.05
  15 -11   2   22.65    1.00
 -11  -4   2   24.57    1.07
  -4  15   2   23.97    1.03
  12   3  -2   35.50    1.30
  12   3  -2   37.56    1.23
 -15  12  -2   36.04    1.38
 -15  12  -2   38.47    1.31
  -3  15   2   37.52    1.35
  15 -12   2   36.15    1.32
 -12  -3   2   37.48    1.34
  -3  15   2   34.87    1.32
  15 -12   2   36.09    1.26
 -12  -3   2   38.13    1.40
  13   2  -2   11.06    0.67
 -15  13  -2   10.12    0.70
  13   2  -2   10.13    0.61
 -15  13  -2   11.34    0.67
  15 -13   2    9.10    0.64
 -13  -2   2   10.83    0.68
  -2  15   2   10.57    0.68
 -13  -2   2   10.98    0.72
  -2  15   2   10.31    0.70
  14   1  -2    8.21    0.56
 -15  14  -2    7.31    0.57
 -15  14  -2    7.13    0.60
  14   1  -2    8.13    0.59
 -14  -1   2    8.00    0.61
 -14  -1   2    7.64    0.61
  -1  15   2    7.65    0.62
  15 -14   2    6.76    0.56
  -1  15   2    7.40    0.58
 -15  15  -2   17.36    0.88
  15   0  -2   16.53    0.82
 -15  15  -2   17.34    0.95
 -15   0   2   17.09    0.91
 -15   0   2   15.92    0.90
   0  15   2   17.17    0.93
  15 -15   2   16.94    0.88
   0  15   2   17.22    0.89
 -15  16  -2    6.02    0.55
  16  -1  -2    6.38    0.53
 -15  16  -2    5.58    0.57
 -16   1   2    6.64    0.59
   1  15   2    7.25    0.63
   1  15   2    6.48    0.56
 -16   1   2    5.98    0.57
  15 -16   2    6.38    0.57
  17  -2  -2    5.83    0.54
 -15  17  -2    5.48    0.53
 -17   2   2    5.59    0.56
   2  15   2    5.63    0.58
  16 -16  -2   11.95    0.74
   0  16  -2   12.36    0.77
  16   0   2   11.30    0.75
  16   0   2   11.70    0.79
  15 -16  -2    5.34    0.52
   1  15  -2    5.48    0.53
   1  15  -2    5.62    0.53
 -16   1  -2    5.27    0.53
  16  -1   2    5.63    0.55
  16  -1   2    5.78    0.54
  14 -16  -2    4.86    0.49
 -16   2  -2    4.85    0.50
   2  14  -2    4.78    0.49
   2  14  -2    5.39    0.52
  14 -16  -2    4.34    0.54
 -14  16   2    4.59    0.53
  16  -2   2    5.27    0.53
  16  -2   2    4.33    0.54
   3  13  -2    4.15    0.50
 -16   3  -2    4.81    0.49
  13 -16  -2    4.05    0.51
  13 -16  -2    4.52    0.45
   3  13  -2    4.18    0.52
  -3 -13   2    3.76    0.49
  16  -3   2    4.55    0.54
 -13  16   2    4.19    0.51
  16  -3   2    3.65    0.49
   4  12  -2    1.09    0.29
 -16   4  -2    0.77    0.26
  12 -16  -2    1.01    0.29
  12 -16  -2    0.78    0.27
   4  12  -2    1.08    0.30
  16  -4   2    0.97    0.30
  16  -4   2    1.28    0.32
  -4 -12   2    0.75    0.26
  16  -4   2    1.14    0.32
 -12  16   2    0.98    0.29
  11 -16  -2    3.78    0.44
 -16   5  -2    3.00    0.43
   5  11  -2    3.20    0.43
   5  11  -2    3.35    0.45
  16  -5   2    3.22    0.48
  16  -5   2    3.45    0.46
  16  -5   2    3.21    0.45
  16  -5   2    3.19    0.43
  -5 -11   2    3.64    0.46
 -11  16   2    3.42    0.47
   6  10  -2    2.89    0.43
 -16   6  -2    2.77    0.41
 -16   6  -2    3.39    0.45
  16  -6   2    3.45    0.44
  16  -6   2    3.90    0.48
  16  -6   2    3.53    0.46
  16  -6   2    3.39    0.48
 -10  16   2    2.45    0.40
  -6 -10   2    3.51    0.46
   7   9  -2    5.47    0.51
 -16   7  -2    5.68    0.50
 -16   7  -2    5.72    0.51
  -7  -9   2    5.39    0.50
  16  -7   2    5.19    0.48
  16  -7   2    4.90    0.47
  -9  16   2    5.38    0.51
  16  -7   2    5.37    0.50
  16  -7   2    4.44    0.55
   8   8  -2   41.36    1.45
 -16   8  -2   40.01    1.44
 -16   8  -2   38.97    1.38
  16  -8   2   41.03    1.41
  16  -8   2   40.80    1.40
  -8  16   2   39.31    1.42
  16  -8   2   39.42    1.51
  16  -8   2   39.76    1.37
  -8  -8   2   40.08    1.44
 -16   9  -2    6.12    0.53
 -16   9  -2    5.44    0.48
 -16   9  -2    5.41    0.47
   9   7  -2    5.69    0.51
  -7  16   2    5.46    0.51
  16  -9   2    5.07    0.52
  16  -9   2    5.32    0.49
  -9  -7   2    5.17    0.50
  16  -9   2    5.32    0.50
 -16  10  -2    3.39    0.44
 -16  10  -2    3.47    0.42
  10   6  -2    3.01    0.43
 -16  10  -2    2.66    0.41
  16 -10   2    3.27    0.45
  -6  16   2    3.70    0.48
  16 -10   2    2.83    0.44
 -10  -6   2    2.66    0.42
  16 -10   2    2.44    0.39
 -16  11  -2    3.12    0.44
 -16  11  -2    3.49    0.44
 -16  11  -2    2.83    0.40
  11   5  -2    3.23    0.44
  16 -11   2    4.03    0.49
  16 -11   2    4.12    0.50
  16 -11   2    3.97    0.52
  -5  16   2    3.23    0.45
 -11  -5   2    3.51    0.48
 -16  12  -2    1.04    0.29
 -16  12  -2    0.73    0.27
  12   4  -2    1.30    0.31
  16 -12   2    1.00    0.30
  16 -12   2    1.16    0.31
 -12  -4   2    0.89    0.29
  -4  16   2    1.00    0.29
  16 -12   2    0.97    0.28
  -4  16   2    1.10    0.30
  13   3  -2    4.06    0.50
 -16  13  -2    3.88    0.47
 -16  13  -2    3.90    0.51
  -3  16   2    4.17    0.51
  16 -13   2    4.09    0.51
  -3  16   2    3.96    0.51
 -13  -3   2    4.30    0.53
  14   2  -2    4.78    0.54
  14   2  -2    4.78    0.45
 -16  14  -2    4.52    0.55
 -16  14  -2    5.42    0.50
  16 -14   2    4.74    0.55
  -2  16   2    4.87    0.56
 -14  -2   2    3.95    0.52
  -2  16   2    4.31    0.55
 -16  15  -2    6.02    0.58
 -16  15  -2    5.38    0.51
  15   1  -2    6.23    0.52
 -15  -1   2    6.26    0.59
  16 -15   2    6.95    0.59
  -1  16   2    7.04    0.59
  -1  16   2    7.09    0.61
 -16  16  -2   11.51    0.74
  16   0  -2   12.26    0.72
   0  16   2   10.63    0.76
 -16   0   2   10.41    0.74
   0  16   2   11.52    0.76
  16 -16   2   10.04    0.72
  15 -17  -2    5.18    0.51
   2  15  -2    5.37    0.54
   2  15  -2    6.98    0.59
  17  -2   2    5.86    0.58
  17  -2   2    6.18    0.57
   3  14  -2    7.87    0.62
  14 -17  -2    7.51    0.59
   3  14  -2    7.77    0.63
 -17   3  -2    7.05    0.61
  17  -3   2    6.76    0.60
 -14  17   2    6.37    0.57
  17  -3   2    6.47    0.60
   4  13  -2    0.63    0.27
  13 -17  -2    0.64    0.26
 -17   4  -2    0.50    0.25
   4  13  -2    0.44    0.24
  -4 -13   2    0.42    0.24
  17  -4   2    0.32    0.24
 -13  17   2    0.93    0.31
  17  -4   2    0.29    0.24
   5  12  -2   10.95    0.73
 -17   5  -2   11.60    0.75
   5  12  -2   11.04    0.71
  17  -5   2   11.30    0.74
 -12  17   2   11.90    0.76
  -5 -12   2   12.36    0.75
  17  -5   2   12.83    0.78
   6  11  -2    5.35    0.52
 -17   6  -2    4.89    0.49
  17  -6   2    4.04    0.49
 -11  17   2    4.65    0.55
  17  -6   2    4.40    0.54
  17  -6   2    4.32    0.52
  -6 -11   2    3.78    0.49
   7  10  -2    1.15    0.32
 -17   7  -2    1.42    0.33
 -17   7  -2    1.23    0.31
  17  -7   2    1.29    0.32
  17  -7   2    1.09    0.32
  -7 -10   2    0.91    0.28
  17  -7   2    1.67    0.35
 -10  17   2    1.22    0.32
   8   9  -2    9.02    0.65
 -17   8  -2    8.94    0.66
 -17   8  -2    9.43    0.65
  -9  17   2    8.45    0.64
  -8  -9   2    9.21    0.66
  17  -8   2    8.51    0.64
  17  -8   2    8.13    0.67
  17  -8   2    8.47    0.62
 -17   9  -2    9.10    0.66
   9   8  -2    9.22    0.66
 -17   9  -2    9.19    0.64
  17  -9   2    8.02    0.66
  17  -9   2    9.53    0.65
  -9  -8   2    7.44    0.61
  -8  17   2    7.97    0.62
  17  -9   2    8.26    0.63
  10   7  -2    1.13    0.31
 -17  10  -2    1.33    0.31
 -17  10  -2    1.59    0.35
  -7  17   2    1.00    0.30
  17 -10   2    1.29    0.33
  17 -10   2    1.06    0.30
 -10  -7   2    1.27    0.32
  17 -10   2    1.12    0.31
 -17  11  -2    4.45    0.55
 -17  11  -2    4.72    0.47
  11   6  -2    4.53    0.54
 -17  11  -2    4.74    0.48
 -11  -6   2    4.84    0.50
  17 -11   2    4.88    0.55
  17 -11   2    4.41    0.52
  17 -11   2    4.48    0.56
  -6  17   2    4.07    0.52
  12   5  -2   12.00    0.75
 -17  12  -2   10.60    0.73
 -17  12  -2   10.85    0.68
  17 -12   2   11.81    0.76
  -5  17   2   10.65    0.74
  17 -12   2   13.01    0.75
 -12  -5   2   10.61    0.74
  17 -12   2   11.55    0.77
 -17  13  -2    0.05    0.19
  13   4  -2    0.54    0.27
 -17  13  -2    0.38    0.25
  17 -13   2    0.36    0.26
 -13  -4   2    0.50    0.26
  -4  17   2    0.85    0.29
  -4  17   2    0.70    0.28
 -17  14  -2    7.19    0.62
 -17  14  -2    7.73    0.58
  14   3  -2    7.78    0.62
 -14  -3   2    7.19    0.63
  -3  17   2    6.98    0.62
  17 -14   2    6.75    0.60
  -3  17   2    6.46    0.60
  15   2  -2    4.92    0.51
 -17  15  -2    6.01    0.56
  -2  17   2    5.98    0.58
  17 -15   2    6.40    0.58
  -2  17   2    5.58    0.56
   4  14  -2    3.99    0.52
 -14  18   2    3.99    0.53
  18  -4   2    3.94    0.54
  18  -4   2    3.20    0.48
   5  13  -2    3.10    0.46
   5  13  -2    3.52    0.51
  18  -5   2    4.23    0.55
  18  -5   2    3.77    0.52
 -13  18   2    4.17    0.54
  -5 -13   2    3.26    0.48
   6  12  -2   21.57    1.07
 -18   6  -2   18.98    1.01
 -12  18   2   22.28    1.07
  18  -6   2   21.83    1.04
  18  -6   2   21.79    1.06
  -6 -12   2   20.57    1.03
   7  11  -2    3.71    0.51
 -18   7  -2    3.45    0.48
 -11  18   2    4.83    0.57
  -7 -11   2    3.89    0.52
  18  -7   2    3.93    0.52
  18  -7   2    3.60    0.49
   8  10  -2   12.38    0.79
 -18   8  -2   11.90    0.77
 -18   8  -2   11.48    0.75
 -10  18   2   11.96    0.78
  18  -8   2   11.96    0.75
  18  -8   2   13.54    0.81
  -8 -10   2   12.15    0.78
 -18   9  -2   17.06    0.91
   9   9  -2   17.69    0.95
  18  -9   2   19.50    0.97
  18  -9   2   20.26    1.00
  -9  18   2   17.34    0.95
  -9  -9   2   18.43    0.98
 -18  10  -2   12.20    0.75
  10   8  -2   12.81    0.79
  -8  18   2   12.20    0.80
  18 -10   2   12.46    0.79
  18 -10   2   13.22    0.80
 -10  -8   2   12.61    0.80
  11   7  -2    3.94    0.52
 -18  11  -2    3.80    0.52
  18 -11   2    4.03    0.52
  -7  18   2    3.67    0.51
  18 -11   2    4.03    0.52
 -11  -7   2    3.89    0.53
  12   6  -2   21.10    1.03
  18 -12   2   19.71    0.97
  18 -12   2   21.69    1.04
  -6  18   2   17.58    0.98
  13   5  -2    3.87    0.52
 -18  13  -2    3.45    0.47
  18 -13   2    3.81    0.52
  -5  18   2    3.63    0.51
  18 -13   2    3.95    0.50
 -18  14  -2    4.04    0.50
  14   4  -2    3.82    0.53
  -4  18   2    3.54    0.52
  18 -14   2    3.61    0.52
  -4  18   2    4.51    0.58
   0   0  -3   79.80    2.21
   0   0  -3   77.18    1.80
   0   0   3   76.60    1.70
   0   0   3   77.57    1.78
   0   0   3   76.78    1.76
   0   0   3   77.90    1.72
   0   0   3   78.87    1.72
   0   0   3   78.45    2.43
   1  -1  -3   20.49    0.68
   1  -1  -3   21.51    0.80
   0   1  -3   20.01    0.63
  -1   0  -3   20.86    0.64
   1  -1  -3   20.57    0.59
   0   1  -3   20.51    0.63
  -1   0  -3   20.75    0.84
   0   1  -3   20.01    0.63
  -1   0  -3   21.29    0.65
   0  -1   3   21.63    0.64
   1   0   3   21.84    0.92
  -1   1   3   21.56    0.67
   1   0   3   22.11    0.66
  -1   1   3   22.05    0.87
  -1   1   3   22.57    0.65
   1   0   3   22.18    0.64
  -1   1   3   22.81    0.62
   0  -1   3   22.52    0.66
   1   0   3   21.93    0.68
   1   0   3   21.39    0.64
  -1   1   3   22.25    0.62
   0  -1   3   21.23    0.67
   0  -1   3   22.86    0.94
   1   0   3   23.13    0.66
  -1   1   3   21.75    0.62
   0  -1   3   22.76    0.67
   0  -1   3   21.81    0.63
   0  -1  -3   20.64    0.83
   1   0  -3   20.40    0.61
  -1   1  -3   21.46    0.68
   1   0  -3   21.78    0.80
  -1   1  -3   20.22    0.61
   1   0  -3   20.85    0.62
   1   0  -3   20.17    0.65
   0   1   3   21.40    0.69
   0   1   3   21.88    0.64
   1  -1   3   22.28    0.67
   1  -1   3   23.31    0.68
   1  -1   3   23.00    0.97
  -1   0   3   22.41    0.65
   0   1   3   22.67    0.65
   0   1   3   22.48    0.63
  -1   0   3   23.24    0.92
  -1   0   3   22.93    0.63
   1  -1   3   22.74    0.65
   0   1   3   23.09    0.65
   0   1   3   22.77    0.63
  -1   0   3   22.51    0.68
  -1   0   3   22.82    0.67
   0   1   3   22.74    0.91
   1  -1   3   21.92    0.67
  -1   0   3   22.87    0.64
   1  -1   3   23.19    0.67
  -1  -1  -3    1.58    0.17
   2  -1  -3    1.45    0.16
  -1   2  -3    1.56    0.20
  -1  -1  -3    1.42    0.23
  -1   2  -3    1.62    0.17
   2  -1  -3    1.63    0.19
  -1  -1  -3    1.60    0.18
  -1   2  -3    1.60    0.19
   2  -1  -3    1.40    0.20
   1   1   3    1.18    0.17
   1  -2   3    1.41    0.17
   1   1   3    1.28    0.19
  -2   1   3    1.74    0.23
  -2   1   3    1.43    0.18
   1   1   3    1.45    0.19
   1   1   3    1.47    0.25
   1   1   3    1.33    0.16
   1  -2   3    1.24    0.18
   1  -2   3    1.29    0.17
   1   1   3    1.25    0.17
   1  -2   3    1.25    0.25
   1  -2   3    1.29    0.16
   1  -2   3    1.17    0.17
  -2   1   3    1.19    0.16
  -2   1   3    1.44    0.16
  -2   1   3    1.29    0.18
   3  -2  -3  106.02    2.33
   3  -2  -3  111.15    2.73
  -1   3  -3  103.83    2.25
  -1   3  -3  105.87    2.35
  -2  -1  -3  102.09    2.89
  -2  -1  -3  101.64    2.19
  -2  -1  -3  105.79    2.19
   3  -2  -3  107.70    2.98
  -1   3  -3  104.19    2.12
  -1   3  -3  103.76    2.25
   1  -3   3   99.09    2.23
  -3   2   3  101.30    2.28
  -3   2   3   99.38    2.30
   1  -3   3  102.15    2.27
   2   1   3  102.32    3.14
   2   1   3   99.50    2.26
   2   1   3  104.43    2.20
  -3   2   3  102.85    2.15
   1  -3   3  100.96    3.18
   2   1   3  105.15    2.37
   1  -3   3   99.33    2.24
   1  -3   3  103.94    2.19
   2   1   3   99.56    2.21
   1  -3   3  101.40    2.13
   2   1   3  102.78    2.22
   2   1   3  102.01    2.17
   0   2  -3    7.61    0.36
  -2   0  -3    8.43    0.35
  -2   0  -3    8.20    0.50
   0   2  -3    7.88    0.35
   2  -2  -3    8.18    0.42
   0   2  -3    8.03    0.32
  -2   0  -3    7.96    0.36
   2  -2  -3    7.42    0.38
   2   0   3    7.62    0.36
   2   0   3    7.70    0.35
  -2   2   3    7.28    0.42
  -2   2   3    7.01    0.36
   0  -2   3    7.02    0.37
  -2   2   3    7.27    0.30
   2   0   3    6.94    0.36
   2   0   3    7.43    0.36
   0  -2   3    7.69    0.37
   0  -2   3    7.78    0.37
  -2   2   3    7.23    0.32
   2   0   3    7.90    0.52
  -2   2   3    7.66    0.34
   2   0   3    7.49    0.38
   0  -2   3    6.91    0.49
   0  -2   3    6.85    0.34
   0  -2   3    7.56    0.31
   1   1  -3    1.43    0.18
  -2   1  -3    1.93    0.21
  -2   1  -3    1.46    0.18
  -2   1  -3    1.54    0.18
   1   1  -3    1.45    0.16
   1  -2  -3    1.24    0.19
   1  -2  -3    1.51    0.22
   1   1  -3    1.52    0.17
  -1  -1   3    1.42    0.16
  -1  -1   3    1.50    0.17
   2  -1   3    1.34    0.18
  -1  -1   3    1.33    0.25
   2  -1   3    1.40    0.19
   2  -1   3    1.14    0.24
  -1  -1   3    1.46    0.18
  -1  -1   3    1.33    0.19
   2  -1   3    1.02    0.17
  -1   2   3    1.26    0.16
  -1   2   3    1.59    0.21
   2  -1   3    1.16    0.17
  -1   2   3    1.38    0.15
  -1   2   3    1.44    0.18
  -1   2   3    1.40    0.16
  -1  -1   3    1.20    0.17
  -1   2   3    1.22    0.21
   2  -1   3    1.33    0.18
   2   0  -3    7.36    0.37
   2   0  -3    7.21    0.33
  -2   2  -3    7.26    0.33
   2   0  -3    7.14    0.32
  -2   2  -3    7.09    0.36
   0  -2  -3    7.27    0.44
   2   0  -3    7.42    0.46
   0  -2  -3    7.28    0.31
  -2   2  -3    7.33    0.36
   0   2   3    6.52    0.36
  -2   0   3    7.10    0.45
   2  -2   3    6.53    0.34
   0   2   3    7.14    0.45
   2  -2   3    7.11    0.36
  -2   0   3    6.55    0.32
   0   2   3    6.76    0.29
   0   2   3    7.09    0.31
   0   2   3    6.85    0.34
   2  -2   3    6.60    0.35
   0   2   3    7.03    0.34
   2  -2   3    6.80    0.33
  -2   0   3    7.74    0.34
   2  -2   3    6.41    0.33
  -2   0   3    6.25    0.31
   0   2   3    6.90    0.30
  -2   0   3    6.38    0.35
   2  -2   3    6.80    0.50
   3  -1  -3  103.30    2.92
  -1  -2  -3  102.82    2.10
  -1  -2  -3   99.24    2.79
  -2   3  -3  101.44    2.26
   3  -1  -3  103.65    2.59
   3  -1  -3  101.12    2.06
  -2   3  -3  101.32    2.08
   3  -1  -3  100.13    2.22
  -2   3  -3   98.24    2.19
   1   2   3   97.84    2.18
   2  -3   3  101.55    2.15
   1   2   3   99.68    3.00
   1   2   3   97.56    2.11
   2  -3   3   96.62    3.09
   2  -3   3   97.32    2.19
   1   2   3   98.39    2.14
   2  -3   3   97.17    2.09
  -3   1   3   99.55    2.11
  -3   1   3   97.88    2.23
  -3   1   3   97.82    2.06
  -3   1   3   98.73    2.21
   1   2   3   95.91    2.09
   1   2   3   97.78    2.28
   2  -3   3   96.89    2.19
   2  -3   3   98.23    2.18
   1   2   3   97.04    2.09
   4  -2  -3   35.07    1.17
  -2   4  -3   33.72    0.95
  -2   4  -3   34.05    1.00
  -2   4  -3   33.37    0.87
   4  -2  -3   34.78    0.98
  -2  -2  -3   34.38    0.89
  -2  -2  -3   33.09    1.23
   4  -2  -3   33.46    0.87
  -2   4  -3   33.25    0.96
   2   2   3   34.14    0.96
   2  -4   3   34.28    0.97
  -4   2   3   33.84    0.96
  -4   2   3   35.25    0.97
   2   2   3   35.13    1.32
   2  -4   3   32.52    1.36
   2   2   3   33.98    0.95
   2   2   3   34.06    0.93
  -4   2   3   35.16    0.88
   2   2   3   34.00    0.89
   2  -4   3   34.56    0.98
   2   2   3   34.60    1.01
   2  -4   3   34.85    0.96
   2   2   3   35.14    0.93
   2  -4   3   34.39    0.89
   5  -3  -3   44.48    1.07
  -3  -2  -3   43.47    1.51
  -2   5  -3   43.18    1.16
   5  -3  -3   43.31    1.10
   5  -3  -3   43.59    1.19
  -2   5  -3   44.13    1.17
  -2   5  -3   44.08    1.22
  -3  -2  -3   43.46    1.10
   3   2   3   42.62    1.12
   2  -5   3   43.13    1.08
   3   2   3   43.35    1.62
   3   2   3   45.03    1.14
   2  -5   3   41.94    1.65
   3   2   3   43.49    1.18
   2  -5   3   44.11    1.17
  -5   3   3   42.74    1.09
   2  -5   3   42.90    1.18
   2  -5   3   43.81    1.16
  -5   3   3   43.22    1.19
   3   2   3   42.38    1.15
   3   2   3   44.20    1.24
  -5   3   3   42.40    1.16
   4  -3  -3   48.73    1.18
  -3  -1  -3   49.18    1.62
   4  -3  -3   50.25    1.30
  -1   4  -3   49.05    1.24
  -1   4  -3   49.41    1.23
   4  -3  -3   51.22    1.42
   4  -3  -3   50.02    1.14
  -1   4  -3   49.36    1.31
  -3  -1  -3   48.67    1.20
   1  -4   3   48.94    1.24
   1  -4   3   47.61    1.78
  -4   3   3   49.42    1.29
   3   1   3   47.70    1.23
  -4   3   3   47.11    1.17
   3   1   3   48.51    1.20
   3   1   3   48.70    1.27
   1  -4   3   47.99    1.26
   3   1   3   50.39    1.32
   3   1   3   49.00    1.23
   1  -4   3   48.27    1.14
   3   1   3   49.89    1.21
   1  -4   3   48.20    1.25
  -4   3   3   48.31    1.24
   3   1   3   48.07    1.75
   3  -3  -3  182.31    4.40
   3  -3  -3  173.55    3.42
  -3   0  -3  180.59    3.55
   0   3  -3  172.43    3.52
   3  -3  -3  174.88    3.70
  -3   0  -3  176.15    4.58
   0   3  -3  168.23    3.52
  -3   0  -3  169.90    3.51
  -3   3   3  176.44    4.73
   0  -3   3  170.38    3.66
   3   0   3  165.68    3.47
   3   0   3  170.84    3.52
  -3   3   3  167.87    3.39
  -3   3   3  170.11    3.67
   0  -3   3  171.13    3.53
   0  -3   3  168.33    3.52
   3   0   3  170.27    3.41
  -3   3   3  173.05    3.58
   3   0   3  171.37    3.69
   3   0   3  171.79    3.53
   0  -3   3  168.73    4.99
   3   0   3  166.51    3.58
   3   0   3  170.81    5.00
   0  -3   3  166.55    3.55
  -3   3   3  171.16    3.39
   1   2  -3  103.22    2.22
   2  -3  -3  107.10    2.81
   1   2  -3  104.29    3.15
  -3   1  -3  105.83    2.27
   2  -3  -3  103.56    2.36
   1   2  -3  109.22    2.22
  -3   1  -3  107.39    2.27
  -3   1  -3  100.90    2.18
   1   2  -3  100.54    2.20
   3  -1   3  101.84    2.22
  -1  -2   3  102.03    2.21
   3  -1   3  102.08    2.25
   3  -1   3  101.29    3.19
  -1  -2   3  103.91    2.27
  -2   3   3  103.26    2.18
  -1  -2   3  103.60    2.34
   3  -1   3  101.47    2.24
  -2   3   3  102.44    2.23
   3  -1   3  100.99    2.28
   3  -1   3  102.71    2.33
  -2   3   3  104.37    2.36
  -1  -2   3  104.78    2.20
  -2   3   3  102.85    2.17
  -2   3   3  102.67    2.17
  -2   3   3  105.95    2.98
  -1  -2   3  100.92    2.23
   1  -3  -3  100.69    2.74
  -3   2  -3  102.55    2.21
   1  -3  -3  100.57    2.29
   2   1  -3  101.71    3.00
   2   1  -3  100.56    2.12
   2   1  -3   98.73    2.09
  -3   2  -3   97.07    2.10
  -3   2  -3  100.57    2.21
   2   1  -3  101.70    2.16
  -1   3   3   99.64    2.12
  -2  -1   3   98.47    2.25
  -1   3   3   96.52    2.12
  -1   3   3  100.47    2.28
  -2  -1   3  100.81    2.10
   3  -2   3  100.66    2.22
  -1   3   3  100.12    2.11
   3  -2   3   98.77    2.19
   3  -2   3   95.20    2.12
  -2  -1   3  100.38    2.13
  -2  -1   3   97.29    2.16
   3  -2   3   97.34    2.20
  -1   3   3   96.71    2.10
  -1   3   3   96.15    2.89
   3  -2   3   98.36    2.18
  -2  -1   3  100.55    2.15
   3  -2   3   96.64    3.08
   3   0  -3  177.42    4.91
   0  -3  -3  179.27    3.45
   3   0  -3  178.47    3.64
   3   0  -3  173.49    4.32
   0  -3  -3  176.64    4.56
   3   0  -3  174.27    3.47
  -3   3  -3  179.92    3.69
  -3   3  -3  173.97    3.62
  -3   3  -3  175.32    3.47
   0   3   3  172.19    3.74
  -3   0   3  170.57    3.47
  -3   0   3  173.72    3.55
   0   3   3  169.17    3.50
   0   3   3  173.12    3.45
   3  -3   3  166.62    3.60
  -3   0   3  172.86    3.69
   3  -3   3  170.69    3.58
   0   3   3  171.16    3.45
  -3   0   3  173.52    3.62
   3  -3   3  177.97    3.63
   0   3   3  174.13    4.90
   3  -3   3  172.58    3.49
   0   3   3  171.70    3.44
   3  -3   3  170.26    3.59
   0   3   3  170.78    3.57
   3  -3   3  167.78    5.06
  -3   4  -3   48.14    1.23
   4  -1  -3   48.12    1.10
  -3   4  -3   46.14    1.13
   4  -1  -3   49.07    1.56
  -1  -3  -3   48.59    1.11
  -3   4  -3   48.47    1.26
   4  -1  -3   48.38    1.21
  -1  -3  -3   47.85    1.56
   1   3   3   47.01    1.20
  -4   1   3   45.89    1.20
   3  -4   3   44.95    1.21
   3  -4   3   46.80    1.16
  -4   1   3   46.25    1.15
   1   3   3   45.47    1.17
   3  -4   3   46.50    1.23
  -4   1   3   46.32    1.24
   1   3   3   47.27    1.14
   3  -4   3   48.09    1.14
   3  -4   3   45.84    1.22
   3  -4   3   47.06    1.74
   1   3   3   47.67    1.63
   1   3   3   46.63    1.21
   1   3   3   46.95    1.10
  -4   1   3   46.74    1.10
  -3   5  -3   46.19    1.14
  -3   5  -3   45.70    1.27
   5  -2  -3   47.41    1.14
  -2  -3  -3   44.00    1.56
  -2  -3  -3   46.78    1.13
   5  -2  -3   47.39    1.24
   5  -2  -3   45.87    1.14
   5  -2  -3   45.37    1.51
  -3   5  -3   44.92    1.23
  -3   5  -3   47.02    1.23
   2   3   3   46.78    1.29
  -5   2   3   47.69    1.14
   2   3   3   47.30    1.68
   3  -5   3   45.77    1.24
   3  -5   3   45.88    1.24
   3  -5   3   47.39    1.17
   3  -5   3   47.07    1.23
   2   3   3   47.38    1.22
  -5   2   3   48.48    1.14
   2   3   3   48.18    1.24
  -5   2   3   45.72    1.25
   2   3   3   47.44    1.17
   3  -5   3   46.85    1.77
   2   3   3   46.67    1.19
  -3   6  -3   75.82    1.87
  -3   6  -3   75.39    1.80
  -3   6  -3   73.75    1.80
  -3  -3  -3   73.53    2.31
   6  -3  -3   76.70    1.85
  -3   6  -3   74.93    1.69
   6  -3  -3   75.43    1.68
  -3  -3  -3   76.69    1.71
   6  -3  -3   75.74    1.70
   3   3   3   73.87    1.74
   3   3   3   74.78    1.54
   3   3   3   74.39    1.89
  -6   3   3   73.13    1.83
   3  -6   3   75.15    1.80
   3  -6   3   70.68    1.79
   3  -6   3   72.95    2.55
   3   3   3   75.72    1.83
   3   3   3   77.35    1.77
   3  -6   3   74.41    1.82
   3   3   3   75.12    1.78
  -6   3   3   74.85    1.69
   3  -6   3   75.25    1.70
   3   3   3   76.84    2.52
   7  -4  -3   10.26    0.51
  -3   7  -3    9.83    0.49
  -3   7  -3   10.59    0.45
  -3   7  -3   10.68    0.52
   7  -4  -3   10.22    0.47
  -3   7  -3    9.78    0.48
  -4  -3  -3    9.90    0.44
  -4  -3  -3   10.46    0.65
   7  -4  -3   10.36    0.45
  -3   7  -3    9.70    0.69
   4   3   3    9.79    0.35
   4   3   3   10.15    0.49
   3  -7   3    9.99    0.50
   3  -7   3    9.74    0.48
  -7   4   3    9.84    0.49
   4   3   3   10.10    0.49
   4   3   3   10.26    0.50
   4   3   3    9.64    0.50
   4   3   3    9.80    0.68
   4   3   3   10.10    0.53
   3  -7   3    9.59    0.69
   3  -7   3    9.69    0.50
  -7   4   3   10.40    0.47
   6  -4  -3   57.27    1.33
  -2   6  -3   58.15    1.52
  -2   6  -3   56.85    1.44
  -2   6  -3   56.53    1.44
  -2   6  -3   57.02    2.06
  -4  -2  -3   54.95    1.86
  -4  -2  -3   59.89    1.40
   6  -4  -3   58.17    1.38
   6  -4  -3   59.16    1.52
   4   2   3   56.70    1.20
  -6   4   3   55.81    1.37
   2  -6   3   55.89    1.46
   4   2   3   54.98    1.46
   4   2   3   56.59    1.43
   4   2   3   56.69    1.43
  -6   4   3   55.91    1.46
   2  -6   3   55.64    2.06
   4   2   3   56.60    1.40
   4   2   3   56.98    2.05
   2  -6   3   54.49    1.43
   2  -6   3   54.30    1.44
   4   2   3   53.34    1.50
  -1   5  -3    5.72    0.35
  -1   5  -3    6.00    0.37
  -4  -1  -3    5.70    0.33
  -1   5  -3    5.32    0.28
   5  -4  -3    5.74    0.37
   5  -4  -3    5.81    0.31
  -1   5  -3    5.70    0.35
  -4  -1  -3    5.78    0.45
  -1   5  -3    6.29    0.51
   5  -4  -3    5.99    0.34
   4   1   3    6.06    0.35
   4   1   3    6.43    0.38
   1  -5   3    6.22    0.35
  -5   4   3    6.37    0.38
   4   1   3    5.93    0.36
   4   1   3    6.28    0.39
  -5   4   3    6.19    0.30
   4   1   3    5.74    0.35
   1  -5   3    6.02    0.31
   1  -5   3    5.50    0.35
   1  -5   3    5.92    0.50
   4   1   3    5.67    0.33
  -5   4   3    6.19    0.35
  -5   4   3    6.03    0.35
   4   1   3    5.93    0.50
   1  -5   3    6.01    0.37
   4  -4  -3   84.64    1.77
   0   4  -3   83.52    1.93
   0   4  -3   79.60    2.71
   4  -4  -3   83.26    2.04
   4  -4  -3   82.05    1.88
  -4   0  -3   83.86    1.93
  -4   0  -3   80.86    2.52
   4  -4  -3   85.36    2.34
   0   4  -3   80.60    1.91
  -4   0  -3   87.30    1.89
  -4   4   3   85.16    1.87
   0  -4   3   88.56    1.96
   4   0   3   88.14    2.79
  -4   4   3   86.56    1.83
   4   0   3   86.15    1.95
   0  -4   3   89.00    1.99
   4   0   3   85.94    1.99
  -4   4   3   89.81    1.95
   0  -4   3   85.74    2.03
   4   0   3   85.04    1.87
  -4   4   3   87.33    2.04
   0  -4   3   85.51    1.92
   4   0   3   89.32    1.94
   4   0   3   85.88    2.03
  -4   1  -3   50.16    1.21
  -4   1  -3   49.07    1.24
   1   3  -3   49.36    1.23
   3  -4  -3   49.83    1.32
   3  -4  -3   50.70    1.51
   1   3  -3   49.98    1.20
   1   3  -3   49.98    1.75
   3  -4  -3   50.32    1.21
  -4   1  -3   49.49    1.21
  -3   4   3   49.52    1.19
   4  -1   3   48.37    1.79
  -1  -3   3   47.61    1.26
  -3   4   3   49.09    1.31
  -1  -3   3   48.08    1.30
   4  -1   3   47.19    1.17
   4  -1   3   49.06    1.24
   4  -1   3   47.28    1.26
  -1  -3   3   47.79    1.23
   4  -1   3   48.64    1.26
   4  -1   3   48.55    1.24
  -3   4   3   49.82    1.18
  -3   4   3   46.92    1.19
  -1  -3   3   48.41    1.19
   4  -1   3   48.42    1.29
   2  -4  -3   33.72    1.16
  -4   2  -3   33.96    0.92
  -4   2  -3   33.59    0.97
   2  -4  -3   33.37    1.01
   2   2  -3   33.77    1.30
   2   2  -3   34.24    0.88
   2   2  -3   33.82    0.92
  -4   2  -3   33.76    0.94
  -2   4   3   34.00    0.88
   4  -2   3   35.00    0.97
  -2  -2   3   33.72    1.00
   4  -2   3   34.96    0.95
  -2  -2   3   33.66    0.95
   4  -2   3   34.29    0.97
  -2   4   3   34.09    1.13
  -2   4   3   34.21    0.93
   4  -2   3   35.02    0.98
   4  -2   3   34.23    0.95
  -2   4   3   34.16    1.01
  -2   4   3   33.97    0.86
  -2   4   3   35.06    0.92
  -2  -2   3   34.13    0.93
   4  -2   3   33.78    1.38
  -2  -2   3   34.76    0.88
   3   1  -3   48.79    1.15
  -4   3  -3   48.38    1.23
   1  -4  -3   47.20    1.28
  -4   3  -3   46.51    1.23
  -4   3  -3   47.93    1.17
   3   1  -3   47.60    1.15
  -4   3  -3   47.55    1.24
   3   1  -3   48.34    1.10
   1  -4  -3   47.66    1.53
   3   1  -3   48.98    1.64
  -3  -1   3   46.04    1.26
  -3  -1   3   46.19    1.16
  -1   4   3   47.46    1.28
  -1   4   3   47.42    1.17
  -3  -1   3   47.10    1.20
  -1   4   3   48.87    1.54
   4  -3   3   47.22    1.19
  -1   4   3   46.63    1.18
   4  -3   3   47.53    1.21
  -3  -1   3   46.57    1.09
   4  -3   3   44.88    1.21
   4  -3   3   44.01    1.71
  -1   4   3   46.72    1.18
   4  -3   3   46.82    1.23
   4  -3   3   46.36    1.23
   0  -4  -3   87.46    2.62
  -4   4  -3   85.73    2.08
  -4   4  -3   85.69    2.08
   4   0  -3   88.34    1.96
  -4   4  -3   87.07    1.98
   4   0  -3   90.40    2.78
   4   0  -3   89.48    2.05
  -4   4  -3   88.46    2.12
   0   4   3   92.31    2.00
   4  -4   3   93.27    2.98
  -4   0   3   92.85    2.04
   0   4   3   96.56    2.78
   0   4   3   93.18    2.04
  -4   0   3   94.43    1.98
   0   4   3   93.87    2.18
   0   4   3   92.99    1.94
   4  -4   3   92.52    2.02
   4  -4   3   94.61    2.10
  -4   0   3   92.43    2.15
   0   4   3   92.13    2.05
   4  -4   3   91.93    2.10
   4  -4   3   91.64    2.09
   4  -4   3   96.68    2.06
   5  -1  -3    5.44    0.29
   5  -1  -3    5.60    0.40
  -4   5  -3    5.15    0.35
  -4   5  -3    5.67    0.33
   5  -1  -3    4.99    0.31
   5  -1  -3    5.74    0.34
  -1  -4  -3    5.62    0.44
  -4   5  -3    5.62    0.35
  -5   1   3    5.41    0.32
   1   4   3    5.61    0.30
   1   4   3    6.26    0.45
   4  -5   3    5.04    0.34
   4  -5   3    6.12    0.35
   1   4   3    5.94    0.36
   4  -5   3    5.96    0.36
   1   4   3    5.80    0.35
  -5   1   3    6.30    0.38
   1   4   3    5.23    0.35
   4  -5   3    6.04    0.36
   1   4   3    5.53    0.33
   4  -5   3    5.58    0.49
   6  -2  -3   57.06    1.37
  -4   6  -3   56.97    1.47
  -4   6  -3   58.96    1.53
  -4   6  -3   57.81    1.47
   6  -2  -3   58.88    1.48
  -2  -4  -3   57.63    1.89
   6  -2  -3   57.64    1.35
  -4   6  -3   59.56    1.40
   2   4   3   57.15    1.41
   4  -6   3   57.50    1.40
   2   4   3   57.46    1.22
   2   4   3   56.59    1.47
  -6   2   3   56.75    1.50
   2   4   3   57.62    1.39
  -6   2   3   55.84    1.34
   4  -6   3   54.69    1.45
   4  -6   3   55.61    2.08
  -6   2   3   58.16    1.38
   4  -6   3   55.70    1.47
   4  -6   3   56.22    1.47
   2   4   3   57.67    1.99
   2   4   3   58.10    1.45
   7  -3  -3   10.75    0.51
  -3  -4  -3   10.21    0.43
  -4   7  -3   10.02    0.50
  -4   7  -3   10.30    0.50
  -4   7  -3   11.01    0.53
  -4   7  -3   10.28    0.45
   7  -3  -3   10.06    0.45
  -3  -4  -3   10.20    0.64
   7  -3  -3    9.69    0.45
  -7   3   3    9.97    0.51
   4  -7   3    9.70    0.69
  -7   3   3    9.84    0.45
   3   4   3   10.59    0.52
   3   4   3    9.70    0.66
   3   4   3    9.94    0.50
   3   4   3    9.52    0.46
   4  -7   3    9.48    0.48
   4  -7   3   10.03    0.50
   3   4   3   10.03    0.35
   3   4   3    9.57    0.51
   4  -7   3    9.55    0.48
   3   4   3   10.49    0.48
  -4  -4  -3    3.35    0.39
   8  -4  -3    3.94    0.31
  -4   8  -3    3.39    0.32
   8  -4  -3    3.30    0.30
   8  -4  -3    4.06    0.34
  -4   8  -3    3.76    0.33
  -4   8  -3    4.00    0.31
  -4  -4  -3    3.73    0.27
  -4   8  -3    3.75    0.33
   4   4   3    3.29    0.32
   4  -8   3    3.25    0.31
  -8   4   3    3.02    0.30
   4   4   3    3.67    0.23
   4  -8   3    3.39    0.31
   4   4   3    3.30    0.32
   4  -8   3    3.77    0.44
  -8   4   3    3.42    0.32
   4   4   3    3.31    0.30
   4  -8   3    3.50    0.32
   4   4   3    3.44    0.43
   4   4   3    3.22    0.32
   4   4   3    3.44    0.30
   9  -5  -3   21.31    0.75
  -4   9  -3   22.65    0.86
  -4   9  -3   22.45    0.81
  -5  -4  -3   21.67    1.05
  -4   9  -3   22.09    0.82
  -5  -4  -3   22.64    0.75
   9  -5  -3   22.21    0.78
  -4   9  -3   22.61    0.76
   9  -5  -3   21.26    0.84
  -4   9  -3   22.43    1.14
   5   4   3   20.98    0.80
   5   4   3   21.89    1.15
   4  -9   3   20.36    0.80
   4  -9   3   21.35    0.81
   5   4   3   21.52    0.86
   5   4   3   21.81    0.80
   5   4   3   20.97    0.66
  -9   5   3   21.77    0.84
   4  -9   3   22.89    0.83
   5   4   3   22.00    0.84
   5   4   3   22.73    0.82
  -3   8  -3   36.62    1.10
  -5  -3  -3   36.53    1.43
  -5  -3  -3   38.69    1.05
  -3   8  -3   36.20    1.14
  -3   8  -3   37.62    1.10
   8  -5  -3   37.70    1.15
   8  -5  -3   37.09    1.05
  -3   8  -3   37.38    1.55
   8  -5  -3   37.82    1.02
   5   3   3   34.79    1.14
   3  -8   3   35.22    1.10
   5   3   3   33.86    1.07
   3  -8   3   36.02    1.10
   5   3   3   35.27    1.55
  -8   5   3   36.75    1.13
   5   3   3   36.17    0.92
   5   3   3   35.29    1.12
  -8   5   3   34.98    1.04
   5   3   3   34.89    1.05
   5   3   3   36.45    1.09
   3  -8   3   36.66    1.10
  -2   7  -3    1.06    0.28
  -2   7  -3    1.03    0.19
   7  -5  -3    0.88    0.20
  -5  -2  -3    0.83    0.17
  -2   7  -3    1.11    0.21
   7  -5  -3    1.15    0.20
   7  -5  -3    1.08    0.18
  -2   7  -3    1.03    0.17
  -2   7  -3    1.04    0.21
  -5  -2  -3    1.26    0.28
   5   2   3    0.96    0.20
   5   2   3    1.30    0.31
   5   2   3    0.84    0.21
   5   2   3    1.25    0.22
   2  -7   3    1.03    0.21
  -7   5   3    1.01    0.20
   5   2   3    1.02    0.13
   5   2   3    0.84    0.20
  -7   5   3    0.80    0.18
   2  -7   3    0.85    0.20
   2  -7   3    1.09    0.20
   5   2   3    1.14    0.21
  -5  -1  -3   12.67    0.54
   6  -5  -3   12.26    0.49
  -1   6  -3   12.82    0.79
  -1   6  -3   11.51    0.58
  -1   6  -3   11.98    0.54
   6  -5  -3   12.66    0.54
  -5  -1  -3   12.16    0.73
   6  -5  -3   12.75    0.59
  -6   5   3   16.47    0.59
   5   1   3   14.99    0.85
  -6   5   3   16.70    0.59
   5   1   3   16.24    0.65
   5   1   3   15.94    0.43
   1  -6   3   15.14    0.60
  -6   5   3   16.35    0.64
   5   1   3   15.42    0.62
   1  -6   3   15.43    0.61
   1  -6   3   15.27    0.58
   5   1   3   15.05    0.60
   5   1   3   15.43    0.60
   5   1   3   15.30    0.58
   0   5  -3   34.90    1.02
  -5   0  -3   36.48    1.03
   5  -5  -3   34.53    1.07
   5  -5  -3   37.51    1.18
  -5   0  -3   35.51    1.35
   5  -5  -3   35.29    0.99
   0   5  -3   33.65    1.42
   5  -5  -3   35.95    0.91
   0   5  -3   35.40    1.01
   0   5  -3   35.68    1.09
  -5   5   3   37.17    0.99
   5   0   3   37.19    0.80
   5   0   3   36.39    1.05
   0  -5   3   36.19    1.06
   5   0   3   37.01    1.07
   5   0   3   35.52    1.01
   5   0   3   36.19    1.00
   0  -5   3   37.41    1.05
   5   0   3   36.98    1.09
   5   0   3   36.58    1.02
   5   0   3   36.65    1.49
   0  -5   3   36.78    1.08
   0  -5   3   36.84    1.01
  -5   5   3   36.65    0.95
  -5   5   3   36.17    1.08
  -5   5   3   37.22    1.01
  -5   1  -3    5.95    0.31
   4  -5  -3    5.65    0.38
   1   4  -3    5.44    0.46
  -5   1  -3    5.78    0.35
   1   4  -3    5.74    0.35
  -5   1  -3    5.92    0.47
  -5   1  -3    5.56    0.34
   4  -5  -3    6.00    0.38
   4  -5  -3    5.62    0.33
   1   4  -3    5.38    0.32
   5  -1   3    5.49    0.36
  -1  -4   3    5.83    0.32
   5  -1   3    6.06    0.18
   5  -1   3    6.45    0.37
  -4   5   3    6.22    0.32
   5  -1   3    6.30    0.36
   5  -1   3    5.60    0.34
  -4   5   3    6.50    0.35
  -4   5   3    6.32    0.38
   5  -1   3    5.72    0.35
   5  -1   3    6.34    0.37
  -1  -4   3    5.87    0.36
  -1  -4   3    5.78    0.37
   5  -1   3    6.09    0.51
  -4   5   3    6.05    0.33
  -1  -4   3    5.90    0.36
   3  -5  -3   44.84    1.42
  -5   2  -3   43.10    1.13
   3  -5  -3   43.06    1.23
   2   3  -3   42.63    1.13
   2   3  -3   43.87    1.61
  -5   2  -3   42.10    1.11
  -5   2  -3   43.35    1.16
   2   3  -3   43.64    1.08
   3  -5  -3   43.18    1.14
   5  -2   3   42.92    1.09
   5  -2   3   41.96    1.13
   5  -2   3   44.55    1.20
   5  -2   3   44.28    1.17
  -2  -3   3   43.60    1.17
  -3   5   3   39.97    1.04
  -2  -3   3   44.36    1.09
  -3   5   3   44.23    0.88
  -2  -3   3   43.79    1.14
   5  -2   3   43.00    1.17
   5  -2   3   43.43    1.67
  -3   5   3   41.81    1.20
  -2  -3   3   44.33    1.21
  -3   5   3   42.90    1.10
  -3   5   3   41.80    1.10
   5  -2   3   44.87    1.19
   3   2  -3   46.17    1.11
   2  -5  -3   46.58    1.30
  -5   3  -3   46.64    1.19
   3   2  -3   46.18    1.17
   2  -5  -3   44.68    1.51
   3   2  -3   45.49    1.66
  -5   3  -3   46.04    1.22
  -5   3  -3   45.35    1.23
  -2   5   3   47.96    1.19
   5  -3   3   47.48    1.25
   5  -3   3   46.34    1.24
  -2   5   3   47.37    1.30
  -2   5   3   47.01    1.16
   5  -3   3   46.85    1.23
  -3  -2   3   46.87    1.19
  -3  -2   3   46.86    1.22
   5  -3   3   45.46    1.76
  -3  -2   3   48.02    1.29
   5  -3   3   45.99    1.20
   5  -3   3   48.19    1.14
  -2   5   3   46.18    1.18
   5  -3   3   49.23    1.25
  -5   4  -3    5.10    0.34
  -5   4  -3    5.58    0.35
   1  -5  -3    4.90    0.35
   1  -5  -3    5.36    0.42
   4   1  -3    5.55    0.43
   4   1  -3    5.33    0.29
   4   1  -3    5.56    0.31
  -5   4  -3    5.65    0.33
  -5   4  -3    5.37    0.35
   5  -4   3    6.06    0.36
  -1   5   3    5.62    0.35
   5  -4   3    5.67    0.33
   5  -4   3    5.57    0.34
   5  -4   3    5.10    0.48
  -1   5   3    5.75    0.37
  -4  -1   3    6.15    0.35
  -4  -1   3    5.85    0.32
  -1   5   3    5.70    0.35
   5  -4   3    5.81    0.36
  -1   5   3    5.93    0.33
  -1   5   3    5.61    0.18
   5  -4   3    5.19    0.35
  -4  -1   3    6.17    0.38
   0  -5  -3   35.70    1.33
   0  -5  -3   36.82    1.14
   5   0  -3   36.34    0.99
   5   0  -3   37.48    1.37
  -5   5  -3   36.65    1.01
   5   0  -3   36.68    0.97
   5   0  -3   38.11    1.01
  -5   5  -3   34.90    1.07
  -5   5  -3   35.92    1.07
   0   5   3   38.45    1.35
   5  -5   3   38.17    1.04
   0   5   3   38.23    0.82
   0   5   3   36.86    1.05
   0   5   3   37.12    1.11
  -5   0   3   38.10    1.03
   5  -5   3   38.01    1.01
   5  -5   3   38.35    1.07
   5  -5   3   36.03    1.06
  -5   0   3   37.94    1.10
   0   5   3   37.75    1.04
   5  -5   3   36.79    1.07
   5  -5   3   37.36    1.53
   0   5   3   37.08    1.02
   6  -1  -3   11.69    0.46
   6  -1  -3   11.82    0.65
   6  -1  -3   11.16    0.50
  -5   6  -3   11.45    0.55
   6  -1  -3   11.91    0.48
  -5   6  -3   12.38    0.52
  -1  -5  -3   11.17    0.67
  -5   6  -3   10.57    0.53
   6  -1  -3   11.45    0.52
  -5   6  -3   10.39    0.53
   5  -6   3   15.49    0.61
   1   5   3   14.57    0.40
   1   5   3   13.99    0.61
   1   5   3   15.20    0.74
   5  -6   3   14.09    0.58
   5  -6   3   14.53    0.84
  -6   1   3   14.95    0.54
   1   5   3   14.00    0.57
   5  -6   3   15.01    0.56
  -6   1   3   13.82    0.59
   5  -6   3   15.05    0.60
   1   5   3   13.42    0.55
   1   5   3   14.49    0.51
   1   5   3   15.21    0.59
  -5   7  -3    1.16    0.22
  -2  -5  -3    1.04    0.26
   7  -2  -3    1.07    0.19
   7  -2  -3    1.14    0.20
  -5   7  -3    1.11    0.19
  -5   7  -3    1.20    0.20
  -5   7  -3    0.90    0.21
   7  -2  -3    1.22    0.20
  -7   2   3    1.11    0.19
   2   5   3    0.94    0.13
   2   5   3    0.62    0.19
   2   5   3    0.99    0.20
  -7   2   3    0.94    0.20
   5  -7   3    0.85    0.26
   2   5   3    1.05    0.26
   5  -7   3    1.13    0.20
   5  -7   3    1.12    0.22
   2   5   3    0.84    0.19
   5  -7   3    0.92    0.20
   5  -7   3    0.97    0.20
   2   5   3    0.89    0.17
   2   5   3    1.09    0.21
   8  -3  -3   37.73    1.04
  -5   8  -3   38.61    1.11
  -5   8  -3   36.67    1.15
  -5   8  -3   37.54    1.12
  -5   8  -3   37.23    1.05
  -3  -5  -3   36.41    1.43
   8  -3  -3   38.78    1.04
   8  -3  -3   38.51    1.13
   3   5   3   35.71    1.06
   5  -8   3   34.23    1.09
   3   5   3   34.96    1.15
  -8   3   3   36.33    1.14
   5  -8   3   34.84    1.10
   3   5   3   36.60    1.12
   3   5   3   35.87    1.09
   3   5   3   36.32    1.51
   3   5   3   35.47    1.05
   3   5   3   36.64    0.93
   5  -8   3   34.88    1.09
   5  -8   3   35.49    1.56
   9  -4  -3   22.03    0.83
  -5   9  -3   23.05    0.87
   9  -4  -3   22.18    0.77
  -5   9  -3   22.02    0.82
   9  -4  -3   21.61    0.76
  -4  -5  -3   22.81    1.08
  -5   9  -3   22.71    0.77
  -5   9  -3   23.11    0.83
  -9   4   3   22.22    0.85
   4   5   3   22.54    0.85
   4   5   3   21.88    0.80
   4   5   3   20.91    0.86
   4   5   3   22.79    0.81
   5  -9   3   23.47    0.85
   5  -9   3   20.57    0.81
   4   5   3   22.00    0.82
   5  -9   3   22.19    0.83
   4   5   3   21.69    0.67
   4   5   3   22.72    1.15
   5  -9   3   22.85    1.18
  10  -5  -3    1.03    0.22
  -5  -5  -3    0.99    0.28
  10  -5  -3    0.75    0.20
  -5  10  -3    0.72    0.20
  -5  10  -3    0.99    0.22
  -5  10  -3    0.82    0.20
  10  -5  -3    0.72    0.20
  -5  10  -3    0.79    0.27
  -5  10  -3    1.11    0.23
   5 -10   3    1.27    0.25
 -10   5   3    0.80    0.23
   5   5   3    1.00    0.23
   5   5   3    1.02    0.23
   5   5   3    0.83    0.23
   5   5   3    1.16    0.18
   5 -10   3    0.82    0.21
   5   5   3    0.77    0.29
   5   5   3    1.03    0.25
   5   5   3    1.15    0.24
  -5  11  -3   23.20    0.87
  -5  11  -3   22.86    0.92
  11  -6  -3   23.31    0.84
  11  -6  -3   23.69    0.86
  -5  11  -3   22.98    1.22
  -5  11  -3   22.86    0.82
  -5  11  -3   23.99    0.90
  11  -6  -3   23.25    0.92
  -6  -5  -3   23.63    1.15
   6   5   3   21.11    0.74
   5 -11   3   21.74    0.86
   6   5   3   23.82    1.28
   5 -11   3   21.90    0.87
   6   5   3   21.59    0.90
 -11   6   3   20.95    0.90
   6   5   3   22.51    0.89
   6   5   3   22.26    0.86
   6   5   3   21.18    0.91
   6   5   3   21.27    0.85
  -6  -4  -3    4.17    0.47
  -4  10  -3    4.82    0.39
  -4  10  -3    4.32    0.39
  -4  10  -3    4.92    0.36
  10  -6  -3    4.34    0.37
  10  -6  -3    4.43    0.39
  -4  10  -3    4.59    0.52
  -4  10  -3    4.28    0.37
  -6  -4  -3    4.95    0.35
  10  -6  -3    4.72    0.36
   4 -10   3    5.07    0.40
   4 -10   3    4.50    0.38
   6   4   3    4.71    0.40
   6   4   3    5.21    0.57
   6   4   3    4.59    0.39
   6   4   3    5.02    0.38
   6   4   3    4.78    0.30
   6   4   3    4.55    0.38
 -10   6   3    4.86    0.41
   6   4   3    5.08    0.40
  -3   9  -3   49.11    1.92
  -6  -3  -3   46.58    1.75
  -3   9  -3   47.65    1.41
  -3   9  -3   48.86    1.37
  -3   9  -3   48.32    1.25
   9  -6  -3   49.56    1.45
  -3   9  -3   47.61    1.35
   9  -6  -3   49.29    1.28
   9  -6  -3   48.45    1.32
  -6  -3  -3   48.75    1.31
   6   3   3   47.88    1.19
   6   3   3   46.47    1.43
   3  -9   3   49.26    1.39
   6   3   3   47.44    1.95
   6   3   3   47.69    1.40
   6   3   3   46.92    1.37
   6   3   3   47.15    1.34
  -9   6   3   47.29    1.31
   3  -9   3   47.48    1.37
  -9   6   3   47.87    1.40
   6   3   3   46.34    1.32
   8  -6  -3   44.13    1.22
   8  -6  -3   43.45    1.33
  -2   8  -3   43.68    1.79
  -2   8  -3   43.70    1.32
  -6  -2  -3   43.63    1.64
  -2   8  -3   44.35    1.27
  -6  -2  -3   45.87    1.24
  -2   8  -3   44.48    1.26
   8  -6  -3   45.02    1.17
  -8   6   3   46.11    1.30
   6   2   3   45.63    1.10
   6   2   3   44.71    1.83
   6   2   3   47.08    1.31
  -8   6   3   45.50    1.23
   2  -8   3   45.28    1.29
   6   2   3   45.32    1.27
   6   2   3   45.60    1.35
   6   2   3   45.04    1.31
   6   2   3   44.50    1.24
   2  -8   3   45.71    1.29
   7  -6  -3   44.46    1.27
   7  -6  -3   41.76    1.14
  -6  -1  -3   41.83    1.54
  -1   7  -3   40.48    1.65
  -1   7  -3   41.30    1.16
   7  -6  -3   42.03    1.06
  -1   7  -3   39.17    1.20
  -1   7  -3   40.46    1.15
  -6  -1  -3   41.57    1.15
   6   1   3   39.73    1.18
   1  -7   3   39.21    1.17
   6   1   3   39.13    1.22
   1  -7   3   40.09    1.19
  -7   6   3   40.22    1.16
   6   1   3   39.28    1.15
   6   1   3   39.76    1.68
  -7   6   3   39.17    1.11
   6   1   3   40.40    0.98
   6   1   3   40.17    1.13
   6   1   3   40.08    1.19
   0   6  -3  133.30    4.18
   6  -6  -3  139.54    2.89
   0   6  -3  135.54    3.09
  -6   0  -3  133.04    3.83
  -6   0  -3  136.67    2.96
   6  -6  -3  136.20    3.12
   6  -6  -3  137.85    2.74
   0   6  -3  134.91    2.95
   0   6  -3  136.38    2.95
  -6   6   3  134.35    3.10
   0  -6   3  137.51    3.01
   6   0   3  136.07    4.24
   0  -6   3  134.40    2.97
   6   0   3  132.73    2.92
   6   0   3  135.65    2.87
   6   0   3  135.03    2.75
  -6   6   3  138.31    2.82
   6   0   3  133.47    3.11
  -6   6   3  137.19    2.98
   6   0   3  136.99    3.04
   6   0   3  134.52    2.98
  -6   6   3  136.55    2.86
   5  -6  -3   11.36    0.52
   5  -6  -3   12.25    0.62
  -6   1  -3   11.50    0.72
  -6   1  -3   11.84    0.55
   1   5  -3   12.23    0.77
   1   5  -3   12.42    0.52
   5  -6  -3   11.92    0.58
  -6   1  -3   11.50    0.52
   1   5  -3   11.88    0.54
  -6   1  -3   12.45    0.50
  -1  -5   3   15.55    0.61
  -1  -5   3   15.49    0.62
   6  -1   3   16.02    0.60
   6  -1   3   15.69    0.62
   6  -1   3   15.75    0.51
  -1  -5   3   16.03    0.63
   6  -1   3   15.55    0.42
  -5   6   3   16.02    0.54
  -5   6   3   15.09    0.56
   6  -1   3   15.44    0.59
   6  -1   3   16.02    0.64
   6  -1   3   14.61    0.85
  -5   6   3   15.92    0.63
   6  -1   3   15.98    0.59
  -5   6   3   16.18    0.56
   6  -1   3   15.06    0.60
   4  -6  -3   58.01    1.41
   2   4  -3   58.57    1.39
  -6   2  -3   57.94    1.41
   4  -6  -3   58.40    1.54
  -6   2  -3   56.97    1.46
   2   4  -3   58.02    2.02
  -6   2  -3   56.39    1.39
   4  -6  -3   58.74    1.77
   2   4  -3   55.53    1.42
   6  -2   3   56.06    1.42
   6  -2   3   55.32    1.44
  -4   6   3   57.47    1.39
   6  -2   3   57.09    1.47
  -4   6   3   55.40    1.38
  -2  -4   3   54.44    1.49
   6  -2   3   56.83    1.21
   6  -2   3   56.29    1.38
   6  -2   3   55.28    1.46
  -2  -4   3   54.94    1.45
  -4   6   3   56.22    1.51
  -2  -4   3   57.51    1.44
   6  -2   3   56.06    1.33
   6  -2   3   55.01    2.07
   6  -2   3   55.72    1.50
   3   3  -3   76.53    1.69
   3  -6  -3   72.79    1.88
   3  -6  -3   74.60    2.22
  -6   3  -3   76.84    1.75
   3   3  -3   75.46    1.75
  -6   3  -3   77.07    1.80
   3  -6  -3   75.67    1.76
   3   3  -3   74.85    2.48
  -6   3  -3   77.25    1.83
  -3   6   3   72.91    1.69
   6  -3   3   75.00    1.69
  -3   6   3   75.49    1.88
   6  -3   3   75.50    1.77
  -3  -3   3   74.98    1.76
  -3  -3   3   75.94    1.81
  -3   6   3   73.44    1.72
  -3   6   3   72.49    1.72
   6  -3   3   77.59    1.69
   6  -3   3   70.99    2.55
   6  -3   3   74.00    1.80
  -3  -3   3   75.05    1.87
   6  -3   3   73.26    1.83
   6  -3   3   72.41    1.53
   6  -3   3   75.44    1.83
   6  -3   3   73.57    1.81
   4   2  -3   57.66    1.40
  -6   4  -3   57.81    1.41
   4   2  -3   58.27    1.99
  -6   4  -3   58.62    1.48
  -6   4  -3   59.07    1.48
  -6   4  -3   57.10    1.48
   2  -6  -3   59.42    1.85
   2  -6  -3   57.88    1.55
  -4  -2   3   54.77    1.44
  -2   6   3   57.81    1.40
   6  -4   3   55.90    1.47
  -2   6   3   58.16    1.22
   6  -4   3   56.92    1.43
   6  -4   3   55.67    2.09
   6  -4   3   57.28    1.21
   6  -4   3   57.26    1.47
  -4  -2   3   55.37    1.52
  -2   6   3   56.76    1.43
   6  -4   3   56.11    1.34
   6  -4   3   58.29    1.47
   6  -4   3   56.86    1.48
  -2   6   3   56.07    1.53
  -2   6   3   57.11    1.41
  -6   5  -3   11.80    0.55
  -6   5  -3   11.47    0.52
   5   1  -3   11.53    0.50
   5   1  -3   11.53    0.69
   1  -6  -3   10.80    0.66
  -6   5  -3   11.53    0.56
  -6   5  -3   11.75    0.56
  -1   6   3   14.96    0.58
  -1   6   3   14.03    0.56
   6  -5   3   14.59    0.50
  -5  -1   3   15.30    0.63
  -1   6   3   14.88    0.62
   6  -5   3   14.01    0.54
   6  -5   3   15.21    0.60
   6  -5   3   15.25    0.61
  -1   6   3   15.39    0.57
   6  -5   3   14.38    0.57
   6  -5   3   14.66    0.59
  -5  -1   3   14.52    0.57
   6  -5   3   14.76    0.85
  -1   6   3   14.72    0.41
   0  -6  -3  138.71    3.12
   0  -6  -3  133.46    3.76
   6   0  -3  133.09    2.80
   6   0  -3  143.39    4.02
  -6   6  -3  133.02    2.97
  -6   6  -3  135.70    2.86
  -6   6  -3  136.18    2.98
   6   0  -3  136.15    2.93
   6   0  -3  137.65    2.83
  -6   6  -3  134.98    3.04
   6  -6   3  129.60    4.17
  -6   0   3  132.55    3.04
   0   6   3  131.99    3.07
   0   6   3  133.09    2.90
   6  -6   3  133.40    2.92
   0   6   3  131.99    2.71
   6  -6   3  134.10    2.96
   6  -6   3  132.57    2.88
   6  -6   3  130.84    2.95
   6  -6   3  128.98    2.96
  -6   0   3  133.93    2.91
   0   6   3  129.70    2.82
   0   6   3  135.27    2.95
  -6   7  -3   42.16    1.15
  -1  -6  -3   41.57    1.54
  -6   7  -3   41.57    1.22
  -6   7  -3   42.98    1.22
  -6   7  -3   40.61    1.23
   7  -1  -3   44.55    1.18
   7  -1  -3   44.43    1.09
   7  -1  -3   42.11    1.14
   1   6   3   42.73    1.16
   1   6   3   41.56    1.00
   1   6   3   44.26    1.60
   1   6   3   40.60    1.19
   6  -7   3   40.92    1.21
   6  -7   3   40.55    1.16
  -7   1   3   41.34    1.15
  -7   1   3   41.95    1.25
   6  -7   3   41.06    1.71
   1   6   3   41.84    1.26
   1   6   3   41.60    1.19
   6  -7   3   40.29    1.20
  -6   8  -3   43.70    1.29
  -6   8  -3   44.79    1.32
  -2  -6  -3   40.77    1.60
   8  -2  -3   43.77    1.25
  -6   8  -3   45.26    1.27
   8  -2  -3   43.72    1.19
  -6   8  -3   44.31    1.21
  -6   8  -3   44.04    1.28
   8  -2  -3   45.66    1.17
   6  -8   3   43.86    1.81
   2   6   3   45.21    1.29
   6  -8   3   44.14    1.27
   2   6   3   42.31    1.31
   2   6   3   45.55    1.09
   6  -8   3   44.20    1.28
   2   6   3   44.49    1.22
   2   6   3   45.17    1.19
   2   6   3   45.87    1.72
  -8   2   3   45.65    1.22
   2   6   3   43.66    1.26
   6  -8   3   44.47    1.28
  -8   2   3   43.60    1.32
   9  -3  -3   49.86    1.29
  -6   9  -3   51.63    1.35
  -6   9  -3   50.31    1.38
  -6   9  -3   49.53    1.45
  -6   9  -3   51.04    1.42
  -3  -6  -3   48.44    1.79
  -6   9  -3   49.37    1.40
   9  -3  -3   49.23    1.40
   9  -3  -3   49.53    1.32
   3   6   3   46.91    1.88
   3   6   3   49.81    1.35
   6  -9   3   46.84    1.37
   3   6   3   47.46    1.31
   6  -9   3   49.26    1.39
   6  -9   3   48.55    1.96
   6  -9   3   46.31    1.38
   3   6   3   47.15    1.40
   3   6   3   47.36    1.36
   3   6   3   48.80    1.21
   3   6   3   47.68    1.43
  -9   3   3   48.17    1.44
  -6  10  -3    4.39    0.36
  -6  10  -3    4.58    0.38
  10  -4  -3    4.82    0.39
  10  -4  -3    4.32    0.36
  -6  10  -3    4.64    0.38
  -6  10  -3    4.98    0.40
  -6  10  -3    4.72    0.53
  -4  -6  -3    4.36    0.48
  10  -4  -3    4.35    0.36
   4   6   3    4.85    0.41
   4   6   3    4.42    0.37
 -10   4   3    4.73    0.41
   4   6   3    4.36    0.39
   4   6   3    4.65    0.52
   4   6   3    5.33    0.41
   6 -10   3    4.81    0.54
   6 -10   3    4.84    0.40
   6 -10   3    4.76    0.37
   4   6   3    5.04    0.39
   4   6   3    4.73    0.30
   6 -10   3    4.16    0.37
  11  -5  -3   23.97    0.86
  -6  11  -3   24.10    0.88
  11  -5  -3   24.51    0.87
  -6  11  -3   24.10    0.94
  -6  11  -3   22.97    1.23
  -6  11  -3   22.69    0.89
  -5  -6  -3   23.35    1.15
  -6  11  -3   23.69    0.85
  11  -5  -3   22.84    0.92
   5   6   3   21.89    1.23
   5   6   3   22.11    0.88
   6 -11   3   22.70    0.76
   5   6   3   22.59    0.75
   5   6   3   22.31    0.91
   6 -11   3   23.05    0.89
   5   6   3   23.65    0.87
 -11   5   3   22.63    0.94
   5   6   3   22.17    0.93
   6 -11   3   23.25    0.90
  -6  12  -3   17.23    0.77
  -6  12  -3   18.02    0.83
  -6  12  -3   18.26    0.81
  12  -6  -3   17.07    0.75
  -6  -6  -3   17.48    1.02
  12  -6  -3   17.63    0.83
  12  -6  -3   17.31    0.77
  -6  12  -3   18.81    0.76
 -12   6   3   19.02    0.88
   6   6   3   19.23    0.80
   6 -12   3   20.62    0.84
   6 -12   3   19.13    0.81
   6   6   3   19.01    0.87
   6 -12   3   19.37    0.70
   6   6   3   19.17    0.81
   6   6   3   20.49    1.20
   6   6   3   18.36    0.84
   6   6   3   18.96    0.83
   6   6   3   17.86    0.68
  -6  13  -3    9.76    0.62
  -6  13  -3   10.01    0.58
  13  -7  -3    9.74    0.59
  -6  13  -3   10.11    0.61
  13  -7  -3   10.41    0.64
  -7  -6  -3   10.26    0.78
  13  -7  -3    9.58    0.57
  -6  13  -3   10.16    0.57
   7   6   3    9.94    0.60
   7   6   3    9.76    0.51
   6 -13   3    9.78    0.59
   7   6   3   10.38    0.61
   6 -13   3   10.72    0.61
   7   6   3    9.87    0.63
   7   6   3    9.24    0.62
   6 -13   3   10.37    0.52
 -13   7   3    9.44    0.62
   7   6   3   10.36    0.63
  -7  -5  -3   26.76    1.29
  12  -7  -3   29.16    1.02
  -5  12  -3   27.97    1.01
  12  -7  -3   28.21    1.09
  12  -7  -3   28.97    0.98
  -5  12  -3   26.90    1.03
  -5  12  -3   28.17    1.06
  -5  12  -3   28.86    0.96
   7   5   3   26.70    1.04
   7   5   3   27.71    1.01
   5 -12   3   28.10    1.02
   5 -12   3   27.36    1.02
   7   5   3   26.63    1.08
   7   5   3   28.13    1.07
   7   5   3   26.15    0.88
   7   5   3   27.89    1.00
 -12   7   3   26.73    1.08
  11  -7  -3    6.91    0.47
  -4  11  -3    6.60    0.63
  11  -7  -3    6.70    0.43
  -4  11  -3    6.48    0.46
  -7  -4  -3    6.73    0.60
  -4  11  -3    7.36    0.44
  11  -7  -3    6.45    0.48
  -7  -4  -3    6.73    0.44
  -4  11  -3    6.78    0.48
  -4  11  -3    6.70    0.47
   4 -11   3    7.40    0.49
   7   4   3    7.06    0.51
   7   4   3    6.41    0.65
 -11   7   3    6.91    0.50
   7   4   3    7.56    0.52
   7   4   3    7.36    0.49
   7   4   3    6.87    0.38
   7   4   3    7.23    0.50
   7   4   3    6.55    0.46
   4 -11   3    7.11    0.48
  10  -7  -3   18.82    0.76
  -3  10  -3   18.12    0.79
  -3  10  -3   18.62    1.08
  -7  -3  -3   18.50    0.73
  -3  10  -3   18.86    0.69
  10  -7  -3   19.44    0.72
  -7  -3  -3   18.78    1.00
  -3  10  -3   18.92    0.78
  10  -7  -3   18.85    0.82
  -3  10  -3   18.54    0.76
   7   3   3   19.49    1.15
   7   3   3   19.60    0.65
   7   3   3   20.15    0.84
   7   3   3   19.36    0.77
 -10   7   3   18.66    0.80
   7   3   3   19.63    0.81
   3 -10   3   18.35    0.78
   3 -10   3   19.72    0.80
   7   3   3   18.29    0.76
   7   3   3   19.72    0.82
  -7  -2  -3    6.05    0.41
  -2   9  -3    5.81    0.43
  -2   9  -3    5.72    0.42
   9  -7  -3    6.52    0.40
  -2   9  -3    6.45    0.44
  -2   9  -3    5.86    0.59
  -7  -2  -3    5.98    0.53
   9  -7  -3    6.71    0.47
   7   2   3    9.01    0.49
   2  -9   3    8.96    0.50
   7   2   3    8.98    0.72
   7   2   3    8.69    0.49
   7   2   3    8.46    0.52
   7   2   3    9.11    0.52
   7   2   3    9.34    0.53
  -9   7   3    9.52    0.52
  -9   7   3    9.05    0.50
   2  -9   3    9.65    0.52
   7   2   3    9.46    0.40
  -7  -1  -3    7.99    0.60
  -7  -1  -3    8.64    0.47
  -1   8  -3    8.32    0.47
   8  -7  -3    7.43    0.48
   8  -7  -3    8.78    0.48
  -1   8  -3    8.32    0.48
  -1   8  -3    7.60    0.63
  -1   8  -3    7.89    0.48
   1  -8   3    8.03    0.48
   7   1   3    8.31    0.49
   7   1   3    8.12    0.49
   7   1   3    8.48    0.47
   7   1   3    8.57    0.50
   7   1   3    8.12    0.68
   1  -8   3    8.09    0.48
  -8   7   3    8.63    0.48
  -8   7   3    8.31    0.47
   7   1   3    8.00    0.46
   7   1   3    8.39    0.36
   0   7  -3   33.73    1.08
   0   7  -3   33.26    1.03
  -7   0  -3   34.20    1.04
   0   7  -3   32.87    1.45
   7  -7  -3   33.90    1.01
   0   7  -3   33.92    1.02
  -7   0  -3   32.82    0.98
   7  -7  -3   34.36    1.11
  -7   0  -3   32.29    1.33
  -7   7   3   32.55    1.00
  -7   7   3   32.71    1.08
   7   0   3   34.09    1.07
   7   0   3   32.66    1.09
   0  -7   3   32.54    1.04
   7   0   3   32.85    1.05
   7   0   3   33.26    1.50
  -7   7   3   32.48    0.94
   0  -7   3   33.76    1.06
   7   0   3   31.94    0.99
   7   0   3   32.95    0.86
   7   0   3   32.31    1.02
  -7   7   3   33.05    1.00
  -7   1  -3   41.81    1.14
   6  -7  -3   41.45    1.25
  -7   1  -3   43.51    1.19
   1   6  -3   39.88    1.64
   6  -7  -3   42.51    1.15
   1   6  -3   40.76    1.17
   1   6  -3   40.85    1.14
  -7   1  -3   41.67    1.55
   6  -7  -3   41.66    1.37
  -1  -6   3   41.32    1.23
   7  -1   3   40.43    1.70
  -1  -6   3   40.23    1.19
   7  -1   3   40.76    0.99
   7  -1   3   38.54    1.15
  -6   7   3   41.50    1.11
  -1  -6   3   39.98    1.18
   7  -1   3   40.07    1.19
  -6   7   3   41.65    1.12
  -6   7   3   40.80    1.13
  -6   7   3   39.22    1.22
   7  -1   3   40.27    1.20
   7  -1   3   40.78    1.24
   7  -1   3   40.99    1.14
  -7   2  -3    1.18    0.20
   2   5  -3    1.07    0.18
  -7   2  -3    0.90    0.25
   5  -7  -3    0.74    0.19
   5  -7  -3    0.79    0.19
   2   5  -3    0.98    0.26
  -7   2  -3    0.97    0.20
   5  -7  -3    0.77    0.21
   2   5  -3    0.91    0.19
  -7   2  -3    1.11    0.19
   7  -2   3    0.86    0.19
  -2  -5   3    0.85    0.20
   7  -2   3    0.79    0.17
   7  -2   3    0.75    0.19
   7  -2   3    1.04    0.20
  -5   7   3    0.97    0.20
  -2  -5   3    0.96    0.21
  -5   7   3    0.94    0.18
   7  -2   3    0.78    0.19
   7  -2   3    1.15    0.21
  -5   7   3    0.88    0.20
   7  -2   3    0.76    0.25
  -2  -5   3    1.02    0.20
   7  -2   3    0.89    0.13
   7  -2   3    1.19    0.22
   4  -7  -3    9.63    0.52
   3   4  -3   10.28    0.67
   3   4  -3    9.36    0.46
   4  -7  -3    9.93    0.48
  -7   3  -3   10.42    0.51
   4  -7  -3   10.91    0.60
  -7   3  -3    9.82    0.47
   3   4  -3   10.17    0.43
  -7   3  -3   10.27    0.46
   7  -3   3    9.80    0.49
   7  -3   3    9.60    0.45
   7  -3   3    9.57    0.50
   7  -3   3    9.78    0.50
   7  -3   3    9.80    0.49
  -3  -4   3    9.46    0.50
  -3  -4   3   10.57    0.49
  -4   7   3   10.28    0.51
  -4   7   3   10.14    0.47
  -4   7   3    9.80    0.46
   7  -3   3    9.79    0.51
  -3  -4   3    9.49    0.49
   7  -3   3    9.98    0.45
   7  -3   3   10.12    0.35
   7  -3   3    9.65    0.71
   3  -7  -3    9.69    0.49
   3  -7  -3   10.80    0.54
   3  -7  -3   10.34    0.60
  -7   4  -3    9.61    0.49
  -7   4  -3   10.02    0.47
   4   3  -3    9.87    0.66
  -7   4  -3   10.11    0.48
   4   3  -3    9.60    0.46
  -3   7   3   10.16    0.48
   7  -4   3    9.76    0.46
   7  -4   3    9.39    0.34
   7  -4   3    9.84    0.50
  -3   7   3   10.04    0.44
   7  -4   3    9.37    0.49
  -3   7   3    9.97    0.52
   7  -4   3    9.84    0.48
  -4  -3   3    9.57    0.51
   7  -4   3    9.82    0.71
  -3   7   3    9.91    0.48
   7  -4   3    9.83    0.45
  -4  -3   3    9.23    0.47
   7  -4   3    9.63    0.48
   7  -4   3   10.10    0.49
  -7   5  -3    1.17    0.20
   2  -7  -3    1.11    0.25
  -7   5  -3    0.77    0.18
  -7   5  -3    1.00    0.20
   5   2  -3    0.96    0.25
   5   2  -3    1.17    0.20
   2  -7  -3    1.01    0.22
  -7   5  -3    1.02    0.21
   7  -5   3    0.89    0.20
   7  -5   3    0.62    0.24
   7  -5   3    1.31    0.22
  -2   7   3    1.17    0.20
  -5  -2   3    0.87    0.19
   7  -5   3    0.95    0.20
  -2   7   3    0.94    0.20
   7  -5   3    1.07    0.21
  -2   7   3    0.98    0.21
   7  -5   3    0.91    0.18
   7  -5   3    0.86    0.19
   7  -5   3    1.13    0.19
   7  -5   3    0.93    0.13
  -2   7   3    0.99    0.20
  -5  -2   3    0.90    0.21
   6   1  -3   40.60    1.57
  -7   6  -3   42.89    1.23
  -7   6  -3   42.42    1.22
  -7   6  -3   42.00    1.21
  -7   6  -3   40.98    1.14
   6   1  -3   42.33    1.12
   6   1  -3   40.86    1.12
   1  -7  -3   41.38    1.52
   1  -7  -3   42.88    1.27
  -6  -1   3   40.83    1.23
  -1   7   3   40.50    1.17
   7  -6   3   40.81    1.20
   7  -6   3   39.56    1.68
  -1   7   3   40.52    1.13
   7  -6   3   42.38    1.16
  -1   7   3   41.76    1.17
  -6  -1   3   41.91    1.18
   7  -6   3   39.89    0.98
   7  -6   3   40.54    1.19
   7  -6   3   39.81    1.19
  -1   7   3   42.70    1.25
   7  -6   3   41.72    1.17
  -7   7  -3   32.68    1.05
   0  -7  -3   32.84    1.33
  -7   7  -3   32.24    0.99
   0  -7  -3   34.25    1.12
   7   0  -3   35.24    1.37
   7   0  -3   33.45    0.98
  -7   7  -3   36.04    1.10
  -7   7  -3   33.38    1.05
   0   7   3   33.05    0.99
   7  -7   3   33.38    1.06
   0   7   3   32.77    1.08
   0   7   3   33.90    1.05
   0   7   3   33.84    1.05
  -7   0   3   33.16    1.09
  -7   0   3   34.85    1.03
   7  -7   3   32.97    1.02
   7  -7   3   32.62    1.04
   0   7   3   34.11    0.87
   7  -7   3   33.09    1.50
   7  -7   3   33.58    1.05
   7  -7   3   33.96    0.87
  -7   8  -3    7.63    0.44
  -1  -7  -3    7.75    0.59
   8  -1  -3    8.31    0.45
   8  -1  -3    8.00    0.41
  -7   8  -3    8.19    0.48
   8  -1  -3    7.80    0.44
  -7   8  -3    8.30    0.48
  -7   8  -3    7.91    0.48
   7  -8   3    8.48    0.49
   1   7   3    8.84    0.49
   1   7   3    8.35    0.50
   7  -8   3    8.29    0.67
   1   7   3    8.21    0.36
   7  -8   3    8.04    0.47
  -8   1   3    8.05    0.50
   7  -8   3    8.22    0.36
   1   7   3    8.34    0.48
   1   7   3    9.00    0.48
  -8   1   3    8.34    0.45
   7  -8   3    8.61    0.49
  -7   9  -3    6.21    0.46
  -7   9  -3    6.92    0.46
  -7   9  -3    6.84    0.46
  -7   9  -3    6.38    0.45
   9  -2  -3    6.78    0.41
   9  -2  -3    6.50    0.43
  -9   2   3    9.86    0.55
   7  -9   3    9.82    0.53
   7  -9   3    9.88    0.52
   7  -9   3    9.80    0.41
   2   7   3    9.81    0.52
  -9   2   3    9.58    0.49
   2   7   3    9.66    0.41
   7  -9   3    9.95    0.74
   7  -9   3    9.79    0.52
   2   7   3    9.04    0.53
   2   7   3    9.80    0.54
   2   7   3    9.58    0.50
  -7  10  -3   18.94    0.78
  -7  10  -3   19.48    0.75
  -7  10  -3   18.54    0.77
  -7  10  -3   18.61    0.81
  10  -3  -3   18.54    0.77
  10  -3  -3   19.60    0.72
  -7  10  -3   18.95    0.79
  10  -3  -3   17.59    0.72
  -3  -7  -3   18.17    0.99
   3   7   3   18.72    0.75
   3   7   3   20.06    0.82
 -10   3   3   19.72    0.84
   7 -10   3   18.53    0.64
   7 -10   3   18.71    1.09
   3   7   3   18.59    0.64
   7 -10   3   18.43    0.77
   7 -10   3   19.79    0.79
   3   7   3   18.75    0.81
   7 -10   3   18.65    0.77
   3   7   3   18.93    0.78
  -7  11  -3    6.89    0.45
  11  -4  -3    6.82    0.45
  11  -4  -3    7.30    0.47
  -7  11  -3    6.61    0.48
  -7  11  -3    6.81    0.47
  -4  -7  -3    7.13    0.62
  -7  11  -3    6.89    0.48
  -7  11  -3    6.41    0.62
  -7  11  -3    7.30    0.48
  11  -4  -3    7.15    0.48
   4   7   3    7.77    0.51
   7 -11   3    7.24    0.39
   4   7   3    7.07    0.39
   4   7   3    6.51    0.46
   4   7   3    6.95    0.46
 -11   4   3    6.87    0.49
   7 -11   3    6.29    0.63
   4   7   3    7.92    0.52
   7 -11   3    6.25    0.45
   4   7   3    7.03    0.66
   7 -11   3    6.99    0.48
   7 -11   3    7.31    0.48
   4   7   3    7.41    0.49
  12  -5  -3   28.59    1.01
  -7  12  -3   27.80    1.05
  12  -5  -3   31.20    1.12
  -7  12  -3   29.54    1.03
  -5  -7  -3   28.85    1.36
  -7  12  -3   29.19    1.10
  12  -5  -3   30.25    1.02
  -7  12  -3   27.99    1.05
  -7  12  -3   29.06    1.01
   5   7   3   28.56    0.92
   5   7   3   27.84    1.00
   7 -12   3   28.63    0.92
   7 -12   3   28.63    1.04
   5   7   3   29.02    1.05
   5   7   3   28.71    1.09
   5   7   3   26.59    1.02
   5   7   3   29.17    1.10
 -12   5   3   28.56    1.12
   7 -12   3   28.23    1.04
   5   7   3   29.05    1.48
  -7  13  -3   10.38    0.62
  -7  13  -3    9.83    0.63
  -7  13  -3   11.51    0.62
  -6  -7  -3   10.39    0.79
  13  -6  -3   11.51    0.62
  -7  13  -3   10.94    0.61
  -7  13  -3   10.07    0.62
  13  -6  -3   10.17    0.64
  13  -6  -3    9.97    0.58
   7 -13   3   10.69    0.53
   7 -13   3   11.79    0.64
 -13   6   3   11.26    0.69
   6   7   3   10.98    0.66
   6   7   3   10.84    0.64
   6   7   3   10.52    0.60
   7 -13   3   10.95    0.62
   6   7   3   11.08    0.66
   6   7   3   10.42    0.62
   6   7   3   10.74    0.54
  14  -7  -3    3.37    0.42
  -7  14  -3    3.17    0.43
  -7  14  -3    3.55    0.41
  -7  14  -3    3.53    0.43
  14  -7  -3    4.40    0.43
  -7  14  -3    3.59    0.44
  -7  14  -3    3.83    0.39
  14  -7  -3    3.53    0.45
   7   7   3    3.53    0.42
 -14   7   3    3.51    0.47
   7   7   3    3.10    0.40
   7 -14   3    3.79    0.39
   7 -14   3    3.48    0.33
   7   7   3    3.75    0.46
   7   7   3    4.09    0.47
   7   7   3    3.74    0.47
   7 -14   3    3.63    0.42
   7   7   3    3.48    0.33
  15  -8  -3    6.94    0.53
  -7  15  -3    7.37    0.54
  -7  15  -3    6.74    0.55
  15  -8  -3    7.27    0.54
  -7  15  -3    7.28    0.53
  15  -8  -3    7.19    0.59
  -7  15  -3    6.29    0.53
   8   7   3    7.36    0.57
 -15   8   3    6.35    0.57
   8   7   3    8.03    0.61
   7 -15   3    7.26    0.54
   8   7   3    7.61    0.55
   8   7   3    8.42    0.57
   7 -15   3    7.79    0.49
   8   7   3    7.06    0.58
  -6  14  -3    3.70    0.45
  14  -8  -3    3.29    0.41
  -6  14  -3    3.33    0.44
  -6  14  -3    3.90    0.40
  14  -8  -3    4.15    0.50
  14  -8  -3    3.36    0.43
  -6  14  -3    3.76    0.42
   8   6   3    4.50    0.42
   8   6   3    5.14    0.47
   8   6   3    4.68    0.47
   6 -14   3    4.49    0.37
   8   6   3    5.27    0.48
   6 -14   3    4.51    0.44
   8   6   3    4.68    0.37
 -14   8   3    4.92    0.49
   6 -14   3    4.89    0.44
   8   6   3    5.16    0.47
  -5  13  -3    0.71    0.23
  13  -8  -3    0.47    0.22
  -8  -5  -3    0.42    0.25
  -5  13  -3    0.46    0.21
  13  -8  -3    0.61    0.22
  13  -8  -3    0.23    0.19
  -5  13  -3    0.67    0.22
  -5  13  -3    0.51    0.20
   8   5   3    0.68    0.23
 -13   8   3    0.62    0.24
   5 -13   3    0.93    0.24
   5 -13   3    0.78    0.20
   8   5   3    0.74    0.25
   8   5   3    0.49    0.23
   8   5   3    0.67    0.23
   8   5   3    0.64    0.23
   5 -13   3    0.88    0.25
   8   5   3    0.64    0.18
  -4  12  -3   77.75    1.93
  -4  12  -3   80.26    2.10
  12  -8  -3   79.32    1.96
  12  -8  -3   77.81    2.00
  -4  12  -3   77.62    2.03
  12  -8  -3   78.26    2.17
  -8  -4  -3   79.25    2.65
  -4  12  -3   77.99    2.12
  -8  -4  -3   80.99    2.03
   8   4   3   77.57    2.02
   4 -12   3   78.22    2.07
   8   4   3   76.96    2.00
   8   4   3   75.65    1.89
 -12   8   3   74.85    2.14
   8   4   3   75.44    2.16
   8   4   3   77.28    2.12
   4 -12   3   75.39    2.04
   8   4   3   76.37    2.09
  -3  11  -3    5.33    0.42
  -3  11  -3    4.83    0.41
  11  -8  -3    4.71    0.41
  11  -8  -3    5.05    0.45
  11  -8  -3    5.11    0.39
  -3  11  -3    4.67    0.42
  -8  -3  -3    5.28    0.40
  -8  -3  -3    5.49    0.54
  -3  11  -3    5.29    0.58
   8   3   3    6.19    0.37
   8   3   3    6.50    0.48
 -11   8   3    6.11    0.46
   8   3   3    5.80    0.44
   8   3   3    6.68    0.46
   3 -11   3    6.85    0.47
   8   3   3    6.21    0.47
   3 -11   3    6.71    0.47
   8   3   3    6.36    0.48
   8   3   3    6.67    0.67
  -2  10  -3    4.55    0.39
  -8  -2  -3    5.10    0.39
  -8  -2  -3    4.75    0.50
  -2  10  -3    4.90    0.54
  10  -8  -3    4.84    0.37
  -2  10  -3    4.54    0.40
  10  -8  -3    4.71    0.42
  10  -8  -3    5.13    0.41
  -2  10  -3    4.95    0.40
   2 -10   3    4.94    0.41
   8   2   3    4.88    0.32
   8   2   3    4.81    0.41
   8   2   3    5.33    0.60
   8   2   3    4.94    0.39
   8   2   3    4.91    0.42
   8   2   3    4.93    0.41
 -10   8   3    5.85    0.43
 -10   8   3    5.43    0.43
   8   2   3    5.08    0.41
   2 -10   3    5.22    0.41
  -8  -1  -3   25.68    1.18
  -1   9  -3   25.54    0.94
  -8  -1  -3   26.25    0.91
  -1   9  -3   26.47    1.30
   9  -8  -3   25.60    0.97
  -1   9  -3   26.33    0.92
   9  -8  -3   26.21    0.90
  -1   9  -3   26.57    0.92
   8   1   3   25.17    0.93
   8   1   3   24.43    0.96
  -9   8   3   26.00    0.89
   8   1   3   25.33    0.90
   8   1   3   23.70    0.91
   8   1   3   25.22    1.33
   8   1   3   25.36    0.89
   8   1   3   24.88    0.76
   1  -9   3   25.39    0.93
  -9   8   3   24.22    0.89
   1  -9   3   24.07    0.91
   8  -8  -3   61.48    1.58
   0   8  -3   61.43    2.28
   8  -8  -3   60.01    1.71
   0   8  -3   62.91    1.70
   0   8  -3   61.69    1.61
   0   8  -3   59.80    1.60
  -8   0  -3   62.92    1.57
  -8   0  -3   62.42    1.63
  -8   0  -3   60.51    2.09
   0  -8   3   59.64    1.62
   8   0   3   61.06    1.44
   8   0   3   58.30    1.65
   8   0   3   59.45    1.58
   0  -8   3   60.40    1.64
  -8   8   3   59.22    1.56
   8   0   3   62.24    2.37
   8   0   3   57.98    1.70
   8   0   3   58.95    1.58
   8   0   3   62.76    1.67
  -8   8   3   61.45    1.61
   1   7  -3    8.16    0.45
  -8   1  -3    7.34    0.59
   1   7  -3    7.41    0.47
   1   7  -3    7.64    0.46
  -8   1  -3    8.83    0.46
  -8   1  -3    7.78    0.47
   7  -8  -3    7.19    0.43
   7  -8  -3    7.87    0.49
   1   7  -3    7.64    0.63
   8  -1   3    7.60    0.47
   8  -1   3    8.24    0.50
   8  -1   3    8.18    0.36
  -7   8   3    8.13    0.49
   8  -1   3    8.14    0.49
  -7   8   3    8.77    0.45
   8  -1   3    7.36    0.45
   8  -1   3    7.34    0.44
  -1  -7   3    8.34    0.48
  -1  -7   3    8.68    0.48
  -1  -7   3    8.52    0.48
  -7   8   3    8.75    0.47
   8  -1   3    7.93    0.67
   6  -8  -3   43.51    1.34
  -8   2  -3   43.76    1.28
   2   6  -3   44.33    1.27
   6  -8  -3   44.32    1.24
  -8   2  -3   46.83    1.24
   6  -8  -3   46.45    1.53
   2   6  -3   44.24    1.79
  -8   2  -3   45.34    1.23
  -8   2  -3   44.55    1.68
   8  -2   3   44.97    1.35
   8  -2   3   45.90    1.87
   8  -2   3   46.08    1.17
  -6   8   3   44.45    1.34
  -6   8   3   47.45    1.24
  -6   8   3   46.22    1.25
  -2  -6   3   45.62    1.28
   8  -2   3   45.00    1.11
   8  -2   3   45.12    1.24
   8  -2   3   45.41    1.31
   8  -2   3   43.79    1.30
   8  -2   3   45.85    1.27
  -2  -6   3   44.97    1.33
   3   5  -3   37.85    1.09
  -8   3  -3   36.85    1.12
   5  -8  -3   38.93    1.34
  -8   3  -3   37.47    1.06
  -8   3  -3   38.11    1.07
   3   5  -3   38.24    1.54
   5  -8  -3   36.12    1.06
   5  -8  -3   35.56    1.15
   8  -3   3   34.36    1.09
   8  -3   3   35.14    1.11
   8  -3   3   35.42    1.10
  -3  -5   3   35.01    1.12
  -3  -5   3   34.66    1.10
  -5   8   3   36.21    1.06
   8  -3   3   35.19    1.04
   8  -3   3   34.10    1.12
   8  -3   3   35.32    1.58
   8  -3   3   36.09    1.08
  -5   8   3   35.45    1.05
  -5   8   3   34.75    1.14
   8  -3   3   36.76    1.02
   8  -3   3   35.04    0.91
   4  -8  -3    3.68    0.35
  -8   4  -3    4.15    0.35
   4   4  -3    3.73    0.32
  -8   4  -3    3.73    0.31
   4   4  -3    3.92    0.44
   4  -8  -3    4.02    0.39
   4  -8  -3    3.93    0.33
  -8   4  -3    3.91    0.32
   8  -4   3    3.45    0.32
   8  -4   3    3.58    0.30
  -4   8   3    3.51    0.32
  -4  -4   3    3.81    0.33
   8  -4   3    3.81    0.33
   8  -4   3    3.47    0.22
   8  -4   3    3.50    0.31
  -4   8   3    3.42    0.31
  -4   8   3    3.32    0.33
   8  -4   3    3.87    0.33
   8  -4   3    3.58    0.45
   8  -4   3    3.99    0.33
  -4  -4   3    3.15    0.32
   8  -4   3    3.46    0.32
  -8   5  -3   36.47    1.12
  -8   5  -3   37.38    1.12
   3  -8  -3   38.81    1.10
   3  -8  -3   36.95    1.38
   5   3  -3   37.69    1.07
  -8   5  -3   37.23    1.10
   3  -8  -3   38.41    1.19
   5   3  -3   36.26    1.49
  -8   5  -3   37.48    1.07
  -5  -3   3   35.02    1.10
   8  -5   3   35.90    0.92
  -3   8   3   36.31    1.15
   8  -5   3   37.19    1.12
   8  -5   3   34.59    1.04
  -5  -3   3   36.55    1.15
  -3   8   3   35.98    1.05
   8  -5   3   35.36    1.08
   8  -5   3   35.77    1.11
   8  -5   3   35.63    1.11
   8  -5   3   33.83    1.56
  -3   8   3   36.40    1.04
   8  -5   3   35.91    1.11
   8  -5   3   35.86    1.02
  -3   8   3   35.44    1.08
   6   2  -3   43.61    1.71
  -8   6  -3   45.55    1.30
   6   2  -3   42.20    1.19
   6   2  -3   42.84    1.20
  -8   6  -3   44.04    1.23
  -8   6  -3   42.51    1.28
  -8   6  -3   44.45    1.28
   2  -8  -3   43.01    1.33
   2  -8  -3   42.57    1.60
   8  -6   3   46.07    1.28
  -6  -2   3   44.57    1.27
   8  -6   3   46.30    1.18
   8  -6   3   44.92    1.09
   8  -6   3   44.49    1.82
  -2   8   3   43.54    1.25
   8  -6   3   45.74    1.29
  -2   8   3   43.83    1.22
   8  -6   3   44.66    1.23
   8  -6   3   45.23    1.26
   8  -6   3   45.21    1.29
  -2   8   3   45.76    1.35
   8  -6   3   44.35    1.28
  -2   8   3   46.34    1.25
  -6  -2   3   44.55    1.33
  -8   7  -3    7.38    0.45
   1  -8  -3    7.89    0.50
  -8   7  -3    8.15    0.45
   7   1  -3    8.13    0.43
   7   1  -3    8.03    0.60
   1  -8  -3    7.60    0.57
  -8   7  -3    8.10    0.48
  -8   7  -3    7.49    0.46
   7   1  -3    8.15    0.45
   8  -7   3    7.70    0.46
   8  -7   3    8.27    0.47
   8  -7   3    8.44    0.44
  -1   8   3    8.36    0.47
   8  -7   3    8.74    0.37
  -1   8   3    8.84    0.47
  -1   8   3    7.81    0.47
  -1   8   3    8.44    0.50
  -7  -1   3    8.38    0.47
   8  -7   3    8.26    0.48
  -7  -1   3    7.68    0.48
   8  -7   3    8.01    0.48
   8  -7   3    8.26    0.67
   8  -7   3    7.90    0.46
   0  -8  -3   61.73    1.75
   8   0  -3   60.74    1.58
  -8   8  -3   64.20    1.64
   0  -8  -3   60.26    2.12
   8   0  -3   67.79    2.28
  -8   8  -3   63.34    1.70
  -8   8  -3   62.30    1.72
  -8   8  -3   62.11    1.69
   8  -8   3   61.27    1.67
   8  -8   3   65.56    1.70
   0   8   3   61.88    1.66
   8  -8   3   64.62    1.50
   8  -8   3   64.06    2.40
   0   8   3   66.31    1.77
  -8   0   3   64.58    1.67
   0   8   3   63.49    1.68
   0   8   3   65.16    1.62
  -8   0   3   65.12    1.76
   8  -8   3   63.26    1.65
   8  -8   3   62.74    1.69
  -8   9  -3   24.92    0.88
  -8   9  -3   25.20    0.94
  -8   9  -3   26.22    0.93
  -1  -8  -3   24.17    1.16
  -8   9  -3   25.63    0.92
  -1  -8  -3   26.43    0.99
   9  -1  -3   26.00    0.88
   9  -1  -3   26.06    0.88
   1   8   3   25.01    0.87
   1   8   3   24.12    0.93
  -9   1   3   24.90    0.89
   8  -9   3   24.10    0.89
   8  -9   3   24.92    0.91
   8  -9   3   24.37    0.90
   1   8   3   25.10    0.91
   8  -9   3   24.07    0.75
   1   8   3   26.48    0.94
   8  -9   3   24.22    1.27
  -9   1   3   23.88    0.94
  -8  10  -3    5.14    0.42
  10  -2  -3    4.79    0.38
  -8  10  -3    4.86    0.40
  -8  10  -3    4.81    0.40
  10  -2  -3    4.96    0.37
  -2  -8  -3    4.92    0.50
  10  -2  -3    5.07    0.38
  -8  10  -3    4.75    0.39
  -8  10  -3    5.26    0.39
   8 -10   3    5.73    0.58
   2   8   3    5.21    0.40
   8 -10   3    4.70    0.40
   8 -10   3    4.68    0.39
 -10   2   3    4.82    0.38
 -10   2   3    4.57    0.41
   8 -10   3    4.64    0.31
   2   8   3    4.19    0.38
   2   8   3    4.54    0.40
   2   8   3    5.24    0.43
   8 -10   3    4.32    0.38
  11  -3  -3    5.49    0.43
  -8  11  -3    5.84    0.46
  -8  11  -3    5.11    0.41
  11  -3  -3    5.17    0.41
  -3  -8  -3    5.29    0.56
  -8  11  -3    5.01    0.42
  -8  11  -3    5.40    0.45
  11  -3  -3    5.01    0.39
  -8  11  -3    4.93    0.41
   8 -11   3    6.07    0.45
 -11   3   3    6.59    0.50
   8 -11   3    6.01    0.44
   3   8   3    6.23    0.46
   3   8   3    6.35    0.45
   3   8   3    6.74    0.49
   8 -11   3    6.37    0.37
   8 -11   3    5.79    0.44
   8 -11   3    6.73    0.66
   3   8   3    6.79    0.48
  12  -4  -3   80.01    1.99
  -4  -8  -3   79.85    2.73
  -8  12  -3   83.75    2.07
  12  -4  -3   79.77    2.02
  -8  12  -3   79.62    2.11
  -8  12  -3   79.10    2.11
  -8  12  -3   80.62    2.07
  -8  12  -3   81.99    2.21
   4   8   3   80.48    2.20
   4   8   3   80.59    2.09
   8 -12   3   81.12    2.10
   8 -12   3   79.03    2.08
   4   8   3   78.75    2.17
 -12   4   3   77.55    2.21
   8 -12   3   82.03    2.97
   4   8   3   78.99    2.01
   8 -12   3   77.16    1.93
  13  -5  -3    0.68    0.22
  -8  13  -3    0.66    0.23
  -8  13  -3    0.96    0.25
  13  -5  -3    0.45    0.20
  -8  13  -3    0.54    0.21
  -5  -8  -3    0.34    0.24
  -8  13  -3    0.62    0.21
  -8  13  -3    0.81    0.23
  13  -5  -3    0.61    0.23
   5   8   3    0.72    0.25
   5   8   3    0.78    0.24
 -13   5   3    0.62    0.24
   8 -13   3    1.02    0.26
   8 -13   3    0.62    0.18
   5   8   3    0.63    0.24
   8 -13   3    0.65    0.22
   5   8   3    0.44    0.20
  14  -6  -3    3.33    0.41
  -8  14  -3    2.95    0.41
  14  -6  -3    3.70    0.43
  -8  14  -3    3.48    0.42
  -8  14  -3    3.25    0.44
  -8  14  -3    4.05    0.46
  14  -6  -3    4.08    0.44
  -8  14  -3    3.92    0.40
 -14   6   3    4.44    0.47
   6   8   3    5.41    0.48
   6   8   3    5.18    0.47
   6   8   3    4.70    0.45
   8 -14   3    5.37    0.40
   6   8   3    4.65    0.46
   6   8   3    4.69    0.43
   8 -14   3    4.73    0.43
   8 -14   3    4.98    0.44
  15  -7  -3    6.69    0.52
  -8  15  -3    7.43    0.54
  -8  15  -3    6.92    0.52
  15  -7  -3    7.40    0.54
  -8  15  -3    7.01    0.56
  -8  15  -3    6.78    0.55
  15  -7  -3    6.28    0.55
   7   8   3    7.52    0.58
   7   8   3    7.63    0.55
   7   8   3    7.85    0.57
   7   8   3    7.63    0.58
   8 -15   3    6.88    0.47
   8 -15   3    7.29    0.54
   7   8   3    8.47    0.62
 -15   7   3    7.73    0.62
  16  -8  -3    1.31    0.32
  -8  16  -3    1.17    0.29
  -8  16  -3    1.10    0.30
  16  -8  -3    0.99    0.31
  16  -8  -3    1.68    0.34
  -8  16  -3    1.19    0.30
   8   8   3    1.27    0.32
   8   8   3    1.61    0.33
   8   8   3    1.43    0.33
   8 -16   3    1.37    0.27
 -16   8   3    1.72    0.38
   8   8   3    1.45    0.34
  17  -9  -3    2.72    0.43
  17  -9  -3    2.37    0.41
  -8  17  -3    2.10    0.38
  -8  17  -3    2.67    0.43
  -8  17  -3    2.56    0.40
 -17   9   3    3.16    0.50
   9   8   3    3.56    0.50
   9   8   3    3.50    0.49
  16  -9  -3   10.69    0.67
  16  -9  -3   10.43    0.72
  -7  16  -3   10.32    0.67
  16  -9  -3    8.79    0.62
  -7  16  -3    9.87    0.68
  -7  16  -3   10.02    0.62
   9   7   3    8.90    0.67
   9   7   3    9.64    0.69
   7 -16   3    8.74    0.55
 -16   9   3    8.67    0.68
   9   7   3    9.61    0.69
   9   7   3    9.20    0.63
  15  -9  -3   26.28    1.04
  -6  15  -3   25.52    1.00
  -6  15  -3   26.13    1.09
  -6  15  -3   25.18    1.08
  15  -9  -3   25.87    1.14
  -6  15  -3   27.36    1.05
  15  -9  -3   25.99    1.06
   9   6   3   24.18    1.09
   9   6   3   26.22    1.06
   9   6   3   24.77    1.12
   9   6   3   24.54    1.10
   6 -15   3   24.84    1.03
   9   6   3   27.80    1.06
   6 -15   3   23.90    0.92
 -15   9   3   25.11    1.14
   9   6   3   25.53    0.95
  -5  14  -3   16.70    0.83
  -5  14  -3   16.30    0.79
  14  -9  -3   17.00    0.88
  14  -9  -3   16.92    0.82
  14  -9  -3   16.25    0.78
  -5  14  -3   16.05    0.82
  -9  -5  -3   17.55    0.80
   5 -14   3   18.69    0.74
   9   5   3   18.30    0.82
   9   5   3   17.79    0.83
   9   5   3   17.23    0.72
   9   5   3   16.84    0.86
   9   5   3   17.51    0.89
   5 -14   3   18.30    0.83
   9   5   3   18.30    0.89
   5 -14   3   17.75    0.83
 -14   9   3   17.57    0.90
  -9  -4  -3    8.65    0.55
  -4  13  -3    8.76    0.56
  -4  13  -3    8.74    0.58
  -4  13  -3    8.93    0.58
  13  -9  -3    8.60    0.60
  13  -9  -3    9.83    0.57
  -9  -4  -3    8.18    0.71
  13  -9  -3    8.64    0.57
   4 -13   3    9.25    0.59
   9   4   3    9.54    0.64
   9   4   3    8.98    0.56
 -13   9   3    9.24    0.62
   9   4   3    8.49    0.59
   9   4   3    9.25    0.50
   4 -13   3    9.08    0.58
   9   4   3    9.29    0.61
   9   4   3    9.52    0.60
  -3  12  -3   45.30    1.39
  -9  -3  -3   45.19    1.80
  12  -9  -3   45.45    1.38
  -3  12  -3   43.76    1.41
  12  -9  -3   43.84    1.31
  -3  12  -3   43.66    1.42
  -9  -3  -3   46.87    1.40
  12  -9  -3   42.68    1.46
   3 -12   3   44.34    1.40
   9   3   3   44.13    1.44
   9   3   3   44.40    1.37
   3 -12   3   44.30    1.41
   9   3   3   40.77    1.44
 -12   9   3   43.43    1.45
   9   3   3   44.73    1.26
   9   3   3   46.05    1.46
   9   3   3   44.77    1.36
  -2  11  -3   19.53    0.82
  -9  -2  -3   19.79    0.82
  -2  11  -3   18.62    0.81
  11  -9  -3   19.79    0.89
  -9  -2  -3   19.98    1.07
  -2  11  -3   18.44    0.83
  11  -9  -3   18.98    0.81
   9   2   3   20.90    0.84
 -11   9   3   18.48    0.84
   9   2   3   21.33    0.88
   9   2   3   19.66    0.89
   2 -11   3   20.25    0.85
   9   2   3   21.31    0.89
   9   2   3   20.12    0.82
   2 -11   3   19.60    0.83
   9   2   3   19.78    0.71
  10  -9  -3   10.59    0.57
  -1  10  -3    9.96    0.57
  -1  10  -3    9.24    0.56
  -9  -1  -3   10.33    0.54
  -9  -1  -3   10.20    0.56
  10  -9  -3   10.82    0.52
  -1  10  -3    9.82    0.79
  -9  -1  -3   10.16    0.73
  10  -9  -3    9.82    0.60
  -1  10  -3   10.22    0.57
   9   1   3   11.00    0.59
   1 -10   3   10.60    0.59
   9   1   3   10.58    0.57
   9   1   3   10.42    0.84
   1 -10   3   10.49    0.58
   9   1   3    9.91    0.60
   9   1   3   10.89    0.48
   9   1   3    9.90    0.59
   9   1   3   10.52    0.61
 -10   9   3   10.94    0.58
 -10   9   3   10.39    0.59
  -9   0  -3   50.41    1.87
   0   9  -3   51.78    1.49
   0   9  -3   51.50    1.45
   9  -9  -3   49.88    1.40
   0   9  -3   49.44    2.03
   0   9  -3   51.38    1.44
   9  -9  -3   50.77    1.54
  -9   0  -3   53.60    1.48
  -9   0  -3   51.17    1.39
   9   0   3   50.19    1.42
   9   0   3   51.44    2.14
   0  -9   3   47.49    1.45
  -9   9   3   49.79    1.40
   9   0   3   50.60    1.49
  -9   9   3   48.54    1.43
   0  -9   3   48.78    1.44
   9   0   3   47.24    1.52
   9   0   3   47.35    1.47
   9   0   3   48.06    1.40
   9   0   3   48.14    1.27
  -9   1  -3   26.41    0.93
   1   8  -3   26.76    0.90
  -9   1  -3   26.23    0.88
   1   8  -3   26.45    0.93
   1   8  -3   25.61    0.95
   1   8  -3   26.20    1.30
   8  -9  -3   24.68    0.97
  -9   1  -3   25.45    1.18
   8  -9  -3   25.42    0.90
   9  -1   3   25.53    0.94
  -8   9   3   26.18    0.87
   9  -1   3   25.62    0.90
  -1  -8   3   25.73    0.92
   9  -1   3   25.62    0.98
   9  -1   3   25.01    0.77
  -1  -8   3   25.53    0.94
   9  -1   3   24.46    1.33
  -8   9   3   24.90    0.89
   9  -1   3   25.61    0.96
   9  -1   3   25.34    0.89
   7  -9  -3    5.77    0.42
  -9   2  -3    6.50    0.45
   2   7  -3    6.92    0.43
  -9   2  -3    6.48    0.43
  -9   2  -3    6.07    0.56
   7  -9  -3    6.62    0.47
   9  -2   3    8.69    0.73
   9  -2   3    8.85    0.52
   9  -2   3    9.28    0.53
  -7   9   3    9.30    0.53
   9  -2   3    8.83    0.49
   9  -2   3    9.24    0.52
  -7   9   3    9.33    0.49
   9  -2   3    9.19    0.50
   9  -2   3    9.73    0.41
  -2  -7   3    9.21    0.51
  -2  -7   3    9.84    0.53
  -7   9   3    9.08    0.50
   3   6  -3   47.87    1.36
  -9   3  -3   49.45    1.34
  -9   3  -3   47.40    1.39
   6  -9  -3   48.29    1.35
   6  -9  -3   48.78    1.46
   3   6  -3   50.70    1.31
  -9   3  -3   49.07    1.33
   3   6  -3   49.22    1.94
   9  -3   3   47.78    1.44
   9  -3   3   48.05    1.99
   9  -3   3   47.69    1.40
   9  -3   3   46.51    1.32
   9  -3   3   49.21    1.21
  -3  -6   3   49.23    1.43
   9  -3   3   49.95    1.28
   9  -3   3   46.51    1.34
   9  -3   3   49.18    1.40
  -6   9   3   46.72    1.43
  -6   9   3   47.67    1.33
  -6   9   3   46.75    1.32
   4   5  -3   22.31    0.80
   5  -9  -3   21.94    0.99
   4   5  -3   21.07    1.11
  -9   4  -3   22.13    0.78
  -9   4  -3   22.78    0.84
   4   5  -3   22.39    0.73
   5  -9  -3   21.17    0.78
   5  -9  -3   21.28    0.85
  -9   4  -3   23.44    0.81
   9  -4   3   21.14    0.75
   9  -4   3   20.52    0.82
   9  -4   3   22.21    0.84
   9  -4   3   20.88    0.79
  -4  -5   3   21.09    0.83
   9  -4   3   21.30    1.17
   9  -4   3   20.76    0.77
  -5   9   3   20.16    0.78
  -5   9   3   22.29    0.79
  -5   9   3   21.25    0.85
   9  -4   3   20.59    0.66
  -4  -5   3   20.70    0.82
   9  -4   3   21.77    0.83
   9  -4   3   21.93    0.82
   4  -9  -3   22.32    1.02
   4  -9  -3   24.93    0.84
   4  -9  -3   22.36    0.88
  -9   5  -3   23.13    0.84
   5   4  -3   22.26    1.12
   5   4  -3   22.06    0.80
  -9   5  -3   21.67    0.78
  -9   5  -3   21.72    0.81
  -9   5  -3   21.29    0.83
  -5  -4   3   22.68    0.87
  -4   9   3   21.84    0.78
   9  -5   3   21.24    0.83
   9  -5   3   21.80    0.78
   9  -5   3   22.08    0.82
   9  -5   3   21.91    1.19
   9  -5   3   21.98    0.79
   9  -5   3   22.63    0.84
  -4   9   3   22.45    0.82
  -5  -4   3   21.78    0.83
   9  -5   3   22.36    0.85
   9  -5   3   22.36    0.68
   9  -5   3   21.92    0.81
  -4   9   3   23.33    0.87
   3  -9  -3   48.11    1.75
   6   3  -3   48.27    1.30
   3  -9  -3   49.30    1.47
  -9   6  -3   50.42    1.41
   6   3  -3   49.65    1.34
   3  -9  -3   48.96    1.35
  -9   6  -3   48.55    1.33
   6   3  -3   48.65    1.89
  -9   6  -3   48.36    1.40
  -9   6  -3   50.08    1.42
   9  -6   3   47.82    1.39
  -3   9   3   46.73    1.36
   9  -6   3   48.95    1.20
  -6  -3   3   48.95    1.39
   9  -6   3   49.67    2.00
  -3   9   3   48.11    1.43
   9  -6   3   47.23    1.37
   9  -6   3   47.49    1.33
   9  -6   3   49.87    1.41
   9  -6   3   46.97    1.38
  -6  -3   3   47.60    1.43
  -3   9   3   49.81    1.34
   9  -6   3   47.48    1.36
   9  -6   3   48.32    1.29
  -3   9   3   48.56    1.32
   7   2  -3    6.16    0.56
  -9   7  -3    6.15    0.45
  -9   7  -3    6.82    0.47
  -9   7  -3    6.74    0.44
   7   2  -3    6.41    0.43
   2  -9  -3    6.19    0.44
  -9   7  -3    7.20    0.47
   7   2  -3    6.12    0.42
   2  -9  -3    6.26    0.55
   9  -7   3    9.17    0.51
   9  -7   3    9.70    0.53
   9  -7   3    9.72    0.51
  -2   9   3    9.80    0.50
   9  -7   3    9.29    0.73
  -2   9   3   10.04    0.51
  -7  -2   3    9.49    0.54
  -7  -2   3    8.72    0.49
   9  -7   3   10.01    0.52
   9  -7   3    9.46    0.47
  -2   9   3    9.89    0.54
   9  -7   3    9.01    0.50
   9  -7   3    9.58    0.40
  -2   9   3    9.66    0.52
   9  -7   3    9.56    0.52
  -9   8  -3   25.01    0.88
   1  -9  -3   25.62    0.97
  -9   8  -3   25.87    0.93
  -9   8  -3   25.16    0.92
   8   1  -3   27.73    1.26
   8   1  -3   25.53    0.87
  -9   8  -3   25.29    0.93
   1  -9  -3   25.37    1.18
  -1   9   3   24.84    0.91
   9  -8   3   24.60    0.90
   9  -8   3   24.32    0.89
   9  -8   3   25.68    1.31
  -8  -1   3   23.51    0.93
  -8  -1   3   24.65    0.90
   9  -8   3   25.77    0.90
   9  -8   3   23.99    0.75
   9  -8   3   24.02    0.90
  -1   9   3   24.40    0.86
  -1   9   3   23.66    0.92
   9  -8   3   24.71    0.91
  -1   9   3   26.00    0.91
  -9   9  -3   49.30    1.44
   9   0  -3   51.52    1.39
  -9   9  -3   51.76    1.46
   0  -9  -3   51.40    1.53
  -9   9  -3   51.41    1.42
   0  -9  -3   49.80    1.87
  -9   9  -3   49.88    1.50
   9  -9   3   48.65    1.44
   0   9   3   51.01    1.47
   9  -9   3   49.75    1.28
  -9   0   3   50.15    1.45
   0   9   3   49.93    1.37
  -9   0   3   48.96    1.51
   9  -9   3   49.47    2.05
   0   9   3   48.76    1.44
   9  -9   3   48.42    1.44
   0   9   3   48.78    1.48
   9  -9   3   50.05    1.46
  -9  10  -3    9.87    0.56
  -9  10  -3    9.44    0.55
  -9  10  -3    9.52    0.56
  10  -1  -3    9.68    0.54
  -1  -9  -3   10.22    0.73
  -9  10  -3   10.24    0.59
  -9  10  -3   10.50    0.56
  -1  -9  -3   10.00    0.59
   1   9   3   10.27    0.55
   9 -10   3    9.89    0.47
   9 -10   3   10.19    0.57
 -10   1   3   10.04    0.60
   9 -10   3    9.82    0.56
   9 -10   3   10.04    0.56
 -10   1   3    9.82    0.56
   1   9   3    9.93    0.57
   1   9   3   10.25    0.58
   9 -10   3    9.87    0.79
   1   9   3    9.87    0.57
  11  -2  -3   17.72    0.75
  11  -2  -3   18.20    0.78
  -2  -9  -3   17.79    0.84
  -9  11  -3   17.64    0.76
  -9  11  -3   18.08    0.78
  -9  11  -3   18.45    0.81
  -9  11  -3   17.97    0.80
  -9  11  -3   16.49    0.80
  -2  -9  -3   19.42    1.05
   9 -11   3   18.66    0.81
 -11   2   3   19.25    0.80
   9 -11   3   18.09    0.79
   2   9   3   18.83    0.83
 -11   2   3   18.25    0.85
   9 -11   3   19.59    0.70
   9 -11   3   19.17    0.81
   2   9   3   18.40    0.81
   2   9   3   19.08    0.77
   9 -11   3   18.17    1.09
   2   9   3   18.65    0.84
  -9  12  -3   45.04    1.40
  -9  12  -3   44.82    1.36
  -9  12  -3   44.17    1.46
  -9  12  -3   44.53    1.41
  12  -3  -3   43.98    1.34
  12  -3  -3   45.48    1.29
  12  -3  -3   45.42    1.42
  -9  12  -3   44.36    1.37
  -3  -9  -3   43.95    1.80
   3   9   3   42.98    1.44
   3   9   3   42.67    1.38
   3   9   3   43.26    1.43
   9 -12   3   43.39    1.25
   9 -12   3   43.94    1.38
   9 -12   3   44.48    1.41
   3   9   3   43.74    1.32
 -12   3   3   41.38    1.46
   9 -12   3   44.55    1.38
  -9  13  -3    8.63    0.56
  -9  13  -3    8.62    0.56
  -9  13  -3    9.59    0.58
  13  -4  -3    9.23    0.59
  13  -4  -3    9.25    0.57
  -9  13  -3    8.68    0.59
  13  -4  -3    8.71    0.54
  -9  13  -3    9.26    0.57
 -13   4   3    8.54    0.61
   4   9   3    8.95    0.56
   9 -13   3    8.30    0.55
   4   9   3    9.62    0.61
   9 -13   3    9.16    0.58
   4   9   3    8.29    0.58
   4   9   3    9.23    0.58
   9 -13   3    8.88    0.49
  -9  14  -3   16.62    0.80
  -9  14  -3   18.13    0.82
  14  -5  -3   16.34    0.79
  -9  14  -3   16.35    0.84
  -9  14  -3   16.85    0.84
  14  -5  -3   17.62    0.80
  -9  14  -3   17.10    0.81
   9 -14   3   17.48    0.81
   9 -14   3   17.63    0.74
   5   9   3   15.88    0.83
   5   9   3   18.70    0.85
   5   9   3   18.17    0.81
 -14   5   3   16.47    0.87
   9 -14   3   19.12    0.84
   5   9   3   16.02    0.85
  -9  15  -3   25.92    1.05
  15  -6  -3   25.57    1.12
  -9  15  -3   26.05    1.08
  15  -6  -3   26.55    1.05
  -9  15  -3   27.69    1.14
  15  -6  -3   27.24    1.05
   6   9   3   24.56    1.08
   6   9   3   25.70    1.13
   9 -15   3   25.69    0.96
   6   9   3   25.58    1.01
 -15   6   3   23.83    1.12
   6   9   3   25.59    1.06
  16  -7  -3    9.30    0.68
  -9  16  -3   10.28    0.68
  -9  16  -3   10.67    0.66
  16  -7  -3    9.06    0.62
  -9  16  -3    9.75    0.66
  16  -7  -3   10.86    0.67
   7   9   3    8.82    0.60
   7   9   3    8.70    0.66
   7   9   3    8.48    0.60
   9 -16   3    9.47    0.57
 -16   7   3    8.54    0.68
  -9  17  -3    2.83    0.44
  17  -8  -3    2.69    0.42
  -9  17  -3    1.94    0.38
  17  -8  -3    1.75    0.36
  -9  17  -3    2.21    0.39
   8   9   3    3.63    0.51
 -17   8   3    2.78    0.47
  18  -9  -3   11.02    0.74
  18  -9  -3   12.39    0.76
  -9  18  -3   11.30    0.73
   9   9   3   10.25    0.76
  -8  18  -3    3.68    0.48
  18 -10  -3    3.60    0.49
  18 -10  -3    3.59    0.50
  10   8   3    4.06    0.55
  17 -10  -3    0.70    0.27
  -7  17  -3    1.43    0.34
  17 -10  -3    1.26    0.32
 -17  10   3    1.00    0.32
  10   7   3    0.73    0.27
  10   7   3    1.12    0.34
  10   7   3    1.11    0.33
  -6  16  -3    9.15    0.64
  16 -10  -3    9.28    0.62
  16 -10  -3    9.75    0.65
  -6  16  -3    9.35    0.65
  10   6   3    9.54    0.57
  10   6   3    9.31    0.68
 -16  10   3    8.56    0.68
  10   6   3    9.98    0.70
   6 -16   3   10.06    0.57
  10   6   3    9.72    0.70
  10   6   3    9.11    0.64
 -10  -5  -3    5.61    0.48
  15 -10  -3    5.17    0.49
  -5  15  -3    5.21    0.48
  15 -10  -3    4.34    0.54
  15 -10  -3    5.59    0.47
  -5  15  -3    4.78    0.45
  -5  15  -3    5.01    0.48
   5 -15   3    5.36    0.47
  10   5   3    4.95    0.50
  10   5   3    5.81    0.54
   5 -15   3    5.18    0.41
  10   5   3    5.33    0.51
 -15  10   3    5.33    0.52
  10   5   3    5.42    0.50
  10   5   3    5.02    0.40
  -4  14  -3    2.16    0.34
  14 -10  -3    1.89    0.34
  -4  14  -3    1.80    0.33
 -10  -4  -3    1.79    0.32
  -4  14  -3    1.79    0.34
  14 -10  -3    1.84    0.33
  14 -10  -3    1.71    0.35
  10   4   3    2.37    0.39
  10   4   3    2.47    0.36
  10   4   3    2.06    0.37
  10   4   3    2.39    0.31
  10   4   3    2.53    0.41
  10   4   3    2.20    0.36
   4 -14   3    2.30    0.35
 -14  10   3    2.54    0.40
   4 -14   3    2.38    0.37
  -3  13  -3    1.65    0.32
 -10  -3  -3    1.49    0.37
  13 -10  -3    1.75    0.33
  13 -10  -3    1.42    0.30
  -3  13  -3    1.96    0.33
  13 -10  -3    1.91    0.31
 -10  -3  -3    2.08    0.33
  -3  13  -3    1.49    0.30
 -13  10   3    3.70    0.46
  10   3   3    3.06    0.42
  10   3   3    3.64    0.44
  10   3   3    3.06    0.39
  10   3   3    3.16    0.41
  10   3   3    2.94    0.41
   3 -13   3    3.55    0.42
   3 -13   3    3.03    0.40
  10   3   3    3.11    0.31
 -10  -2  -3   16.48    0.77
  12 -10  -3   16.29    0.72
  -2  12  -3   15.63    0.77
  -2  12  -3   18.07    0.82
 -10  -2  -3   18.00    0.76
  12 -10  -3   16.64    0.83
 -10  -2  -3   17.15    1.01
  12 -10  -3   17.21    0.78
  -2  12  -3   16.73    0.78
  10   2   3   17.24    0.69
  10   2   3   16.74    0.78
 -12  10   3   16.75    0.81
  10   2   3   15.90    0.83
  10   2   3   16.87    0.81
  10   2   3   17.03    0.82
  10   2   3   17.85    0.79
   2 -12   3   17.17    0.79
   2 -12   3   17.22    0.79
  11 -10  -3    0.75    0.23
  11 -10  -3    1.47    0.30
 -10  -1  -3    0.94    0.23
 -10  -1  -3    1.05    0.25
  -1  11  -3    1.19    0.27
 -10  -1  -3    0.98    0.30
  -1  11  -3    1.05    0.25
  11 -10  -3    0.92    0.21
  -1  11  -3    0.96    0.25
 -11  10   3    1.08    0.25
  10   1   3    1.04    0.26
  10   1   3    0.99    0.26
   1 -11   3    1.16    0.26
  10   1   3    1.35    0.22
  10   1   3    1.11    0.26
  10   1   3    0.86    0.24
   1 -11   3    0.94    0.24
  10   1   3    1.33    0.29
  10 -10  -3   25.21    0.92
   0  10  -3   24.31    0.95
 -10   0  -3   24.27    0.88
 -10   0  -3   24.59    1.20
   0  10  -3   25.90    0.94
  10 -10  -3   24.88    1.00
   0  10  -3   23.32    0.91
 -10   0  -3   24.44    0.93
  10   0   3   23.46    0.92
  10   0   3   23.31    0.80
  10   0   3   24.50    0.96
  10   0   3   23.47    0.99
  10   0   3   23.78    0.96
  10   0   3   22.41    0.87
   0 -10   3   22.57    0.92
 -10  10   3   23.69    0.90
   1   9  -3   10.93    0.59
   9 -10  -3   10.12    0.60
   1   9  -3   10.02    0.80
   9 -10  -3    9.72    0.55
 -10   1  -3    9.64    0.72
 -10   1  -3    9.68    0.52
   1   9  -3   10.26    0.59
   1   9  -3    9.96    0.55
 -10   1  -3   10.47    0.58
  -9  10   3   10.96    0.54
  10  -1   3   10.68    0.85
  10  -1   3   10.16    0.60
  10  -1   3   10.37    0.56
  -9  10   3   10.91    0.58
  10  -1   3   10.30    0.62
  -1  -9   3    9.76    0.57
  10  -1   3   10.35    0.58
  10  -1   3   11.56    0.61
  10  -1   3   10.83    0.48
   2   8  -3    4.90    0.40
 -10   2  -3    5.27    0.40
   2   8  -3    4.82    0.39
   2   8  -3    5.42    0.39
   8 -10  -3    5.22    0.44
   2   8  -3    4.78    0.54
 -10   2  -3    4.90    0.38
 -10   2  -3    4.30    0.48
   8 -10  -3    4.53    0.39
  -2  -8   3    4.84    0.41
  10  -2   3    5.16    0.44
  -8  10   3    4.82    0.40
  10  -2   3    5.68    0.61
  10  -2   3    4.74    0.40
  -8  10   3    5.36    0.40
  10  -2   3    4.70    0.31
  -2  -8   3    5.59    0.42
  10  -2   3    5.21    0.40
  10  -2   3    5.02    0.41
  10  -2   3    4.56    0.39
   3   7  -3   19.20    1.10
 -10   3  -3   19.31    1.03
 -10   3  -3   19.15    0.80
 -10   3  -3   19.42    0.75
   3   7  -3   18.93    0.78
   7 -10  -3   18.07    0.81
   3   7  -3   18.38    0.72
   7 -10  -3   18.58    0.76
  -7  10   3   19.42    0.77
  -3  -7   3   19.43    0.80
  10  -3   3   18.77    0.83
  -3  -7   3   19.72    0.82
  10  -3   3   19.23    0.65
  10  -3   3   19.58    0.78
  10  -3   3   19.04    0.76
  10  -3   3   19.89    0.80
  10  -3   3   18.75    1.13
  -7  10   3   19.52    0.77
  -7  10   3   18.58    0.81
  10  -3   3   19.80    0.82
  10  -3   3   19.49    0.72
   6 -10  -3    4.17    0.39
 -10   4  -3    4.69    0.37
   4   6  -3    4.61    0.34
   6 -10  -3    4.18    0.37
   4   6  -3    4.41    0.50
 -10   4  -3    4.63    0.38
 -10   4  -3    4.39    0.36
   4   6  -3    4.75    0.38
  10  -4   3    4.38    0.37
  10  -4   3    4.82    0.39
  10  -4   3    4.48    0.38
  -4  -6   3    4.65    0.39
  -6  10   3    5.06    0.39
  -4  -6   3    4.82    0.39
  10  -4   3    4.60    0.37
  10  -4   3    4.29    0.53
  10  -4   3    4.77    0.41
  10  -4   3    5.10    0.41
  10  -4   3    4.48    0.30
  -6  10   3    4.67    0.39
  -6  10   3    4.51    0.39
 -10   5  -3    1.08    0.22
   5 -10  -3    1.07    0.25
   5   5  -3    0.93    0.22
   5   5  -3    0.70    0.26
   5 -10  -3    1.14    0.23
 -10   5  -3    0.81    0.22
   5 -10  -3    1.28    0.28
 -10   5  -3    0.79    0.20
 -10   5  -3    1.11    0.22
  10  -5   3    0.97    0.22
  -5  10   3    0.89    0.21
  10  -5   3    1.05    0.33
  10  -5   3    1.12    0.23
  10  -5   3    1.04    0.24
  -5  10   3    0.88    0.23
  10  -5   3    1.07    0.24
  10  -5   3    1.17    0.25
  -5  -5   3    0.73    0.21
  10  -5   3    1.01    0.17
  -5  -5   3    1.15    0.25
  -5  10   3    0.99    0.23
  10  -5   3    0.64    0.20
  10  -5   3    0.84    0.21
   4 -10  -3    4.74    0.41
 -10   6  -3    4.29    0.37
 -10   6  -3    4.02    0.37
 -10   6  -3    4.38    0.37
   6   4  -3    4.60    0.51
   6   4  -3    4.52    0.37
   6   4  -3    4.50    0.36
   4 -10  -3    4.30    0.37
   4 -10  -3    4.90    0.48
 -10   6  -3    4.64    0.37
  10  -6   3    4.78    0.40
  10  -6   3    4.32    0.37
  10  -6   3    4.83    0.38
  -4  10   3    4.87    0.38
  10  -6   3    4.61    0.38
  -6  -4   3    4.78    0.41
  10  -6   3    4.52    0.39
  10  -6   3    4.60    0.30
  -4  10   3    4.61    0.39
  10  -6   3    4.63    0.39
  -4  10   3    4.49    0.38
  10  -6   3    5.15    0.40
  -6  -4   3    4.31    0.38
  10  -6   3    4.81    0.55
 -10   7  -3   18.68    0.78
   7   3  -3   19.01    0.75
   7   3  -3   18.15    0.72
   3 -10  -3   17.96    0.96
 -10   7  -3   18.01    0.78
   3 -10  -3   18.70    0.75
 -10   7  -3   18.62    0.75
   7   3  -3   19.48    1.06
   3 -10  -3   19.13    0.82
 -10   7  -3   18.76    0.78
  -3  10   3   19.50    0.82
  10  -7   3   18.49    0.78
  -7  -3   3   19.30    0.82
  10  -7   3   18.44    1.09
  10  -7   3   18.28    0.72
  10  -7   3   17.87    0.75
  -3  10   3   19.80    0.76
  10  -7   3   18.28    0.78
  10  -7   3   18.80    0.78
  -3  10   3   18.35    0.77
  -7  -3   3   19.08    0.79
  10  -7   3   19.15    0.65
  10  -7   3   18.00    0.77
  10  -7   3   18.76    0.76
 -10   8  -3    4.20    0.37
   2 -10  -3    4.21    0.38
 -10   8  -3    4.68    0.40
   2 -10  -3    4.51    0.41
   2 -10  -3    4.82    0.50
   8   2  -3    5.93    0.58
 -10   8  -3    4.39    0.40
   8   2  -3    4.50    0.37
 -10   8  -3    4.98    0.41
   8   2  -3    5.27    0.39
  -2  10   3    5.19    0.39
  10  -8   3    5.22    0.56
  -8  -2   3    4.78    0.40
  -2  10   3    4.65    0.39
  -8  -2   3    4.95    0.42
  10  -8   3    5.16    0.40
  10  -8   3    4.52    0.39
  10  -8   3    4.82    0.31
  10  -8   3    4.47    0.40
  10  -8   3    5.12    0.41
  -2  10   3    4.78    0.40
  10  -8   3    4.42    0.37
  10  -8   3    4.85    0.40
  -2  10   3    5.13    0.40
   1 -10  -3    9.99    0.73
   9   1  -3    9.90    0.54
 -10   9  -3   10.08    0.59
 -10   9  -3   10.28    0.56
 -10   9  -3    9.78    0.57
   1 -10  -3    9.84    0.59
 -10   9  -3    9.87    0.56
   9   1  -3   10.63    0.54
  10  -9   3   10.48    0.82
  10  -9   3   10.64    0.58
  10  -9   3    9.78    0.46
  -9  -1   3   10.24    0.57
  10  -9   3   10.11    0.57
  10  -9   3    9.93    0.56
  -1  10   3    8.87    0.55
  -1  10   3    9.76    0.57
  -1  10   3   10.12    0.59
  10  -9   3    9.82    0.56
  -9  -1   3    9.79    0.58
  -1  10   3    9.38    0.53
 -10  10  -3   23.96    0.90
   0 -10  -3   23.61    1.19
 -10  10  -3   24.25    0.93
 -10  10  -3   24.04    0.97
   0 -10  -3   23.47    0.96
  10   0  -3   24.21    0.88
 -10  10  -3   24.38    0.93
   0  10   3   23.98    0.93
  10 -10   3   23.03    0.79
  10 -10   3   21.82    0.89
 -10   0   3   22.62    0.91
   0  10   3   23.51    0.94
  10 -10   3   23.25    0.92
   0  10   3   23.44    0.94
  10 -10   3   24.21    0.93
   0  10   3   23.63    0.88
  10 -10   3   22.55    1.27
 -10   0   3   22.66    0.96
  10 -10   3   24.13    0.93
 -10  11  -3    1.10    0.25
 -10  11  -3    1.17    0.26
  11  -1  -3    1.14    0.25
 -10  11  -3    1.26    0.27
  -1 -10  -3    1.02    0.31
 -10  11  -3    1.16    0.25
  -1 -10  -3    1.20    0.28
 -10  11  -3    0.82    0.23
   1  10   3    1.41    0.27
 -11   1   3    1.02    0.26
  10 -11   3    1.13    0.26
  10 -11   3    1.16    0.21
  10 -11   3    1.07    0.25
  10 -11   3    1.33    0.27
   1  10   3    0.94    0.26
 -11   1   3    1.64    0.30
   1  10   3    1.43    0.29
   1  10   3    0.99    0.26
  10 -11   3    1.08    0.35
 -10  12  -3   17.47    0.79
 -10  12  -3   17.57    0.85
 -10  12  -3   18.27    0.81
  -2 -10  -3   18.43    1.07
 -10  12  -3   17.71    0.80
  -2 -10  -3   18.18    0.86
 -10  12  -3   17.59    0.79
  12  -2  -3   17.39    0.77
   2  10   3   17.90    0.82
   2  10   3   17.72    0.82
   2  10   3   16.15    0.82
  10 -12   3   18.70    0.82
 -12   2   3   17.84    0.86
  10 -12   3   17.73    0.81
 -12   2   3   16.04    0.78
  10 -12   3   17.74    0.79
  10 -12   3   17.44    0.70
   2  10   3   17.62    0.76
 -10  13  -3    1.86    0.32
 -10  13  -3    1.71    0.32
  13  -3  -3    1.81    0.31
 -10  13  -3    1.75    0.32
  13  -3  -3    1.69    0.31
 -10  13  -3    1.72    0.31
  13  -3  -3    1.55    0.30
  -3 -10  -3    1.56    0.32
 -10  13  -3    1.55    0.32
   3  10   3    3.07    0.43
  10 -13   3    3.21    0.40
  10 -13   3    2.84    0.33
   3  10   3    3.31    0.39
   3  10   3    3.37    0.42
  10 -13   3    3.22    0.40
 -13   3   3    3.82    0.47
 -10  14  -3    2.15    0.34
  14  -4  -3    1.85    0.32
 -10  14  -3    1.77    0.33
  14  -4  -3    1.81    0.33
 -10  14  -3    1.76    0.32
  14  -4  -3    1.87    0.33
 -10  14  -3    1.49    0.33
 -10  14  -3    2.25    0.35
 -14   4   3    2.32    0.39
   4  10   3    1.78    0.35
   4  10   3    2.17    0.36
  10 -14   3    1.80    0.32
   4  10   3    2.07    0.35
  10 -14   3    2.35    0.36
   4  10   3    1.85    0.32
  10 -14   3    1.94    0.30
 -10  15  -3    4.56    0.46
  15  -5  -3    4.70    0.46
  15  -5  -3    4.90    0.49
  15  -5  -3    5.76    0.49
 -10  15  -3    5.04    0.50
 -10  15  -3    5.20    0.47
 -15   5   3    5.21    0.52
  10 -15   3    5.59    0.43
   5  10   3    5.28    0.51
   5  10   3    5.61    0.49
   5  10   3    4.54    0.46
  16  -6  -3    9.62    0.63
  16  -6  -3    9.67    0.64
  16  -6  -3    9.75    0.69
 -10  16  -3    9.11    0.63
 -10  16  -3    8.39    0.66
 -10  16  -3   10.06    0.68
   6  10   3   10.08    0.71
 -16   6   3    9.29    0.70
   6  10   3    8.83    0.62
  10 -16   3    9.24    0.57
 -10  17  -3    1.09    0.32
 -10  17  -3    1.02    0.30
  17  -7  -3    0.89    0.29
 -10  17  -3    1.19    0.33
  17  -7  -3    0.78    0.28
 -17   7   3    1.35    0.35
  18  -8  -3    3.40    0.48
 -10  18  -3    4.07    0.52
  18  -8  -3    3.17    0.47
  18 -11  -3    3.38    0.47
  17 -11  -3   16.82    0.89
  17 -11  -3   16.13    0.85
  -6  17  -3   15.61    0.88
  11   6   3   17.46    0.90
  11   6   3   15.21    0.89
  11   6   3   15.53    0.91
 -17  11   3   15.84    0.94
 -11  -5  -3    5.08    0.48
  16 -11  -3    5.30    0.48
  -5  16  -3    5.54    0.50
  16 -11  -3    4.23    0.50
  -5  16  -3    5.35    0.50
 -16  11   3    5.27    0.54
  11   5   3    5.76    0.52
  11   5   3    5.94    0.55
  11   5   3    5.97    0.56
  11   5   3    5.39    0.44
  11   5   3    5.69    0.54
 -11  -4  -3   14.54    0.77
  15 -11  -3   13.02    0.75
  -4  15  -3   14.75    0.80
  15 -11  -3   13.90    0.83
  -4  15  -3   13.87    0.76
  11   4   3   13.60    0.80
   4 -15   3   13.77    0.67
  11   4   3   13.50    0.82
  11   4   3   14.02    0.68
  11   4   3   14.15    0.82
  11   4   3   14.98    0.80
 -15  11   3   13.41    0.81
 -11  -3  -3   11.08    0.67
  14 -11  -3    9.92    0.69
  -3  14  -3   10.28    0.66
  -3  14  -3   11.74    0.68
  14 -11  -3   10.50    0.61
  14 -11  -3   10.75    0.66
  -3  14  -3   10.91    0.66
  11   3   3   10.38    0.68
 -14  11   3   10.87    0.72
  11   3   3   10.46    0.69
  11   3   3   10.89    0.71
  11   3   3   10.39    0.65
  11   3   3   10.76    0.58
   3 -14   3   10.96    0.66
  -2  13  -3    2.12    0.35
 -11  -2  -3    2.34    0.34
  13 -11  -3    2.18    0.37
  -2  13  -3    1.56    0.31
  -2  13  -3    1.82    0.33
  13 -11  -3    2.63    0.35
 -11  -2  -3    2.32    0.45
 -11  -2  -3    1.97    0.33
  13 -11  -3    2.08    0.34
  11   2   3    2.00    0.35
  11   2   3    2.29    0.30
  11   2   3    1.87    0.35
  11   2   3    2.40    0.38
  11   2   3    1.71    0.35
  11   2   3    2.22    0.35
 -13  11   3    2.12    0.36
   2 -13   3    2.05    0.34
 -11  -1  -3    8.31    0.52
  -1  12  -3    8.55    0.56
  12 -11  -3    8.36    0.57
  -1  12  -3    7.84    0.55
  12 -11  -3    7.52    0.58
 -11  -1  -3    8.67    0.57
 -11  -1  -3    8.55    0.72
  -1  12  -3    9.06    0.58
  11   1   3    8.84    0.58
  11   1   3    8.81    0.59
  11   1   3    8.77    0.62
 -12  11   3    9.57    0.61
  11   1   3    9.68    0.57
  11   1   3    8.67    0.60
  11   1   3    9.10    0.49
   1 -12   3    9.75    0.60
  11 -11  -3   15.02    0.74
   0  11  -3   14.49    0.73
   0  11  -3   12.93    0.69
 -11   0  -3   13.89    0.72
   0  11  -3   15.32    0.74
  11 -11  -3   14.42    0.79
 -11   0  -3   15.07    0.94
 -11   0  -3   14.47    0.69
  11   0   3   16.31    0.81
  11   0   3   15.59    0.76
  11   0   3   15.54    0.82
  11   0   3   15.96    0.73
  11   0   3   15.30    0.63
 -11  11   3   15.23    0.74
   0 -11   3   16.18    0.78
  11   0   3   16.01    0.76
 -11   1  -3    1.05    0.31
   1  10  -3    1.04    0.25
  10 -11  -3    0.83    0.23
 -11   1  -3    0.92    0.23
   1  10  -3    1.21    0.27
 -11   1  -3    1.03    0.23
  10 -11  -3    1.18    0.27
   1  10  -3    1.18    0.26
  11  -1   3    1.25    0.27
  -1 -10   3    1.49    0.28
  11  -1   3    0.66    0.21
 -10  11   3    0.95    0.25
  11  -1   3    1.08    0.26
  11  -1   3    1.01    0.27
  11  -1   3    0.76    0.23
  11  -1   3    1.13    0.21
   2   9  -3   19.06    0.82
   2   9  -3   19.59    0.80
   9 -11  -3   20.00    0.82
 -11   2  -3   18.70    0.77
   2   9  -3   19.52    0.85
   9 -11  -3   18.62    0.87
 -11   2  -3   18.55    0.83
 -11   2  -3   18.05    1.03
  11  -2   3   19.20    0.86
  -9  11   3   20.68    0.81
  11  -2   3   18.87    0.88
  11  -2   3   20.82    0.82
  11  -2   3   20.72    0.86
  11  -2   3   19.58    0.71
  11  -2   3   21.19    0.84
  -2  -9   3   19.46    0.85
  -9  11   3   20.38    0.82
 -11   3  -3    5.60    0.41
   3   8  -3    6.04    0.45
   3   8  -3    4.36    0.37
   8 -11  -3    5.44    0.46
   8 -11  -3    5.49    0.43
 -11   3  -3    5.27    0.43
 -11   3  -3    4.55    0.52
  11  -3   3    6.57    0.47
  11  -3   3    6.40    0.49
  -3  -8   3    7.20    0.49
  -3  -8   3    5.56    0.44
  11  -3   3    6.48    0.45
  -8  11   3    7.62    0.49
  11  -3   3    6.11    0.37
  11  -3   3    6.43    0.46
  -8  11   3    6.76    0.46
  11  -3   3    6.18    0.65
  11  -3   3    6.42    0.50
   4   7  -3    6.86    0.66
   4   7  -3    7.08    0.44
   7 -11  -3    7.04    0.47
 -11   4  -3    6.62    0.60
   7 -11  -3    7.12    0.51
   4   7  -3    7.28    0.49
 -11   4  -3    7.32    0.46
 -11   4  -3    6.18    0.47
 -11   4  -3    6.92    0.45
  -7  11   3    6.68    0.47
  11  -4   3    6.88    0.46
  11  -4   3    7.02    0.39
  11  -4   3    7.04    0.48
  -4  -7   3    7.13    0.49
  11  -4   3    6.91    0.45
  -7  11   3    7.30    0.51
  11  -4   3    7.62    0.50
  -7  11   3    6.21    0.45
  11  -4   3    7.12    0.69
  -4  -7   3    6.98    0.49
  11  -4   3    7.50    0.52
  11  -4   3    7.43    0.51
   6 -11  -3   21.96    0.92
 -11   5  -3   24.34    0.89
   6 -11  -3   22.56    0.86
 -11   5  -3   23.92    0.86
   5   6  -3   22.55    1.23
   5   6  -3   22.97    0.88
 -11   5  -3   23.06    0.90
  11  -5   3   22.07    0.85
  11  -5   3   20.85    0.81
  -6  11   3   21.22    0.83
  11  -5   3   20.87    0.84
  11  -5   3   21.11    0.73
  11  -5   3   22.49    0.88
  -5  -6   3   23.57    0.92
  -6  11   3   22.55    0.87
  11  -5   3   21.93    0.90
  11  -5   3   21.44    0.91
  -5  -6   3   21.82    0.89
  -6  11   3   20.80    0.89
  11  -5   3   21.43    1.26
   5 -11  -3   24.00    0.87
 -11   6  -3   22.90    0.90
   5 -11  -3   23.67    0.95
   6   5  -3   23.76    1.26
 -11   6  -3   24.44    0.91
   6   5  -3   23.77    0.84
 -11   6  -3   24.48    0.92
 -11   6  -3   22.93    0.86
   6   5  -3   24.71    0.90
  11  -6   3   22.56    0.91
  -5  11   3   22.85    0.93
  11  -6   3   23.01    0.92
  11  -6   3   22.62    0.86
  11  -6   3   23.35    0.87
  11  -6   3   23.04    0.94
  11  -6   3   22.13    0.87
  11  -6   3   23.24    1.30
  -6  -5   3   22.54    0.92
  -6  -5   3   22.52    0.91
  11  -6   3   22.61    0.89
  11  -6   3   22.32    0.76
  -5  11   3   23.23    0.86
  -5  11   3   23.54    0.91
   7   4  -3    7.36    0.48
   4 -11  -3    7.17    0.60
 -11   7  -3    7.61    0.50
   4 -11  -3    6.76    0.49
   4 -11  -3    6.85    0.46
   7   4  -3    7.35    0.46
 -11   7  -3    7.01    0.48
   7   4  -3    6.88    0.64
 -11   7  -3    7.49    0.49
 -11   7  -3    6.87    0.46
  11  -7   3    7.49    0.49
  -4  11   3    6.77    0.49
  11  -7   3    7.23    0.48
  11  -7   3    7.04    0.48
  11  -7   3    7.44    0.40
  11  -7   3    6.67    0.48
  -7  -4   3    6.99    0.49
  11  -7   3    8.20    0.49
  11  -7   3    6.96    0.48
  -7  -4   3    7.21    0.50
  -4  11   3    7.46    0.50
  -4  11   3    7.64    0.48
  11  -7   3    6.89    0.49
  11  -7   3    6.55    0.66
   3 -11  -3    4.91    0.44
   3 -11  -3    5.20    0.42
 -11   8  -3    5.29    0.43
   8   3  -3    5.16    0.41
   3 -11  -3    5.02    0.53
   8   3  -3    5.12    0.56
   8   3  -3    5.57    0.41
 -11   8  -3    5.44    0.44
 -11   8  -3    5.19    0.44
 -11   8  -3    5.59    0.42
  11  -8   3    6.40    0.47
  11  -8   3    5.99    0.45
  11  -8   3    6.64    0.38
  -3  11   3    6.90    0.48
  11  -8   3    6.89    0.67
  11  -8   3    5.97    0.42
  11  -8   3    6.49    0.47
  -8  -3   3    6.31    0.47
  11  -8   3    6.29    0.46
  11  -8   3    6.37    0.46
  -3  11   3    6.53    0.48
  -3  11   3    5.95    0.44
  -3  11   3    6.51    0.45
  -8  -3   3    6.00    0.46
  11  -8   3    6.89    0.49
 -11   9  -3   18.28    0.83
   2 -11  -3   17.13    0.81
   2 -11  -3   17.46    0.77
 -11   9  -3   18.34    0.81
 -11   9  -3   19.45    0.82
   9   2  -3   18.34    0.76
 -11   9  -3   16.79    0.75
   9   2  -3   17.80    1.07
   2 -11  -3   16.24    0.98
   9   2  -3   17.64    0.75
  11  -9   3   18.82    0.81
  -9  -2   3   18.59    0.85
  11  -9   3   19.38    0.81
  11  -9   3   18.53    0.80
  11  -9   3   18.83    0.81
  -2  11   3   19.37    0.81
  11  -9   3   20.28    1.17
  11  -9   3   18.27    0.68
  -9  -2   3   18.61    0.82
  -2  11   3   18.48    0.82
  -2  11   3   18.54    0.76
  -2  11   3   18.18    0.80
   1 -11  -3    0.96    0.30
  10   1  -3    1.27    0.26
 -11  10  -3    1.27    0.27
  10   1  -3    0.81    0.22
   1 -11  -3    1.22    0.26
 -11  10  -3    1.27    0.27
   1 -11  -3    0.94    0.25
 -11  10  -3    1.02    0.25
 -11  10  -3    1.14    0.26
  11 -10   3    1.27    0.27
  11 -10   3    1.23    0.27
  -1  11   3    1.37    0.28
  11 -10   3    1.21    0.22
 -10  -1   3    0.97    0.25
  -1  11   3    1.07    0.24
  11 -10   3    1.22    0.26
  -1  11   3    1.31    0.29
 -10  -1   3    1.19    0.28
  11 -10   3    1.18    0.28
  11 -10   3    1.24    0.37
  -1  11   3    1.01    0.26
 -11  11  -3   14.14    0.72
   0 -11  -3   14.31    0.75
 -11  11  -3   14.66    0.73
   0 -11  -3   13.66    0.92
 -11  11  -3   13.99    0.70
  11   0  -3   13.92    0.69
 -11  11  -3   13.55    0.74
   0  11   3   15.69    0.76
  11 -11   3   14.68    0.62
  11 -11   3   15.21    0.74
 -11   0   3   14.41    0.74
 -11   0   3   14.66    0.77
   0  11   3   15.22    0.69
  11 -11   3   14.74    0.73
   0  11   3   16.16    0.77
  11 -11   3   15.57    0.74
   0  11   3   14.63    0.75
  11 -11   3   15.78    0.76
 -11  12  -3    8.01    0.55
 -11  12  -3    8.72    0.60
  -1 -11  -3    9.41    0.62
  12  -1  -3    8.77    0.55
 -11  12  -3    8.60    0.57
 -11  12  -3    9.30    0.58
 -11  12  -3    8.94    0.57
  11 -12   3    9.67    0.60
 -12   1   3    9.44    0.60
   1  11   3    9.96    0.58
 -12   1   3    9.85    0.64
   1  11   3   10.29    0.62
  11 -12   3    9.63    0.59
  11 -12   3    9.05    0.50
  11 -12   3    9.96    0.60
   1  11   3    9.84    0.63
   1  11   3    9.57    0.61
 -11  13  -3    2.00    0.34
  -2 -11  -3    2.36    0.37
 -11  13  -3    2.42    0.36
 -11  13  -3    2.04    0.34
  13  -2  -3    2.21    0.35
 -11  13  -3    1.86    0.33
 -11  13  -3    2.09    0.37
  11 -13   3    2.23    0.36
  11 -13   3    2.28    0.35
   2  11   3    1.97    0.34
   2  11   3    2.40    0.39
  11 -13   3    2.37    0.31
 -13   2   3    1.99    0.35
   2  11   3    2.06    0.35
 -13   2   3    2.68    0.41
   2  11   3    2.36    0.35
  11 -13   3    2.17    0.34
 -11  14  -3   11.11    0.67
 -11  14  -3   11.33    0.68
  14  -3  -3   10.52    0.64
 -11  14  -3   11.89    0.73
  11 -14   3   10.07    0.56
 -14   3   3   10.04    0.69
   3  11   3   10.60    0.70
   3  11   3   11.26    0.64
   3  11   3   10.74    0.67
  15  -4  -3   14.09    0.72
 -11  15  -3   14.10    0.77
 -11  15  -3   14.16    0.82
 -11  15  -3   13.28    0.77
  15  -4  -3   14.26    0.76
 -15   4   3   13.44    0.82
   4  11   3   13.52    0.81
  11 -15   3   14.09    0.69
   4  11   3   13.57    0.77
  16  -5  -3    5.52    0.52
 -11  16  -3    5.55    0.52
  16  -5  -3    5.29    0.49
 -11  16  -3    5.89    0.52
 -11  16  -3    5.05    0.52
  16  -5  -3    5.22    0.49
 -16   5   3    6.05    0.57
   5  11   3    5.52    0.51
   5  11   3    5.32    0.54
  17  -6  -3   15.52    0.83
 -11  17  -3   16.95    0.93
 -11  17  -3   17.64    0.92
  17  -6  -3   17.93    0.91
 -11  17  -3   17.53    0.90
 -17   6   3   16.36    0.97
   6  11   3   16.63    0.95
  18  -7  -3    4.26    0.54
  17 -12  -3   11.01    0.72
  -5  17  -3    9.47    0.69
  17 -12  -3   10.23    0.67
  12   5   3   10.39    0.75
  12   5   3    9.68    0.70
 -17  12   3   10.56    0.77
  12   5   3   11.00    0.73
  16 -12  -3    7.92    0.57
 -12  -4  -3    7.43    0.59
  -4  16  -3    8.00    0.60
  -4  16  -3    8.14    0.62
  16 -12  -3    7.56    0.60
  12   4   3    6.92    0.61
  12   4   3    8.34    0.64
  12   4   3    8.08    0.62
 -16  12   3    8.12    0.65
  15 -12  -3    4.88    0.49
  -3  15  -3    6.05    0.53
  -3  15  -3    5.99    0.52
  15 -12  -3    6.06    0.49
  15 -12  -3    5.71    0.55
 -12  -3  -3    6.06    0.52
 -15  12   3    6.61    0.58
  12   3   3    6.77    0.59
  12   3   3    6.43    0.55
  12   3   3    6.97    0.58
   3 -15   3    7.25    0.49
  12   3   3    6.65    0.47
  12   3   3    6.80    0.56
  14 -12  -3    7.61    0.57
  -2  14  -3    6.37    0.53
  14 -12  -3    7.77    0.61
 -12  -2  -3    7.14    0.55
  -2  14  -3    6.79    0.54
 -14  12   3    7.57    0.58
   2 -14   3    8.28    0.59
  12   2   3    8.16    0.50
  12   2   3    7.29    0.58
  12   2   3    7.25    0.60
  12   2   3    6.41    0.56
  12   2   3    7.01    0.55
 -12  -1  -3   13.77    0.75
  13 -12  -3   13.41    0.78
  13 -12  -3   13.67    0.73
  -1  13  -3   13.90    0.75
 -12  -1  -3   14.36    0.70
  -1  13  -3   13.50    0.74
  12   1   3   12.60    0.78
  12   1   3   12.64    0.68
  12   1   3   13.43    0.75
  12   1   3   13.91    0.79
   1 -13   3   13.66    0.75
  12   1   3   13.25    0.64
  12   1   3   12.53    0.72
 -12   0  -3   28.95    1.37
   0  12  -3   28.47    1.09
  12 -12  -3   28.19    1.08
   0  12  -3   28.19    1.08
  12 -12  -3   27.56    1.15
   0  12  -3   27.76    1.08
 -12   0  -3   28.59    1.11
 -12   0  -3   28.75    1.02
  12   0   3   28.18    1.09
  12   0   3   27.48    1.03
  12   0   3   26.28    1.15
   0 -12   3   28.42    1.12
  12   0   3   27.72    0.96
  12   0   3   26.43    1.12
  12   0   3   28.87    1.12
   1  11  -3    8.20    0.55
 -12   1  -3    9.11    0.73
   1  11  -3    8.38    0.55
 -12   1  -3    8.30    0.56
  11 -12  -3    8.60    0.61
  11 -12  -3    8.01    0.56
 -12   1  -3    8.13    0.52
   1  11  -3    8.42    0.56
  12  -1   3    9.37    0.59
  12  -1   3    9.02    0.56
  12  -1   3    8.96    0.63
  12  -1   3    8.90    0.49
  -1 -11   3   10.04    0.62
  12  -1   3    9.37    0.60
  12  -1   3    9.85    0.63
 -11  12   3    9.05    0.58
   2  10  -3   16.89    0.77
   2  10  -3   16.70    0.79
  10 -12  -3   17.72    0.84
 -12   2  -3   17.11    1.01
 -12   2  -3   15.88    0.78
 -12   2  -3   17.78    0.75
  10 -12  -3   16.36    0.76
   2  10  -3   16.26    0.77
  12  -2   3   16.55    0.82
  -2 -10   3   15.32    0.78
  12  -2   3   17.02    0.79
  12  -2   3   16.33    0.78
 -10  12   3   16.43    0.75
  12  -2   3   15.60    0.83
  12  -2   3   16.61    0.75
 -10  12   3   15.96    0.76
  12  -2   3   17.65    0.69
 -12   3  -3   43.18    1.42
   3   9  -3   46.42    1.38
   3   9  -3   42.61    1.41
   9 -12  -3   44.88    1.38
 -12   3  -3   45.48    1.81
   3   9  -3   44.32    1.41
 -12   3  -3   44.34    1.32
   9 -12  -3   44.20    1.49
  -9  12   3   44.70    1.36
  12  -3   3   43.91    1.41
  12  -3   3   45.16    1.46
  12  -3   3   44.78    1.51
  -3  -9   3   44.03    1.44
  -9  12   3   45.73    1.39
  12  -3   3   44.39    1.26
  12  -3   3   45.43    1.37
  12  -3   3   45.01    1.40
 -12   4  -3   82.42    2.68
   4   8  -3   80.49    2.00
 -12   4  -3   80.31    1.96
   8 -12  -3   77.02    2.17
   4   8  -3   81.78    2.08
   8 -12  -3   76.23    1.99
  12  -4   3   74.95    2.16
  12  -4   3   76.45    2.00
  12  -4   3   76.84    2.10
  -8  12   3   73.96    2.01
  12  -4   3   74.28    2.00
  -8  12   3   76.77    1.97
  -4  -8   3   74.51    2.08
  12  -4   3   76.31    1.88
  -4  -8   3   77.00    2.09
  12  -4   3   76.52    2.05
  12  -4   3   70.57    1.90
 -12   5  -3   29.09    1.04
 -12   5  -3   28.59    0.98
 -12   5  -3   27.58    1.05
   7 -12  -3   28.70    1.09
   7 -12  -3   27.89    1.00
   5   7  -3   28.04    1.03
  12  -5   3   28.35    0.91
  -5  -7   3   28.46    1.07
  12  -5   3   27.58    1.02
  12  -5   3   27.50    0.98
  12  -5   3   27.41    1.10
  12  -5   3   27.57    1.03
  -7  12   3   27.00    0.98
  -7  12   3   25.97    1.05
  -7  12   3   27.37    1.02
  -5  -7   3   27.21    1.05
  12  -5   3   27.56    1.06
  12  -5   3   27.61    1.00
 -12   6  -3   17.17    0.81
   6   6  -3   17.57    0.74
 -12   6  -3   17.64    0.76
   6 -12  -3   16.94    0.82
 -12   6  -3   17.82    0.80
   6   6  -3   16.77    0.78
 -12   6  -3   17.50    0.79
   6 -12  -3   17.79    0.77
  12  -6   3   19.43    0.80
  12  -6   3   19.56    0.85
  -6  12   3   18.61    0.78
  12  -6   3   19.22    0.87
  -6  12   3   19.56    0.86
  12  -6   3   19.04    0.70
  12  -6   3   19.97    0.83
  -6  -6   3   18.19    0.82
  -6  12   3   20.21    0.85
  12  -6   3   20.12    0.82
  12  -6   3   19.00    0.82
  -6  -6   3   18.81    0.84
 -12   7  -3   31.55    1.11
   7   5  -3   28.84    0.98
 -12   7  -3   29.75    1.06
 -12   7  -3   26.13    1.03
   7   5  -3   29.30    1.04
   5 -12  -3   29.71    1.12
   5 -12  -3   30.30    1.03
 -12   7  -3   28.65    1.01
  -5  12   3   28.02    1.06
  12  -7   3   29.34    1.03
  -5  12   3   28.70    1.08
  12  -7   3   28.60    1.04
  -7  -5   3   27.57    1.08
  12  -7   3   29.81    1.09
  12  -7   3   29.35    1.04
  -7  -5   3   30.73    1.12
  12  -7   3   27.78    1.04
  -5  12   3   28.86    1.00
  12  -7   3   28.13    0.92
  12  -7   3   28.34    1.10
 -12   8  -3   80.76    2.06
 -12   8  -3   80.17    2.13
   4 -12  -3   83.49    2.05
 -12   8  -3   80.60    2.17
   4 -12  -3   80.28    2.20
   8   4  -3   82.29    2.00
   8   4  -3   81.75    2.09
 -12   8  -3   81.74    2.11
  12  -8   3   80.64    2.03
  12  -8   3   77.78    2.07
  -4  12   3   78.34    2.16
  -8  -4   3   78.32    2.15
  12  -8   3   78.48    2.11
  -8  -4   3   79.54    2.19
  12  -8   3   79.21    1.95
  12  -8   3   79.47    2.13
  -4  12   3   79.20    1.99
  12  -8   3   79.77    2.19
  12  -8   3   81.93    2.11
  12  -8   3   76.79    2.06
  -4  12   3   75.60    2.08
 -12   9  -3   45.13    1.43
 -12   9  -3   43.11    1.44
 -12   9  -3   44.99    1.40
 -12   9  -3   44.81    1.37
   9   3  -3   45.61    1.33
   3 -12  -3   45.47    1.47
   3 -12  -3   44.73    1.36
   9   3  -3   45.60    1.38
   3 -12  -3   46.01    1.82
  -3  12   3   44.87    1.32
  -9  -3   3   43.47    1.43
  12  -9   3   45.20    1.41
  12  -9   3   42.54    1.37
  -3  12   3   44.24    1.42
  -3  12   3   42.69    1.41
  12  -9   3   41.41    1.23
  12  -9   3   44.83    1.40
  -9  -3   3   43.94    1.46
  12  -9   3   43.82    1.40
  12  -9   3   40.32    1.29
  10   2  -3   17.81    0.79
 -12  10  -3   18.07    0.85
 -12  10  -3   17.48    0.81
 -12  10  -3   17.97    0.80
  10   2  -3   17.91    0.77
 -12  10  -3   18.20    0.81
   2 -12  -3   17.72    0.77
   2 -12  -3   18.33    1.07
   2 -12  -3   17.38    0.83
 -10  -2   3   17.61    0.83
  -2  12   3   18.27    0.77
  -2  12   3   16.89    0.80
  12 -10   3   15.85    0.68
  12 -10   3   17.67    0.81
  -2  12   3   17.86    0.83
  12 -10   3   18.08    0.82
  12 -10   3   17.51    0.80
  12 -10   3   17.15    0.81
  -2  12   3   17.26    0.82
 -10  -2   3   17.30    0.85
 -12  11  -3    7.89    0.55
  11   1  -3    8.43    0.54
 -12  11  -3    8.44    0.60
  11   1  -3    8.65    0.54
 -12  11  -3    8.43    0.57
   1 -12  -3    8.32    0.58
 -12  11  -3    9.28    0.58
   1 -12  -3    8.59    0.56
 -11  -1   3   10.06    0.64
  12 -11   3    9.99    0.60
  -1  12   3    9.37    0.60
  12 -11   3    9.05    0.59
  12 -11   3   10.15    0.61
  -1  12   3   10.13    0.63
 -11  -1   3    9.00    0.60
  -1  12   3    9.60    0.55
  12 -11   3    9.89    0.60
  12 -11   3    9.45    0.51
  -1  12   3   10.35    0.61
 -12  12  -3   29.59    1.08
   0 -12  -3   28.75    1.14
  12   0  -3   30.26    1.07
 -12  12  -3   30.11    1.11
 -12  12  -3   29.91    1.18
 -12  12  -3   28.81    1.09
 -12  12  -3   30.11    1.10
 -12   0   3   27.53    1.12
   0  12   3   27.20    1.09
 -12   0   3   28.27    1.16
  12 -12   3   29.46    1.10
   0  12   3   28.02    1.13
  12 -12   3   28.90    1.12
  12 -12   3   29.47    1.10
   0  12   3   26.76    1.00
   0  12   3   27.45    1.10
  12 -12   3   27.63    1.08
  12 -12   3   26.85    0.96
 -12  13  -3   14.15    0.75
 -12  13  -3   15.27    0.77
 -12  13  -3   14.22    0.75
 -12  13  -3   13.39    0.78
  13  -1  -3   13.95    0.73
   1  12   3   13.92    0.76
 -13   1   3   13.13    0.75
  12 -13   3   13.39    0.65
  12 -13   3   14.39    0.75
   1  12   3   12.91    0.76
  12 -13   3   14.00    0.74
   1  12   3   13.46    0.68
 -13   1   3   13.47    0.79
 -12  14  -3    7.81    0.57
 -12  14  -3    6.76    0.57
  14  -2  -3    7.64    0.56
 -12  14  -3    7.74    0.57
   2  12   3    7.57    0.58
 -14   2   3    7.52    0.61
   2  12   3    6.95    0.58
  12 -14   3    7.39    0.49
 -14   2   3    7.54    0.57
 -12  15  -3    6.01    0.56
 -12  15  -3    6.21    0.54
 -12  15  -3    5.85    0.52
  15  -3  -3    6.01    0.52
  12 -15   3    7.23    0.49
   3  12   3    5.60    0.54
 -15   3   3    6.56    0.59
   3  12   3    6.99    0.56
  16  -4  -3    7.81    0.59
 -12  16  -3    8.06    0.61
 -12  16  -3    8.34    0.65
 -12  16  -3    8.41    0.62
   4  12   3    8.29    0.66
   4  12   3    8.57    0.64
 -16   4   3    7.69    0.65
  17  -5  -3   11.36    0.70
 -12  17  -3   11.02    0.73
  17  -5  -3   11.73    0.74
 -12  17  -3   10.38    0.74
 -12  17  -3   10.80    0.72
   5  12   3    9.74    0.74
   5  12   3    9.66    0.69
  -4  17  -3    0.62    0.28
  17 -13  -3    1.19    0.33
  17 -13  -3    0.58    0.27
  13   4   3    0.97    0.34
 -17  13   3    1.47    0.37
  13   4   3    1.12    0.33
  13   4   3    1.05    0.34
  16 -13  -3    5.82    0.55
 -13  -3  -3    6.27    0.56
  -3  16  -3    6.15    0.56
  -3  16  -3    6.27    0.53
  13   3   3    5.91    0.57
  13   3   3    5.79    0.55
  13   3   3    6.41    0.56
 -16  13   3    5.73    0.56
  15 -13  -3    9.63    0.66
 -13  -2  -3    9.82    0.67
  -2  15  -3    9.67    0.65
  -2  15  -3   10.02    0.68
  13   2   3   10.22    0.59
  13   2   3    9.26    0.65
  13   2   3    9.34    0.70
  13   2   3   10.90    0.71
  14 -13  -3    0.91    0.29
  -1  14  -3    0.93    0.28
  -1  14  -3    0.70    0.27
 -13  -1  -3    0.91    0.27
  14 -13  -3    0.95    0.29
  13   1   3    1.03    0.29
  13   1   3    1.23    0.30
   1 -14   3    0.99    0.28
  13   1   3    1.16    0.26
  13   1   3    1.05    0.31
  13   1   3    1.12    0.31
   0  13  -3   10.12    0.65
 -13   0  -3   10.25    0.66
  13 -13  -3   10.31    0.65
   0  13  -3   11.62    0.68
  13 -13  -3   10.13    0.69
  13   0   3    9.86    0.70
  13   0   3    9.50    0.64
   0 -13   3    9.47    0.64
  13   0   3    9.59    0.65
  13   0   3    8.34    0.64
  13   0   3    9.03    0.54
 -13   1  -3   13.41    0.75
  12 -13  -3   14.76    0.76
  12 -13  -3   12.75    0.77
   1  12  -3   14.40    0.76
   1  12  -3   13.90    0.74
 -13   1  -3   13.90    0.68
  -1 -12   3   12.93    0.74
  13  -1   3   13.10    0.74
  13  -1   3   12.86    0.79
  13  -1   3   12.29    0.72
  13  -1   3   13.65    0.78
  13  -1   3   12.98    0.69
  13  -1   3   12.81    0.63
 -13   2  -3    2.31    0.34
   2  11  -3    1.92    0.33
   2  11  -3    2.08    0.35
   2  11  -3    2.35    0.36
  11 -13  -3    1.83    0.35
 -13   2  -3    1.53    0.32
  11 -13  -3    1.88    0.34
  13  -2   3    1.95    0.34
  -2 -11   3    2.28    0.37
 -11  13   3    1.70    0.32
  13  -2   3    1.93    0.28
  13  -2   3    2.57    0.39
  13  -2   3    2.23    0.34
  13  -2   3    2.10    0.38
  13  -2   3    2.43    0.39
   3  10  -3    1.23    0.28
  10 -13  -3    1.32    0.29
 -13   3  -3    2.04    0.34
   3  10  -3    1.60    0.29
  10 -13  -3    1.74    0.33
 -13   3  -3    2.04    0.42
 -13   3  -3    1.42    0.28
   3  10  -3    1.63    0.31
  13  -3   3    2.79    0.32
  13  -3   3    3.29    0.43
  13  -3   3    3.24    0.39
 -10  13   3    3.50    0.42
 -10  13   3    3.60    0.43
  -3 -10   3    3.16    0.42
  13  -3   3    3.25    0.44
  13  -3   3    3.53    0.43
  13  -3   3    3.35    0.44
   4   9  -3    8.21    0.58
 -13   4  -3    9.31    0.55
   9 -13  -3    8.00    0.54
   9 -13  -3    9.01    0.62
   4   9  -3    8.78    0.58
   4   9  -3    8.95    0.54
 -13   4  -3    9.09    0.60
 -13   4  -3    9.44    0.75
  -4  -9   3    9.07    0.60
  13  -4   3    9.59    0.63
  13  -4   3    9.64    0.51
  13  -4   3    9.43    0.61
  -4  -9   3    9.40    0.59
  13  -4   3    9.11    0.63
  -9  13   3    9.49    0.58
  -9  13   3    8.95    0.59
  13  -4   3    9.12    0.58
  13  -4   3    9.80    0.58
   5   8  -3    0.62    0.23
 -13   5  -3    0.42    0.20
 -13   5  -3    0.41    0.25
   8 -13  -3    0.68    0.24
 -13   5  -3    0.64    0.21
 -13   5  -3    0.64    0.23
   8 -13  -3    0.62    0.22
  13  -5   3    0.97    0.25
  -5  -8   3    0.82    0.25
  -5  -8   3    0.84    0.24
  13  -5   3    0.60    0.22
  13  -5   3    0.66    0.24
  13  -5   3    1.01    0.28
  -8  13   3    0.72    0.23
  13  -5   3    0.61    0.23
  13  -5   3    0.78    0.26
  -8  13   3    1.06    0.27
  13  -5   3    0.95    0.20
   7 -13  -3   10.25    0.64
   6   7  -3    9.89    0.60
 -13   6  -3    9.51    0.57
   7 -13  -3   10.41    0.59
   6   7  -3   10.11    0.57
 -13   6  -3   10.76    0.62
 -13   6  -3    9.22    0.60
 -13   6  -3   10.88    0.62
  13  -6   3   10.86    0.61
  -7  13   3   10.68    0.60
  13  -6   3   10.12    0.60
  13  -6   3   10.73    0.61
  13  -6   3    9.97    0.63
  -7  13   3   10.27    0.63
  13  -6   3    9.71    0.64
  13  -6   3   10.45    0.52
  -6  -7   3   11.03    0.66
  -7  13   3   10.20    0.63
  -6  -7   3   10.57    0.64
  13  -6   3   10.40    0.62
 -13   7  -3   10.22    0.62
 -13   7  -3   10.86    0.63
 -13   7  -3   11.05    0.65
   7   6  -3   10.72    0.59
   6 -13  -3   10.92    0.60
   7   6  -3   10.13    0.61
 -13   7  -3   10.43    0.59
   6 -13  -3   10.62    0.64
  -7  -6   3   11.20    0.66
  13  -7   3   10.67    0.53
  -6  13   3   11.17    0.61
  13  -7   3   11.20    0.64
  13  -7   3   11.53    0.63
  13  -7   3   11.25    0.68
  13  -7   3   11.19    0.65
  -6  13   3   10.82    0.65
  13  -7   3   10.93    0.63
  13  -7   3   11.47    0.63
  -7  -6   3   10.58    0.64
  -6  13   3   11.33    0.67
 -13   8  -3    0.69    0.24
   8   5  -3    0.70    0.22
 -13   8  -3    0.56    0.20
 -13   8  -3    0.37    0.20
   8   5  -3    0.81    0.25
   5 -13  -3    0.57    0.22
 -13   8  -3    0.60    0.23
   5 -13  -3    0.71    0.25
  13  -8   3    0.63    0.24
  13  -8   3    0.80    0.25
  13  -8   3    0.62    0.24
  13  -8   3    0.67    0.23
  -5  13   3    0.42    0.22
  13  -8   3    0.50    0.17
  13  -8   3    0.67    0.22
  13  -8   3    0.75    0.24
  -8  -5   3    0.53    0.22
  -8  -5   3    0.64    0.23
  -5  13   3    0.49    0.21
 -13   9  -3    8.16    0.58
   9   4  -3    9.45    0.58
   4 -13  -3    8.59    0.54
 -13   9  -3   10.60    0.61
 -13   9  -3    8.74    0.58
   4 -13  -3    8.96    0.60
   9   4  -3    8.81    0.55
 -13   9  -3    9.32    0.57
  -9  -4   3    9.54    0.62
  -9  -4   3    7.82    0.57
  13  -9   3    9.58    0.61
  -4  13   3    9.23    0.60
  13  -9   3    8.25    0.58
  13  -9   3    9.12    0.60
  -4  13   3    8.97    0.59
  13  -9   3    9.12    0.57
  -4  13   3    8.93    0.55
  13  -9   3    8.73    0.58
  13  -9   3    8.90    0.49
  13  -9   3    7.84    0.54
   3 -13  -3    1.84    0.34
   3 -13  -3    1.61    0.30
 -13  10  -3    1.77    0.32
 -13  10  -3    1.77    0.33
  13 -10   3    2.78    0.38
  -3  13   3    3.38    0.43
  -3  13   3    3.21    0.39
  13 -10   3    3.33    0.42
 -10  -3   3    3.76    0.46
  -3  13   3    3.06    0.40
 -10  -3   3    2.63    0.40
  13 -10   3    3.39    0.42
  -3  13   3    3.60    0.43
  13 -10   3    3.31    0.43
  13 -10   3    3.21    0.32
 -13  11  -3    2.18    0.37
 -13  11  -3    2.03    0.34
   2 -13  -3    2.52    0.39
  11   2  -3    2.76    0.38
 -13  11  -3    2.26    0.36
   2 -13  -3    2.64    0.37
  11   2  -3    2.31    0.35
 -13  11  -3    2.01    0.34
  13 -11   3    2.19    0.37
  -2  13   3    2.32    0.38
 -11  -2   3    2.31    0.38
  13 -11   3    2.07    0.35
  13 -11   3    2.19    0.36
  -2  13   3    2.29    0.37
  13 -11   3    2.36    0.31
  -2  13   3    1.96    0.35
  13 -11   3    2.42    0.36
  -2  13   3    2.20    0.33
 -11  -2   3    2.32    0.38
 -13  12  -3   13.82    0.79
  12   1  -3   14.52    0.72
 -13  12  -3   15.17    0.77
   1 -13  -3   14.13    0.72
 -13  12  -3   14.80    0.75
 -13  12  -3   13.58    0.73
  13 -12   3   13.27    0.64
  -1  13   3   14.13    0.77
  13 -12   3   12.92    0.74
  13 -12   3   13.10    0.73
  13 -12   3   13.93    0.73
  13 -12   3   13.27    0.72
 -12  -1   3   13.27    0.78
  -1  13   3   13.51    0.77
 -12  -1   3   13.74    0.78
  -1  13   3   13.59    0.68
 -13  13  -3   11.38    0.66
 -13  13  -3   10.97    0.66
 -13  13  -3   10.52    0.66
 -13  13  -3    9.86    0.68
  13   0  -3    9.78    0.61
 -13   0   3    9.36    0.66
  13 -13   3    9.92    0.64
  13 -13   3   10.71    0.65
   0  13   3    9.08    0.64
  13 -13   3   10.00    0.56
   0  13   3   10.02    0.67
 -13   0   3   10.05    0.67
 -13  14  -3    1.01    0.30
 -13  14  -3    0.75    0.27
  14  -1  -3    0.63    0.25
 -13  14  -3    0.86    0.28
  13 -14   3    0.69    0.25
 -14   1   3    0.64    0.27
   1  13   3    0.86    0.29
  13 -14   3    1.07    0.24
   1  13   3    0.77    0.26
 -14   1   3    0.76    0.27
 -13  15  -3    9.75    0.65
 -13  15  -3    9.32    0.68
  15  -2  -3    8.85    0.62
 -13  15  -3   10.51    0.68
   2  13   3    8.95    0.68
 -15   2   3    8.74    0.68
  13 -15   3    9.33    0.58
   2  13   3    9.51    0.66
 -13  16  -3    6.32    0.55
 -13  16  -3    4.95    0.50
  16  -3  -3    5.13    0.49
 -13  16  -3    4.79    0.58
   3  13   3    5.39    0.52
 -16   3   3    4.83    0.59
   3  13   3    5.16    0.61
  17  -4  -3    0.80    0.29
 -13  17  -3    1.07    0.31
 -13  17  -3    1.12    0.32
   4  13   3    0.90    0.33
   4  13   3    1.20    0.34
  -2  16  -3    1.05    0.32
 -14  -2  -3    1.00    0.30
  -2  16  -3    0.80    0.28
  16 -14  -3    1.08    0.31
  14   2   3    0.76    0.29
  14   2   3    0.66    0.28
  14   2   3    0.52    0.27
  -1  15  -3    3.84    0.50
  15 -14  -3    3.60    0.48
  -1  15  -3    4.17    0.50
 -14  -1  -3    4.66    0.55
  14   1   3    4.09    0.52
  14   1   3    4.93    0.50
  14   1   3    4.17    0.54
   0  14  -3   13.78    0.79
 -14   0  -3   11.98    0.75
   0  14  -3   13.94    0.79
  14 -14  -3   12.95    0.75
  14   0   3   13.56    0.82
  14   0   3   12.53    0.66
   0 -14   3   13.25    0.76
  14   0   3   13.64    0.79
  14   0   3   12.48    0.75
   1  13  -3    0.69    0.25
   1  13  -3    0.89    0.27
 -14   1  -3    0.77    0.26
  13 -14  -3    0.73    0.26
  13 -14  -3    0.96    0.29
  14  -1   3    1.25    0.32
  14  -1   3    0.98    0.30
  14  -1   3    0.83    0.27
  -1 -13   3    1.02    0.29
  14  -1   3    0.66    0.27
  14  -1   3    0.99    0.24
 -14   2  -3    7.64    0.58
  12 -14  -3    7.70    0.56
  12 -14  -3    6.77    0.58
   2  12  -3    7.97    0.58
   2  12  -3    7.51    0.55
  14  -2   3    6.93    0.60
  14  -2   3    7.91    0.59
  14  -2   3    7.74    0.61
  -2 -12   3    7.11    0.57
  14  -2   3    7.67    0.49
  14  -2   3    7.91    0.58
 -14   3  -3   10.40    0.66
   3  11  -3   11.23    0.68
 -14   3  -3   11.66    0.63
   3  11  -3   11.48    0.66
  11 -14  -3   11.06    0.66
 -11  14   3   10.13    0.64
  14  -3   3   10.97    0.66
  14  -3   3    9.87    0.65
  14  -3   3   10.12    0.71
  14  -3   3   10.15    0.68
  14  -3   3   10.56    0.63
  14  -3   3   10.27    0.56
  -3 -11   3   10.58    0.68
 -11  14   3   11.21    0.67
  10 -14  -3    1.86    0.32
   4  10  -3    1.69    0.33
   4  10  -3    2.79    0.37
 -14   4  -3    2.62    0.36
 -14   4  -3    1.69    0.34
  10 -14  -3    1.70    0.34
  14  -4   3    1.95    0.37
 -10  14   3    2.52    0.37
  14  -4   3    2.41    0.39
  14  -4   3    2.36    0.36
 -10  14   3    2.24    0.37
  14  -4   3    2.22    0.36
  14  -4   3    2.29    0.31
  14  -4   3    1.89    0.36
  -4 -10   3    2.27    0.37
   9 -14  -3   17.64    0.82
   5   9  -3   17.23    0.84
 -14   5  -3   18.56    0.81
   9 -14  -3   18.20    0.90
 -14   5  -3   17.24    0.86
 -14   5  -3   18.04    1.09
  14  -5   3   17.80    0.92
  14  -5   3   18.31    0.87
  -5  -9   3   17.51    0.85
  -9  14   3   17.20    0.80
  -9  14   3   17.69    0.86
  14  -5   3   17.46    0.74
  14  -5   3   17.86    0.84
  14  -5   3   18.86    0.90
  14  -5   3   17.96    0.82
  -5  -9   3   18.27    0.89
 -14   6  -3    3.85    0.45
 -14   6  -3    3.67    0.42
   8 -14  -3    3.37    0.42
 -14   6  -3    3.85    0.59
   6   8  -3    3.97    0.38
   6   8  -3    3.55    0.44
 -14   6  -3    3.86    0.46
   8 -14  -3    3.75    0.47
 -14   6  -3    3.64    0.44
  -6  -8   3    4.63    0.44
  14  -6   3    4.97    0.45
  -8  14   3    5.21    0.46
  14  -6   3    4.99    0.49
  14  -6   3    4.79    0.38
  14  -6   3    5.09    0.44
  14  -6   3    4.72    0.46
  14  -6   3    5.02    0.48
  14  -6   3    4.30    0.48
  -6  -8   3    4.93    0.47
  -8  14   3    5.48    0.49
 -14   7  -3    4.07    0.42
   7 -14  -3    4.00    0.43
   7   7  -3    3.75    0.44
   7 -14  -3    3.45    0.41
   7   7  -3    4.00    0.39
 -14   7  -3    3.64    0.44
 -14   7  -3    3.59    0.44
 -14   7  -3    3.66    0.42
  14  -7   3    3.41    0.46
  14  -7   3    3.14    0.43
  14  -7   3    3.98    0.40
  14  -7   3    3.37    0.44
  -7  14   3    3.26    0.40
  14  -7   3    3.67    0.44
  14  -7   3    3.17    0.41
  14  -7   3    3.42    0.33
  -7  14   3    3.92    0.47
  -7  -7   3    3.55    0.45
  -7  14   3    3.26    0.42
  -7  -7   3    3.05    0.42
 -14   8  -3    4.17    0.43
 -14   8  -3    3.78    0.46
   8   6  -3    3.55    0.44
   8   6  -3    4.42    0.40
   6 -14  -3    3.80    0.43
 -14   8  -3    4.08    0.41
 -14   8  -3    3.14    0.42
   6 -14  -3    3.50    0.45
  14  -8   3    4.70    0.45
  14  -8   3    4.83    0.48
  14  -8   3    5.14    0.47
  14  -8   3    5.49    0.46
  -8  -6   3    4.91    0.45
  -6  14   3    5.26    0.49
  -6  14   3    4.46    0.44
  -8  -6   3    5.52    0.50
  14  -8   3    4.88    0.45
  -6  14   3    4.10    0.41
  14  -8   3    4.84    0.38
  14  -8   3    4.51    0.43
   9   5  -3   17.88    0.84
 -14   9  -3   18.77    0.84
   9   5  -3   18.59    0.81
   5 -14  -3   17.73    0.81
 -14   9  -3   17.85    0.82
   5 -14  -3   17.02    0.86
 -14   9  -3   16.40    0.83
 -14   9  -3   17.28    0.86
  -5  14   3   17.64    0.86
  14  -9   3   17.84    0.85
  14  -9   3   17.37    0.73
  14  -9   3   17.53    0.89
  -9  -5   3   17.49    0.87
  -9  -5   3   16.52    0.86
  -5  14   3   17.03    0.86
  14  -9   3   18.54    0.87
  14  -9   3   17.65    0.82
  14  -9   3   16.41    0.80
  -5  14   3   17.86    0.79
 -14  10  -3    1.86    0.33
 -14  10  -3    1.90    0.34
  10   4  -3    1.94    0.32
  10   4  -3    2.01    0.35
   4 -14  -3    1.69    0.34
 -14  10  -3    2.10    0.35
   4 -14  -3    1.87    0.33
 -14  10  -3    2.10    0.36
  14 -10   3    2.21    0.35
 -10  -4   3    2.17    0.37
 -10  -4   3    1.86    0.36
  -4  14   3    2.36    0.35
  14 -10   3    1.69    0.32
  14 -10   3    2.39    0.31
  -4  14   3    2.51    0.38
  -4  14   3    2.05    0.37
  14 -10   3    2.66    0.40
  14 -10   3    2.01    0.36
 -14  11  -3   10.94    0.66
  11   3  -3   10.17    0.64
 -14  11  -3   12.27    0.70
 -14  11  -3   11.02    0.65
  11   3  -3   12.03    0.66
 -14  11  -3   11.56    0.72
  -3  14   3   11.28    0.70
 -11  -3   3   12.39    0.74
  14 -11   3   11.28    0.66
  14 -11   3   10.88    0.58
  14 -11   3   10.96    0.68
 -11  -3   3   12.12    0.73
  14 -11   3   10.87    0.68
  14 -11   3   10.17    0.67
  -3  14   3   10.38    0.61
 -14  12  -3    7.98    0.57
  12   2  -3    7.55    0.54
  12   2  -3    7.57    0.55
 -14  12  -3    7.91    0.61
 -14  12  -3    8.39    0.58
 -14  12  -3    7.94    0.57
  -2  14   3    7.51    0.58
 -12  -2   3    7.91    0.61
  14 -12   3    8.52    0.61
  14 -12   3    8.25    0.57
  -2  14   3    7.73    0.60
 -12  -2   3    7.54    0.59
  14 -12   3    7.61    0.50
  14 -12   3    7.51    0.57
 -14  13  -3    1.11    0.30
  13   1  -3    0.90    0.27
 -14  13  -3    0.71    0.25
 -14  13  -3    0.90    0.28
 -14  13  -3    1.03    0.29
  -1  14   3    1.09    0.31
  14 -13   3    1.11    0.28
  -1  14   3    0.97    0.30
  14 -13   3    0.77    0.26
  14 -13   3    0.95    0.29
 -13  -1   3    0.86    0.28
 -13  -1   3    0.57    0.25
  14 -13   3    0.91    0.24
 -14  14  -3   14.48    0.80
  14   0  -3   13.91    0.75
 -14  14  -3   13.82    0.83
   0  14   3   11.80    0.77
 -14   0   3   12.81    0.81
  14 -14   3   14.14    0.70
   0  14   3   13.39    0.80
 -14   0   3   12.95    0.80
 -14  15  -3    4.71    0.48
 -14  15  -3    4.10    0.54
  15  -1  -3    3.93    0.48
 -15   1   3    3.82    0.53
   1  14   3    4.49    0.56
   1  14   3    4.96    0.57
 -15   1   3    4.67    0.56
 -14  16  -3    1.20    0.32
  16  -2  -3    1.01    0.30
   2  14   3    0.77    0.30
 -16   2   3    0.86    0.31
   2  14   3    0.74    0.29
  17  -3  -3    6.10    0.56
  16 -15  -3    0.61    0.26
  -1  16  -3    0.27    0.24
  -1  16  -3    0.55    0.25
  15   1   3    0.91    0.31
  15 -15  -3   15.21    0.86
 -15   0  -3   17.08    0.93
   0  15  -3   17.39    0.90
   0  15  -3   16.62    0.90
  15   0   3   17.79    0.93
  15   0   3   17.58    0.97
  14 -15  -3    4.16    0.51
   1  14  -3    4.81    0.48
 -15   1  -3    3.55    0.49
   1  14  -3    4.16    0.52
  -1 -14   3    4.31    0.53
  15  -1   3    4.39    0.56
  15  -1   3    4.13    0.52
   2  13  -3   10.48    0.68
  13 -15  -3    9.87    0.65
 -15   2  -3   10.10    0.70
   2  13  -3   10.46    0.69
  15  -2   3   10.13    0.69
  -2 -13   3    9.42    0.67
  15  -2   3    9.54    0.57
  15  -2   3    9.70    0.70
   3  12  -3    6.75    0.56
   3  12  -3    5.16    0.48
  12 -15  -3    5.48    0.54
  12 -15  -3    5.67    0.51
 -15   3  -3    5.95    0.54
  15  -3   3    7.00    0.57
  -3 -12   3    7.15    0.58
  15  -3   3    7.13    0.48
  15  -3   3    7.09    0.60
  15  -3   3    6.99    0.61
   4  11  -3   13.39    0.77
 -15   4  -3   12.58    0.76
  11 -15  -3   15.66    0.79
   4  11  -3   15.26    0.77
  11 -15  -3   13.06    0.80
  15  -4   3   13.76    0.81
  -4 -11   3   12.89    0.78
  15  -4   3   13.69    0.79
 -11  15   3   13.87    0.78
  15  -4   3   14.10    0.85
  15  -4   3   13.98    0.67
 -11  15   3   13.17    0.74
 -15   5  -3    5.09    0.49
  10 -15  -3    4.69    0.48
 -15   5  -3    4.89    0.44
  10 -15  -3    5.40    0.47
   5  10  -3    5.22    0.49
 -10  15   3    5.60    0.51
  15  -5   3    5.11    0.50
  15  -5   3    5.42    0.54
  15  -5   3    5.32    0.51
  15  -5   3    5.84    0.49
  -5 -10   3    4.78    0.47
  15  -5   3    5.07    0.41
 -10  15   3    4.97    0.49
 -15   6  -3   26.03    1.10
   9 -15  -3   25.29    1.02
 -15   6  -3   27.78    1.03
   9 -15  -3   25.00    1.11
   6   9  -3   25.90    1.09
  15  -6   3   24.59    1.09
  15  -6   3   25.51    1.17
  -9  15   3   25.81    1.02
  15  -6   3   24.50    0.93
  15  -6   3   25.72    1.08
  15  -6   3   25.79    1.03
  -6  -9   3   26.35    1.12
  15  -6   3   24.65    1.02
  -9  15   3   25.01    1.07
   8 -15  -3    6.66    0.51
 -15   7  -3    7.02    0.55
   8 -15  -3    7.06    0.57
 -15   7  -3    7.17    0.55
 -15   7  -3    7.56    0.53
   7   8  -3    7.31    0.52
   7   8  -3    6.59    0.54
  15  -7   3    6.81    0.55
  15  -7   3    8.00    0.59
  15  -7   3    8.00    0.62
  -8  15   3    8.08    0.60
  -7  -8   3    7.51    0.59
  -8  15   3    7.30    0.54
  15  -7   3    7.49    0.55
  15  -7   3    7.55    0.49
  15  -7   3    7.71    0.59
   8   7  -3    6.00    0.52
   7 -15  -3    7.36    0.59
 -15   8  -3    7.55    0.54
 -15   8  -3    7.07    0.56
 -15   8  -3    7.04    0.56
   8   7  -3    6.89    0.50
   7 -15  -3    7.26    0.53
  -7  15   3    8.21    0.61
  -8  -7   3    7.49    0.59
  15  -8   3    7.17    0.55
  -7  15   3    7.75    0.56
  15  -8   3    7.50    0.58
  15  -8   3    7.29    0.60
  15  -8   3    6.75    0.54
  15  -8   3    7.12    0.47
  -7  15   3    6.78    0.55
  15  -8   3    6.70    0.55
  -8  -7   3    6.60    0.54
 -15   9  -3   26.04    1.11
   9   6  -3   27.15    1.01
   6 -15  -3   26.53    1.04
 -15   9  -3   26.05    1.09
   9   6  -3   27.20    1.10
 -15   9  -3   26.69    1.05
   6 -15  -3   26.60    1.11
  -9  -6   3   25.05    1.09
  15  -9   3   25.27    1.14
  15  -9   3   26.44    1.09
  -9  -6   3   26.04    1.13
  -6  15   3   25.69    1.11
  15  -9   3   24.90    1.07
  -6  15   3   26.00    1.09
  15  -9   3   25.11    1.05
  -6  15   3   25.35    1.01
  15  -9   3   25.71    0.95
 -15  10  -3    5.08    0.46
 -15  10  -3    5.47    0.51
  10   5  -3    4.81    0.43
  10   5  -3    5.16    0.49
 -15  10  -3    5.33    0.49
 -10  -5   3    4.90    0.50
  -5  15   3    5.83    0.54
  15 -10   3    5.24    0.51
  15 -10   3    5.88    0.43
  15 -10   3    5.30    0.48
 -10  -5   3    5.15    0.50
  15 -10   3    5.36    0.49
  15 -10   3    5.12    0.51
 -15  11  -3   14.71    0.78
  11   4  -3   13.10    0.71
 -15  11  -3   13.90    0.78
  11   4  -3   14.13    0.78
 -15  11  -3   13.38    0.80
  -4  15   3   13.80    0.81
  15 -11   3   13.96    0.79
 -11  -4   3   14.01    0.82
 -11  -4   3   14.74    0.82
  15 -11   3   13.94    0.68
  15 -11   3   14.29    0.78
 -15  12  -3    5.88    0.54
 -15  12  -3    6.23    0.53
  12   3  -3    5.51    0.50
  12   3  -3    6.62    0.51
 -15  12  -3    6.31    0.53
 -12  -3   3    7.49    0.61
  -3  15   3    7.50    0.59
  15 -12   3    6.94    0.57
  15 -12   3    7.37    0.49
  -3  15   3    6.68    0.56
 -12  -3   3    6.44    0.56
  13   2  -3   10.45    0.65
 -15  13  -3    9.59    0.65
 -15  13  -3    9.45    0.69
 -15  13  -3    9.77    0.65
 -13  -2   3    9.64    0.70
  -2  15   3    8.86    0.66
  -2  15   3    8.68    0.65
  15 -13   3    9.12    0.66
  15 -13   3    9.45    0.57
 -13  -2   3    9.27    0.68
 -15  14  -3    4.12    0.53
 -15  14  -3    4.25    0.52
  14   1  -3    4.53    0.51
 -14  -1   3    5.04    0.52
 -14  -1   3    4.51    0.56
  15 -14   3    3.89    0.51
  -1  15   3    5.15    0.58
  -1  15   3    3.84    0.52
  15   0  -3   16.30    0.84
 -15  15  -3   15.74    0.93
 -15  15  -3   17.76    0.90
 -15   0   3   15.06    0.90
 -15   0   3   15.37    0.91
   0  15   3   16.25    0.90
   0  15   3   15.70    0.93
 -15  16  -3    0.49    0.26
  16  -1  -3    0.36    0.23
   1  15   3    1.27    0.36
   1  15   3    0.84    0.31
  15 -16  -3    0.37    0.25
   1  15  -3    0.16    0.22
   1  15  -3    0.45    0.25
  16  -1   3    0.77    0.30
  14 -16  -3    0.88    0.29
   2  14  -3    0.75    0.28
   2  14  -3    0.43    0.24
  16  -2   3    0.71    0.30
  16  -2   3    0.74    0.30
  -2 -14   3    1.04    0.30
   3  13  -3    5.91    0.54
 -16   3  -3    6.11    0.57
   3  13  -3    6.10    0.55
  13 -16  -3    5.93    0.54
  16  -3   3    6.27    0.58
  -3 -13   3    5.47    0.53
  16  -3   3    5.22    0.59
  12 -16  -3    7.48    0.58
 -16   4  -3    8.35    0.64
   4  12  -3    7.81    0.62
 -12  16   3    7.87    0.61
  16  -4   3    7.63    0.62
  16  -4   3    8.02    0.65
  -4 -12   3    8.62    0.65
  11 -16  -3    5.86    0.56
 -16   5  -3    5.41    0.52
  11 -16  -3    5.80    0.53
   5  11  -3    5.78    0.53
  16  -5   3    6.52    0.57
  -5 -11   3    5.23    0.52
 -11  16   3    6.14    0.56
  16  -5   3    5.64    0.44
 -11  16   3    5.63    0.53
  16  -5   3    5.30    0.53
 -16   6  -3    9.83    0.61
  10 -16  -3    9.74    0.63
   6  10  -3    9.86    0.69
  10 -16  -3    9.34    0.67
 -16   6  -3   10.68    0.70
  16  -6   3    9.53    0.57
  -6 -10   3    9.77    0.69
  16  -6   3   10.26    0.71
 -10  16   3   10.08    0.69
  16  -6   3   10.21    0.66
 -10  16   3    9.88    0.64
  16  -6   3    9.83    0.69
   7   9  -3   10.15    0.68
 -16   7  -3   10.17    0.68
   9 -16  -3   10.58    0.64
 -16   7  -3   10.29    0.64
  16  -7   3    9.16    0.62
  16  -7   3    8.97    0.70
  -9  16   3    9.95    0.63
  -9  16   3    8.10    0.63
  16  -7   3    9.01    0.66
  16  -7   3    9.45    0.57
  -7  -9   3    9.82    0.69
  16  -7   3    9.26    0.67
  16  -7   3    9.21    0.64
   8 -16  -3    1.25    0.30
   8   8  -3    1.01    0.29
 -16   8  -3    0.91    0.28
 -16   8  -3    1.24    0.29
 -16   8  -3    1.35    0.32
  16  -8   3    1.25    0.34
  16  -8   3    1.41    0.32
  16  -8   3    1.26    0.27
  16  -8   3    1.15    0.31
  -8  16   3    1.40    0.34
  16  -8   3    1.23    0.32
  -8  -8   3    1.31    0.33
  -8  16   3    1.16    0.29
 -16   9  -3   10.19    0.68
 -16   9  -3    9.21    0.61
 -16   9  -3   10.28    0.67
   9   7  -3   10.54    0.69
  -7  16   3    8.96    0.67
  16  -9   3    9.24    0.65
  16  -9   3    9.19    0.66
  16  -9   3    8.40    0.54
  16  -9   3    8.27    0.67
  16  -9   3    8.91    0.64
  -9  -7   3    8.60    0.66
  10   6  -3    9.94    0.67
 -16  10  -3    9.11    0.62
 -16  10  -3    9.72    0.66
  10   6  -3    9.46    0.60
 -16  10  -3    8.67    0.65
  16 -10   3    9.72    0.66
 -10  -6   3    9.42    0.69
  16 -10   3    9.65    0.68
  -6  16   3    9.05    0.68
  16 -10   3    9.91    0.71
  16 -10   3    7.91    0.61
  16 -10   3    8.85    0.55
 -16  11  -3    5.08    0.49
  11   5  -3    4.79    0.50
 -16  11  -3    4.96    0.51
 -16  11  -3    5.35    0.49
  11   5  -3    5.70    0.49
 -11  -5   3    5.35    0.52
  16 -11   3    5.57    0.45
  -5  16   3    5.25    0.59
  16 -11   3    5.00    0.57
 -11  -5   3    4.93    0.58
  12   4  -3    8.67    0.59
 -16  12  -3    8.26    0.62
  12   4  -3    8.99    0.64
 -16  12  -3    7.81    0.59
 -16  12  -3    8.25    0.66
 -12  -4   3    8.73    0.66
 -12  -4   3    9.09    0.68
  16 -12   3    8.80    0.66
  -4  16   3   10.32    0.71
  13   3  -3    5.58    0.51
  13   3  -3    4.90    0.47
 -16  13  -3    5.33    0.51
 -16  13  -3    5.66    0.56
 -13  -3   3    5.53    0.55
  -3  16   3    6.01    0.56
  16 -13   3    5.71    0.55
 -13  -3   3    5.31    0.61
  14   2  -3    0.99    0.29
 -16  14  -3    0.94    0.30
  -2  16   3    0.60    0.28
 -14  -2   3    1.32    0.34
 -14  -2   3    0.86    0.29
  -2  16   3    0.68    0.29
  16 -14   3    0.74    0.29
  15   1  -3    0.34    0.24
 -16  15  -3    0.37    0.25
  -1  16   3    1.05    0.33
  -1  16   3    1.20    0.35
  13 -17  -3    0.95    0.30
   4  13  -3    1.04    0.32
  17  -4   3    1.11    0.34
  17  -4   3    0.84    0.30
  12 -17  -3   10.44    0.68
   5  12  -3   10.99    0.75
  -5 -12   3    9.72    0.72
 -12  17   3   10.80    0.74
  17  -5   3   11.24    0.76
  17  -5   3   11.05    0.75
 -17   6  -3   16.35    0.91
  11 -17  -3   17.44    0.89
   6  11  -3   16.19    0.90
  -6 -11   3   15.92    0.91
 -11  17   3   16.59    0.91
  17  -6   3   15.48    0.89
  17  -6   3   14.90    0.88
  10 -17  -3    0.63    0.25
   7  10  -3    1.35    0.33
 -17   7  -3    0.97    0.30
 -10  17   3    0.64    0.27
  17  -7   3    1.08    0.33
 -10  17   3    1.11    0.32
  17  -7   3    1.47    0.36
  -7 -10   3    0.63    0.27
 -17   8  -3    2.28    0.40
 -17   8  -3    2.60    0.43
 -17   8  -3    2.78    0.41
   8   9  -3    2.03    0.39
  -9  17   3    3.51    0.50
  17  -8   3    3.85    0.51
  17  -8   3    3.54    0.47
  -8  -9   3    4.23    0.55
  17  -8   3    3.52    0.50
 -17   9  -3    2.95    0.45
 -17   9  -3    2.72    0.42
 -17   9  -3    2.78    0.45
   9   8  -3    2.55    0.44
  -9  -8   3    3.55    0.50
  17  -9   3    3.28    0.47
  17  -9   3    3.49    0.48
  17  -9   3    3.12    0.48
  -8  17   3    3.16    0.48
 -17  10  -3    1.07    0.30
 -17  10  -3    1.07    0.30
 -17  10  -3    1.01    0.31
  10   7  -3    1.64    0.36
 -10  -7   3    1.39    0.34
  17 -10   3    1.30    0.35
  17 -10   3    1.38    0.36
  -7  17   3    0.85    0.31
  11   6  -3   17.80    0.94
 -17  11  -3   17.41    0.87
 -17  11  -3   16.96    0.90
 -17  11  -3   18.43    0.97
  17 -11   3   17.40    0.90
  -6  17   3   17.80    0.97
  17 -11   3   16.61    0.91
 -11  -6   3   15.83    0.94
  12   5  -3   10.77    0.72
 -17  12  -3    9.88    0.68
 -17  12  -3   10.72    0.72
 -17  12  -3   11.11    0.76
  17 -12   3   10.18    0.72
  -5  17   3   10.37    0.75
  13   4  -3    1.01    0.31
 -17  13  -3    1.04    0.31
  13   4  -3    0.76    0.28
  17 -13   3    0.91    0.33
  -4  17   3    0.70    0.30
  14   3  -3    5.91    0.53
  17 -14   3    6.99    0.63
  18  -8   3    4.03    0.51
 -10  18   3    5.11    0.61
  18  -8   3    4.35    0.56
  18  -8   3    3.90    0.54
  18  -9   3   11.61    0.79
  18  -9   3   11.05    0.75
  -9  18   3   11.52    0.80
 -18  10  -3    3.37    0.46
  18 -10   3    3.37    0.51
  -8  18   3    3.70    0.53
  18 -10   3    3.03    0.48
  18 -11   3    3.66    0.53
   0   0  -4  264.65    5.14
   0   0  -4  266.94    5.23
   0   0  -4  265.70    5.40
   0   0  -4  273.26    6.63
   0   0   4  252.41    7.28
   0   0   4  248.09    5.18
   0   0   4  254.23    5.16
   0   0   4  252.77    5.05
   0   0   4  257.00    5.38
   0   0   4  254.89    4.98
   0   0   4  251.51    5.33
   0   0   4  256.78    5.23
   1  -1  -4   12.44    0.64
   0   1  -4   12.69    0.51
   0   1  -4   11.93    0.64
  -1   0  -4   11.53    0.50
   0   1  -4   11.90    0.46
  -1   0  -4   12.12    0.52
   0   1  -4   11.80    0.50
  -1   0  -4   12.25    0.68
   1  -1  -4   12.99    0.49
   0   1  -4   12.49    0.52
   1  -1  -4   11.87    0.53
  -1   1   4   12.28    0.52
   1   0   4   12.82    0.52
  -1   1   4   12.52    0.49
   1   0   4   12.28    0.52
  -1   1   4   12.65    0.49
   1   0   4   12.98    0.52
  -1   1   4   12.36    0.49
   0  -1   4   12.49    0.54
   0  -1   4   12.88    0.51
   1   0   4   12.56    0.50
   1   0   4   13.78    0.56
   1   0   4   12.72    0.74
   0  -1   4   13.27    0.54
  -1   1   4   12.94    0.50
   1   0   4   12.32    0.51
   0  -1   4   12.96    0.74
   0  -1   4   12.68    0.51
  -1   1   4   11.59    0.48
   0  -1   4   12.52    0.48
  -1   1   4   12.94    0.55
  -1   1   4   12.67    0.69
   0  -1   4   12.66    0.52
   0  -1  -4   11.36    0.48
  -1   1  -4   11.39    0.64
   1   0  -4   10.94    0.46
  -1   1  -4   10.93    0.50
   1   0  -4   11.09    0.49
   0  -1  -4   10.80    0.52
  -1   1  -4   11.02    0.46
   1   0  -4   11.30    0.59
   1   0  -4   11.49    0.48
  -1   1  -4   11.38    0.51
   0  -1  -4   10.99    0.62
  -1   1  -4   10.93    0.49
   0   1   4   11.70    0.48
   1  -1   4   11.64    0.51
  -1   0   4   11.51    0.51
   0   1   4   11.98    0.48
   1  -1   4   11.60    0.46
  -1   0   4   12.05    0.51
   1  -1   4   11.18    0.70
   1  -1   4   11.76    0.51
  -1   0   4   11.99    0.48
  -1   0   4   12.13    0.47
  -1   0   4   11.74    0.49
   1  -1   4   12.03    0.50
  -1   0   4   11.59    0.45
  -1   0   4   11.80    0.47
   1  -1   4   11.92    0.51
   0   1   4   11.78    0.48
   0   1   4   11.39    0.52
   0   1   4   11.80    0.49
   0   1   4   11.63    0.68
   1  -1   4   12.08    0.49
   0   1   4   11.40    0.48
   0   1   4   11.81    0.50
  -1   0   4   12.03    0.68
   2  -1  -4    3.89    0.30
  -1  -1  -4    3.74    0.38
  -1   2  -4    3.34    0.26
  -1   2  -4    3.90    0.32
  -1   2  -4    3.74    0.30
  -1   2  -4    3.40    0.27
   2  -1  -4    3.86    0.33
  -1   2  -4    3.41    0.29
   2  -1  -4    3.70    0.26
  -1  -1  -4    3.49    0.26
   2  -1  -4    3.66    0.27
  -2   1   4    3.78    0.37
  -2   1   4    3.99    0.28
   1  -2   4    3.53    0.40
   1  -2   4    3.84    0.30
   1  -2   4    4.09    0.29
  -2   1   4    3.58    0.26
   1   1   4    3.79    0.29
   1   1   4    4.14    0.41
  -2   1   4    3.78    0.29
   1  -2   4    3.79    0.27
   1   1   4    3.89    0.28
   1  -2   4    3.64    0.30
   1   1   4    3.94    0.30
   1   1   4    3.80    0.27
   1  -2   4    3.66    0.30
   1   1   4    3.66    0.29
  -2   1   4    3.63    0.29
  -2   1   4    3.95    0.27
   1   1   4    3.76    0.32
  -1   3  -4   13.15    0.49
  -1   3  -4   12.81    0.54
   3  -2  -4   12.92    0.52
  -1   3  -4   13.28    0.60
  -1   3  -4   12.62    0.56
  -2  -1  -4   12.97    0.73
  -2  -1  -4   13.68    0.53
   3  -2  -4   13.16    0.57
   1  -3   4   13.63    0.59
   1  -3   4   13.80    0.52
   2   1   4   14.02    0.61
  -3   2   4   13.72    0.57
   1  -3   4   14.53    0.59
   2   1   4   12.58    0.53
  -3   2   4   13.14    0.52
  -3   2   4   13.35    0.56
   2   1   4   13.46    0.57
   2   1   4   13.85    0.56
   2   1   4   13.82    0.53
   1  -3   4   13.89    0.81
   2   1   4   12.99    0.56
   1  -3   4   13.59    0.56
   2   1   4   13.67    0.78
   0   2  -4   21.42    0.73
  -2   0  -4   20.19    0.97
  -2   0  -4   20.89    0.72
   0   2  -4   20.53    0.74
  -2   0  -4   21.52    0.74
   2  -2  -4   21.28    0.88
   0   2  -4   20.41    0.66
   2  -2  -4   21.39    0.73
   2  -2  -4   21.12    0.78
   2   0   4   24.35    1.10
  -2   2   4   24.57    0.73
  -2   2   4   23.00    0.72
   0  -2   4   23.50    0.77
   2   0   4   23.09    0.78
   0  -2   4   24.32    0.82
  -2   2   4   23.61    0.75
  -2   2   4   23.01    0.79
   0  -2   4   23.87    1.10
   2   0   4   24.04    0.76
   0  -2   4   24.98    0.80
   2   0   4   24.05    0.81
   0  -2   4   23.80    0.75
   0  -2   4   23.89    0.70
   2   0   4   24.16    0.74
   2   0   4   25.33    0.78
   2   0   4   25.47    0.79
  -2   1  -4    3.96    0.29
  -2   1  -4    3.39    0.29
   1  -2  -4    3.84    0.32
  -2   1  -4    3.54    0.28
   1   1  -4    3.83    0.34
   1   1  -4    3.57    0.27
   1  -2  -4    3.65    0.35
   1   1  -4    3.50    0.28
  -2   1  -4    3.73    0.39
   1   1  -4    3.92    0.28
  -1  -1   4    3.90    0.29
   2  -1   4    3.80    0.30
   2  -1   4    3.82    0.31
  -1  -1   4    4.15    0.31
  -1  -1   4    3.86    0.31
   2  -1   4    3.62    0.31
   2  -1   4    3.88    0.42
  -1  -1   4    3.82    0.27
  -1   2   4    3.67    0.28
  -1  -1   4    3.73    0.40
   2  -1   4    4.19    0.30
  -1  -1   4    3.94    0.27
  -1   2   4    4.07    0.28
  -1   2   4    4.11    0.38
  -1   2   4    3.96    0.32
  -1   2   4    3.67    0.29
   2  -1   4    4.25    0.32
  -1   2   4    3.62    0.29
   2  -1   4    3.56    0.29
  -2   2  -4   20.61    0.70
   2   0  -4   21.15    0.68
   2   0  -4   20.78    0.74
   0  -2  -4   21.50    0.96
   2   0  -4   21.68    1.01
   0  -2  -4   21.40    0.81
  -2   2  -4   21.27    0.77
  -2   2  -4   21.43    0.77
   2   0  -4   21.71    0.71
   2  -2   4   24.75    0.77
   2  -2   4   24.34    0.76
   2  -2   4   24.60    0.71
   0   2   4   25.27    1.05
   0   2   4   24.37    0.76
   2  -2   4   24.50    0.80
   0   2   4   24.59    0.76
   2  -2   4   24.15    1.14
   2  -2   4   24.20    0.79
   0   2   4   24.85    0.84
  -2   0   4   23.76    0.69
  -2   0   4   24.59    0.81
   0   2   4   24.43    0.77
  -2   0   4   24.72    0.77
  -2   0   4   24.98    0.75
   0   2   4   24.98    0.73
  -2   0   4   25.30    0.77
   2  -2   4   23.95    0.80
  -1  -2  -4   13.47    0.73
  -2   3  -4   13.69    0.59
   3  -1  -4   12.97    0.51
  -2   3  -4   13.47    0.52
   3  -1  -4   12.84    0.55
  -2   3  -4   13.45    0.58
  -2   3  -4   12.92    0.56
   3  -1  -4   13.22    0.69
   1   2   4   12.96    0.55
  -3   1   4   13.26    0.52
   1   2   4   14.12    0.53
   2  -3   4   14.08    0.54
   2  -3   4   13.82    0.57
  -3   1   4   13.71    0.58
   1   2   4   13.43    0.51
   2  -3   4   13.57    0.58
   2  -3   4   13.58    0.58
   1   2   4   13.44    0.61
   2  -3   4   13.32    0.81
   1   2   4   13.77    0.75
   1   2   4   13.57    0.56
  -3   1   4   13.02    0.50
  -3   1   4   13.69    0.56
   1   2   4   12.92    0.56
  -2   4  -4    1.06    0.21
  -2  -2  -4    1.06    0.25
  -2   4  -4    1.18    0.22
   4  -2  -4    1.15    0.21
  -2  -2  -4    1.37    0.20
  -2   4  -4    1.31    0.22
   4  -2  -4    1.04    0.19
   4  -2  -4    1.10    0.19
  -2   4  -4    1.04    0.18
   2   2   4    1.49    0.22
   2   2   4    1.46    0.25
   2   2   4    1.56    0.32
   2   2   4    1.15    0.22
   2  -4   4    1.46    0.32
  -4   2   4    1.23    0.21
  -4   2   4    1.25    0.21
   2   2   4    1.50    0.24
   2   2   4    1.51    0.23
  -4   2   4    1.26    0.20
   2  -4   4    1.39    0.24
   2  -4   4    1.15    0.21
   2  -4   4    1.44    0.21
   2  -4   4    1.38    0.23
   2   2   4    1.30    0.19
   5  -3  -4   38.77    1.06
   5  -3  -4   38.40    1.03
  -2   5  -4   40.77    1.16
  -3  -2  -4   38.74    1.49
  -3  -2  -4   40.91    1.08
  -2   5  -4   38.88    1.13
  -2   5  -4   39.77    1.21
   5  -3  -4   40.11    1.17
   3   2   4   39.56    1.12
   3   2   4   37.40    1.57
   3   2   4   38.02    1.06
   2  -5   4   37.96    1.17
   2  -5   4   38.27    1.13
  -5   3   4   38.33    1.15
   3   2   4   37.76    1.16
   2  -5   4   38.85    1.05
   2  -5   4   36.18    1.61
  -5   3   4   38.38    1.15
   3   2   4   38.37    1.14
   2  -5   4   36.73    1.14
   3   2   4   38.47    1.11
  -5   3   4   37.72    1.05
   3   2   4   37.70    1.20
  -1   4  -4   18.32    0.72
  -3  -1  -4   17.98    0.89
  -1   4  -4   18.16    0.67
   4  -3  -4   18.67    0.65
   4  -3  -4   17.27    0.69
  -1   4  -4   18.19    0.66
   4  -3  -4   17.70    0.60
  -1   4  -4   18.41    0.59
  -3  -1  -4   17.92    0.64
   3   1   4   17.39    0.64
   3   1   4   17.41    0.94
  -4   3   4   16.52    0.61
   3   1   4   16.73    0.65
   1  -4   4   16.01    0.67
   1  -4   4   16.88    0.59
   1  -4   4   16.72    0.68
   3   1   4   16.31    0.69
  -4   3   4   16.47    0.65
   3   1   4   15.93    0.66
   1  -4   4   17.04    0.65
   3   1   4   16.58    0.67
   1  -4   4   16.13    0.94
  -4   3   4   15.98    0.67
   3   1   4   16.18    0.65
   0   3  -4   49.21    1.89
   3  -3  -4   49.78    1.41
   0   3  -4   51.52    1.44
   0   3  -4   50.76    1.34
   3  -3  -4   50.35    1.30
   3  -3  -4   49.60    1.20
  -3   0  -4   50.49    1.32
  -3   0  -4   49.74    1.76
   0   3  -4   51.58    1.32
  -3   3   4   52.60    1.35
   3   0   4   51.18    1.93
   3   0   4   53.17    1.34
  -3   3   4   51.31    1.29
   3   0   4   51.40    1.35
   0  -3   4   51.06    1.41
   0  -3   4   50.82    1.35
   0  -3   4   50.77    1.38
   3   0   4   51.06    1.41
   3   0   4   52.17    1.39
   3   0   4   51.13    1.29
  -3   3   4   51.54    1.26
   3   0   4   49.88    1.34
  -3   3   4   51.57    1.41
   0  -3   4   50.29    1.91
   0  -3   4   51.58    1.32
  -3   1  -4   13.10    0.54
   2  -3  -4   13.17    0.66
   1   2  -4   12.85    0.54
   1   2  -4   12.90    0.52
  -3   1  -4   13.24    0.75
   2  -3  -4   12.35    0.54
   2  -3  -4   12.87    0.59
  -3   1  -4   13.59    0.57
   1   2  -4   13.53    0.77
  -3   1  -4   13.06    0.53
   3  -1   4   13.63    0.81
   3  -1   4   13.43    0.57
   3  -1   4   13.98    0.58
   3  -1   4   13.59    0.56
  -2   3   4   14.31    0.54
  -1  -2   4   13.60    0.60
   3  -1   4   13.52    0.53
  -1  -2   4   12.94    0.56
   3  -1   4   12.78    0.55
  -2   3   4   13.78    0.60
  -2   3   4   13.77    0.55
  -1  -2   4   13.60    0.56
   3  -1   4   12.65    0.56
  -1  -2   4   13.95    0.53
  -3   2  -4   13.21    0.58
   1  -3  -4   13.41    0.62
  -3   2  -4   13.37    0.56
  -3   2  -4   12.65    0.53
   1  -3  -4   12.51    0.67
   2   1  -4   12.90    0.73
   2   1  -4   13.89    0.54
  -3   2  -4   13.31    0.57
  -2  -1   4   13.37    0.59
  -1   3   4   13.23    0.52
   3  -2   4   14.14    0.59
  -1   3   4   13.48    0.56
   3  -2   4   13.80    0.59
   3  -2   4   13.65    0.83
  -1   3   4   13.86    0.56
  -2  -1   4   13.83    0.54
   3  -2   4   14.08    0.57
   3  -2   4   13.78    0.58
  -1   3   4   14.02    0.61
   3  -2   4   14.06    0.57
  -2  -1   4   13.35    0.56
   3  -2   4   13.41    0.51
   3   0  -4   50.47    1.32
   3   0  -4   50.30    1.25
   3   0  -4   51.57    1.78
  -3   3  -4   49.50    1.37
  -3   3  -4   50.10    1.37
  -3   3  -4   49.23    1.27
   0  -3  -4   48.32    1.69
   0  -3  -4   51.44    1.45
  -3   3  -4   48.77    1.36
   3  -3   4   50.20    1.36
  -3   0   4   50.18    1.30
   3  -3   4   51.41    1.32
   0   3   4   48.32    1.30
   0   3   4   52.01    1.33
   3  -3   4   50.13    1.36
  -3   0   4   51.72    1.32
   3  -3   4   48.28    1.34
  -3   0   4   52.22    1.27
   0   3   4   50.82    1.42
  -3   0   4   49.88    1.39
   3  -3   4   49.83    1.30
   0   3   4   50.84    1.30
   3  -3   4   49.59    1.93
  -3   4  -4   17.54    0.70
  -3   4  -4   17.53    0.68
   4  -1  -4   18.90    0.61
  -1  -3  -4   17.20    0.86
   4  -1  -4   18.36    0.66
  -3   4  -4   18.59    0.63
  -3   4  -4   18.02    0.69
  -4   1   4   17.35    0.64
   1   3   4   17.43    0.66
   3  -4   4   16.01    0.68
   3  -4   4   17.04    0.67
   3  -4   4   16.48    0.68
   1   3   4   16.82    0.87
  -4   1   4   16.76    0.62
   3  -4   4   16.85    0.96
   1   3   4   16.50    0.66
  -4   1   4   15.76    0.67
   3  -4   4   17.25    0.63
   1   3   4   17.51    0.67
  -4   1   4   17.69    0.60
   1   3   4   17.19    0.72
  -3   5  -4   40.32    1.16
   5  -2  -4   39.87    1.15
   5  -2  -4   40.23    1.05
   5  -2  -4   39.65    1.06
  -3   5  -4   39.19    1.19
  -2  -3  -4   40.69    1.49
  -3   5  -4   38.48    1.15
   3  -5   4   38.23    1.17
   3  -5   4   37.02    1.15
   2   3   4   38.08    1.14
   2   3   4   37.54    1.13
   3  -5   4   37.12    1.06
   3  -5   4   36.43    1.61
  -5   2   4   37.70    1.12
   2   3   4   37.49    1.10
  -5   2   4   36.48    1.02
   2   3   4   37.46    1.20
  -5   2   4   36.80    1.15
   2   3   4   38.68    1.55
   3  -5   4   36.54    1.13
   2   3   4   37.49    1.07
  -3   6  -4   30.96    1.08
   6  -3  -4   30.06    0.93
   6  -3  -4   30.95    1.04
  -3   6  -4   29.03    1.01
   6  -3  -4   29.55    0.94
  -3   6  -4   29.77    1.03
  -3  -3  -4   29.83    1.32
  -3   6  -4   29.72    0.92
   3   3   4   34.44    1.07
   3  -6   4   34.81    1.53
   3   3   4   33.88    1.03
   3   3   4   35.09    1.46
  -6   3   4   34.53    0.97
   3   3   4   33.73    1.06
   3   3   4   34.53    1.01
   3   3   4   33.13    1.11
   3  -6   4   35.27    1.09
   3  -6   4   33.41    1.05
   3  -6   4   34.18    1.07
   3  -6   4   36.12    1.00
  -6   3   4   34.44    1.07
  -3   7  -4    7.11    0.48
  -3   7  -4    6.70    0.45
  -3   7  -4    7.39    0.48
  -3   7  -4    5.89    0.59
   7  -4  -4    7.35    0.43
   7  -4  -4    5.63    0.42
  -4  -3  -4    6.24    0.56
  -3   7  -4    6.69    0.39
   7  -4  -4    6.18    0.39
   4   3   4    8.36    0.66
   3  -7   4    8.54    0.70
   3  -7   4    8.03    0.49
   4   3   4    8.80    0.49
  -7   4   4    7.97    0.48
   4   3   4    8.00    0.47
  -7   4   4    8.37    0.46
   3  -7   4    8.25    0.49
   4   3   4    8.28    0.30
   4   3   4    8.61    0.50
   4   3   4    7.57    0.50
   3  -7   4    8.61    0.48
   4   3   4    8.66    0.50
  -2   6  -4   26.18    0.90
   6  -4  -4   27.76    0.83
   6  -4  -4   26.97    0.95
  -4  -2  -4   28.33    0.86
  -2   6  -4   27.40    0.92
  -4  -2  -4   26.42    1.20
   6  -4  -4   27.56    0.87
  -2   6  -4   28.25    1.34
  -2   6  -4   26.56    0.96
  -6   4   4   26.11    0.85
   4   2   4   26.09    0.92
   4   2   4   26.32    1.28
   2  -6   4   26.43    1.32
   4   2   4   26.78    0.90
   2  -6   4   26.60    0.90
   2  -6   4   26.20    0.94
  -6   4   4   27.49    0.94
   4   2   4   27.55    0.95
  -6   4   4   26.99    0.91
   4   2   4   26.31    0.98
   4   2   4   26.33    0.89
   2  -6   4   25.78    0.92
   5  -4  -4    6.68    0.43
  -4  -1  -4    6.47    0.54
  -1   5  -4    6.16    0.41
  -4  -1  -4    6.21    0.38
  -1   5  -4    5.97    0.55
  -1   5  -4    6.08    0.42
   5  -4  -4    6.60    0.40
  -1   5  -4    6.03    0.39
   5  -4  -4    6.55    0.36
   1  -5   4    6.20    0.42
   1  -5   4    6.48    0.43
   4   1   4    6.58    0.44
   4   1   4    5.38    0.39
  -5   4   4    5.76    0.38
   4   1   4    6.16    0.42
   1  -5   4    6.72    0.58
   4   1   4    6.44    0.41
   4   1   4    6.23    0.38
   4   1   4    5.85    0.40
  -5   4   4    6.22    0.42
   4   1   4    6.30    0.57
  -5   4   4    6.44    0.39
   1  -5   4    6.33    0.39
   0   4  -4   50.99    1.90
   4  -4  -4   51.64    1.31
  -4   0  -4   51.48    1.33
   0   4  -4   51.59    1.34
   4  -4  -4   51.52    1.20
   0   4  -4   52.92    1.33
   0   4  -4   51.09    1.44
   4  -4  -4   50.77    1.42
  -4   0  -4   51.19    1.79
  -4   4   4   48.19    1.39
   4   0   4   47.56    1.33
   0  -4   4   48.10    1.34
   4   0   4   47.58    1.29
   4   0   4   46.17    1.89
   0  -4   4   49.36    1.30
   4   0   4   47.70    1.31
   0  -4   4   47.70    1.37
  -4   4   4   48.77    1.31
  -4   4   4   47.80    1.28
   4   0   4   49.78    1.35
   4   0   4   47.39    1.37
   4   0   4   49.21    1.42
   3  -4  -4   18.08    0.66
   3  -4  -4   18.02    0.78
   1   3  -4   18.57    0.94
  -4   1  -4   17.77    0.66
   1   3  -4   18.40    0.67
   1   3  -4   18.00    0.63
  -4   1  -4   18.23    0.64
   3  -4  -4   18.03    0.72
  -4   1  -4   17.92    0.91
  -4   1  -4   17.43    0.66
  -1  -3   4   17.27    0.62
   4  -1   4   16.92    0.66
  -1  -3   4   17.47    0.69
  -3   4   4   16.82    0.65
  -1  -3   4   16.71    0.71
  -3   4   4   17.07    0.62
  -3   4   4   16.77    0.70
   4  -1   4   16.92    0.96
   4  -1   4   16.51    0.67
   4  -1   4   17.85    0.71
   4  -1   4   17.31    0.67
   4  -1   4   17.01    0.68
   4  -1   4   16.95    0.64
  -1  -3   4   16.59    0.65
   2  -4  -4    1.07    0.24
   2   2  -4    1.32    0.28
   2  -4  -4    1.15    0.22
   2  -4  -4    1.01    0.21
  -4   2  -4    0.98    0.21
  -4   2  -4    1.19    0.20
  -4   2  -4    1.13    0.20
   2   2  -4    0.73    0.17
   4  -2   4    1.73    0.25
  -2   4   4    1.00    0.20
   4  -2   4    1.48    0.22
  -2   4   4    1.19    0.23
  -2  -2   4    1.11    0.23
   4  -2   4    1.25    0.31
   4  -2   4    1.08    0.22
   4  -2   4    1.52    0.25
   4  -2   4    1.45    0.23
  -2  -2   4    1.50    0.22
  -2   4   4    1.34    0.22
  -2  -2   4    1.42    0.23
   4  -2   4    1.44    0.23
  -4   3  -4   18.21    0.71
   3   1  -4   17.99    0.89
  -4   3  -4   19.10    0.70
   3   1  -4   19.07    0.64
   1  -4  -4   17.26    0.74
  -4   3  -4   18.86    0.66
   1  -4  -4   18.29    0.85
  -4   3  -4   18.31    0.70
   4  -3   4   16.95    0.97
  -1   4   4   17.57    0.67
  -3  -1   4   18.30    0.72
  -1   4   4   16.40    0.71
   4  -3   4   17.03    0.66
   4  -3   4   17.00    0.61
   4  -3   4   17.22    0.69
   4  -3   4   17.27    0.66
   4  -3   4   16.75    0.69
  -1   4   4   18.08    0.67
  -1   4   4   17.23    0.63
   4  -3   4   16.65    0.68
  -3  -1   4   17.11    0.62
  -3  -1   4   16.58    0.66
   0  -4  -4   51.43    1.75
  -4   4  -4   52.60    1.31
   0  -4  -4   52.08    1.49
  -4   4  -4   52.57    1.41
   4   0  -4   52.15    1.27
   4   0  -4   54.83    1.82
  -4   4  -4   52.34    1.41
  -4   4  -4   53.84    1.43
   4  -4   4   49.10    1.39
  -4   0   4   48.26    1.32
   0   4   4   49.85    1.34
   0   4   4   49.03    1.34
   4  -4   4   49.77    1.32
   4  -4   4   50.13    1.99
   4  -4   4   48.85    1.38
   4  -4   4   48.70    1.38
  -4   0   4   48.98    1.42
  -4   0   4   49.77    1.27
   0   4   4   48.53    1.32
   0   4   4   49.42    1.44
  -4   5  -4    6.35    0.41
  -4   5  -4    6.31    0.42
   5  -1  -4    6.35    0.38
  -1  -4  -4    5.75    0.50
  -4   5  -4    6.02    0.37
  -4   5  -4    6.37    0.41
   5  -1  -4    6.09    0.38
  -4   5  -4    6.11    0.42
   4  -5   4    6.51    0.59
   4  -5   4    5.81    0.37
  -5   1   4    6.35    0.38
   1   4   4    6.20    0.40
  -5   1   4    5.59    0.40
   4  -5   4    5.82    0.41
   4  -5   4    6.14    0.41
   1   4   4    6.28    0.40
   1   4   4    6.20    0.41
   1   4   4    5.76    0.42
   4  -5   4    6.48    0.42
  -4   6  -4   26.54    0.92
  -4   6  -4   26.65    0.92
   6  -2  -4   26.53    0.82
   6  -2  -4   27.20    0.90
  -4   6  -4   26.86    0.84
   6  -2  -4   27.14    0.85
  -4   6  -4   26.14    0.94
  -2  -4  -4   24.39    1.14
   4  -6   4   26.88    1.32
   2   4   4   25.89    0.91
   2   4   4   25.45    0.96
   4  -6   4   25.73    0.92
   2   4   4   26.75    1.21
  -6   2   4   25.19    0.81
   2   4   4   25.61    0.90
   4  -6   4   26.58    0.91
   2   4   4   24.07    0.86
   4  -6   4   25.95    0.92
   4  -6   4   26.22    0.85
  -6   2   4   24.98    0.92
   7  -3  -4    6.99    0.41
  -4   7  -4    6.25    0.45
  -3  -4  -4    6.90    0.59
   7  -3  -4    6.52    0.44
  -4   7  -4    6.67    0.40
  -4   7  -4    6.82    0.48
  -4   7  -4    6.30    0.44
   7  -3  -4    6.45    0.40
   3   4   4    8.86    0.31
  -7   3   4    8.39    0.50
   3   4   4    8.95    0.53
   3   4   4    8.86    0.49
   4  -7   4    8.24    0.70
   4  -7   4    8.28    0.49
   3   4   4    7.92    0.45
   3   4   4    9.13    0.51
   3   4   4    8.97    0.51
   4  -7   4    7.60    0.48
   4  -7   4    9.05    0.52
  -7   3   4    8.84    0.46
   4  -7   4    8.76    0.46
   3   4   4    8.17    0.65
  -4   8  -4   56.24    1.65
  -4   8  -4   57.97    1.60
   8  -4  -4   56.68    1.47
  -4  -4  -4   56.19    2.06
   8  -4  -4   55.86    1.60
  -4   8  -4   55.82    1.46
   8  -4  -4   56.27    1.46
  -4   8  -4   56.71    2.26
  -4   8  -4   54.74    1.57
   4   4   4   57.21    1.62
   4   4   4   58.46    1.55
  -8   4   4   57.63    1.63
   4   4   4   58.77    2.22
   4  -8   4   56.56    1.62
   4  -8   4   57.07    1.61
   4   4   4   55.42    1.53
   4  -8   4   57.11    2.28
   4   4   4   55.55    1.67
   4  -8   4   56.16    1.59
   4   4   4   56.75    1.58
   4   4   4   58.00    1.31
  -8   4   4   58.01    1.49
   9  -5  -4   19.12    0.74
  -4   9  -4   18.88    1.14
   9  -5  -4   19.57    0.77
  -4   9  -4   19.98    0.83
  -4   9  -4   16.97    0.82
   9  -5  -4   19.40    0.84
  -4   9  -4   19.81    0.82
  -5  -4  -4   19.12    1.07
   4  -9   4   21.19    0.84
   5   4   4   21.06    0.82
   4  -9   4   20.32    0.85
   5   4   4   20.99    0.64
   5   4   4   21.35    0.83
   5   4   4   21.37    1.20
  -9   5   4   21.16    0.79
   5   4   4   20.78    0.85
   4  -9   4   19.94    0.85
  -9   5   4   19.89    0.85
   5   4   4   20.83    0.87
   5   4   4   20.31    0.88
   8  -5  -4   21.27    0.75
  -3   8  -4   20.92    0.82
  -3   8  -4   19.90    0.85
   8  -5  -4   19.58    0.83
  -5  -3  -4   20.37    1.07
  -3   8  -4   21.18    0.82
  -3   8  -4   20.50    1.15
   3  -8   4   20.06    0.80
   5   3   4   20.20    0.84
   5   3   4   20.70    0.81
   3  -8   4   19.80    0.83
   3  -8   4   20.34    0.83
   5   3   4   20.47    0.87
   5   3   4   20.17    0.82
   5   3   4   20.60    1.16
   5   3   4   20.30    0.80
   5   3   4   20.67    0.61
  -8   5   4   20.55    0.83
  -8   5   4   20.31    0.77
   7  -5  -4    5.00    0.41
  -5  -2  -4    4.90    0.36
  -2   7  -4    4.57    0.39
   7  -5  -4    5.25    0.35
  -5  -2  -4    5.05    0.50
  -2   7  -4    4.98    0.39
   7  -5  -4    5.32    0.38
  -2   7  -4    5.62    0.40
  -2   7  -4    5.06    0.54
   5   2   4    5.37    0.42
   2  -7   4    5.09    0.41
   5   2   4    4.89    0.39
   2  -7   4    5.40    0.39
   5   2   4    5.61    0.57
  -7   5   4    5.53    0.41
   2  -7   4    5.06    0.40
  -7   5   4    4.95    0.38
   5   2   4    5.34    0.41
   5   2   4    5.69    0.42
   5   2   4    5.18    0.25
   5   2   4    5.74    0.45
   6  -5  -4   19.12    0.65
  -1   6  -4   20.04    0.81
  -1   6  -4   18.88    1.04
  -5  -1  -4   17.29    0.96
  -5  -1  -4   19.21    0.71
  -1   6  -4   18.55    0.74
   6  -5  -4   18.78    0.78
   6  -5  -4   19.09    0.72
  -1   6  -4   20.00    0.74
   5   1   4   19.09    0.75
  -6   5   4   18.31    0.76
   1  -6   4   18.59    0.77
   5   1   4   17.85    0.76
   1  -6   4   18.60    0.75
   5   1   4   18.82    0.74
   5   1   4   18.74    1.07
   5   1   4   19.55    0.81
   5   1   4   18.85    0.49
   5   1   4   18.13    0.74
  -6   5   4   18.38    0.71
   1  -6   4   17.76    0.71
  -6   5   4   18.37    0.70
   0   5  -4   10.78    0.58
  -5   0  -4   10.39    0.70
   0   5  -4   10.67    0.51
   0   5  -4   10.01    0.72
  -5   0  -4   11.08    0.53
   5  -5  -4   11.53    0.54
   0   5  -4   10.94    0.54
   5  -5  -4   11.06    0.58
  -5   5   4   10.63    0.52
  -5   5   4   10.74    0.56
   0  -5   4   11.00    0.55
   5   0   4   10.98    0.57
   0  -5   4   10.26    0.54
   5   0   4   10.76    0.52
   0  -5   4   11.37    0.53
   5   0   4   11.35    0.54
   5   0   4   11.16    0.79
  -5   5   4   10.80    0.50
   5   0   4   10.92    0.55
   5   0   4   11.17    0.57
   5   0   4   11.29    0.57
   4  -5  -4    5.75    0.42
   1   4  -4    6.13    0.40
  -5   1  -4    5.93    0.39
   1   4  -4    6.18    0.54
   4  -5  -4    6.23    0.40
   1   4  -4    6.74    0.39
  -5   1  -4    6.23    0.54
  -5   1  -4    6.29    0.40
   5  -1   4    6.13    0.42
   5  -1   4    6.09    0.40
  -1  -4   4    6.45    0.43
  -1  -4   4    6.70    0.38
   5  -1   4    6.43    0.58
  -4   5   4    6.41    0.38
   5  -1   4    6.19    0.39
  -4   5   4    6.28    0.43
  -1  -4   4    6.26    0.41
   5  -1   4    6.85    0.44
  -4   5   4    5.95    0.39
  -1  -4   4    6.12    0.41
   5  -1   4    6.63    0.43
   5  -1   4    6.84    0.43
  -5   2  -4   39.40    1.11
  -5   2  -4   40.59    1.11
   2   3  -4   40.35    1.06
   3  -5  -4   39.15    1.13
   2   3  -4   39.35    1.57
   2   3  -4   40.10    1.11
   3  -5  -4   39.74    1.38
  -5   2  -4   37.54    1.50
   3  -5  -4   40.71    1.24
  -5   2  -4   40.80    1.16
  -2  -3   4   38.41    1.16
   5  -2   4   38.99    1.17
  -3   5   4   37.28    1.19
   5  -2   4   37.08    1.63
  -2  -3   4   38.44    1.12
   5  -2   4   38.55    1.16
   5  -2   4   36.70    1.06
   5  -2   4   37.79    1.14
   5  -2   4   37.05    1.16
  -3   5   4   38.55    1.09
  -3   5   4   35.69    1.08
  -2  -3   4   37.50    1.20
   5  -2   4   38.23    1.13
   3   2  -4   38.62    1.52
  -5   3  -4   39.51    1.17
  -5   3  -4   40.97    1.14
   2  -5  -4   38.89    1.39
  -5   3  -4   40.06    1.17
   2  -5  -4   39.95    1.23
  -5   3  -4   39.33    1.10
   3   2  -4   40.27    1.09
   5  -3   4   35.29    1.13
   5  -3   4   36.90    1.13
   5  -3   4   37.53    1.11
  -2   5   4   37.28    1.09
  -3  -2   4   37.18    1.08
   5  -3   4   37.31    1.16
   5  -3   4   38.01    1.04
   5  -3   4   36.04    1.61
   5  -3   4   38.12    1.13
  -2   5   4   38.14    1.10
  -3  -2   4   37.65    1.13
  -3  -2   4   37.02    1.18
  -2   5   4   35.45    1.18
  -5   4  -4    5.82    0.42
   4   1  -4    5.84    0.48
   1  -5  -4    5.77    0.44
  -5   4  -4    6.12    0.40
   4   1  -4    6.01    0.36
   1  -5  -4    5.85    0.47
  -5   4  -4    5.48    0.40
  -5   4  -4    5.96    0.38
   5  -4   4    6.44    0.41
  -4  -1   4    6.01    0.43
   5  -4   4    6.56    0.39
   5  -4   4    5.49    0.41
  -1   5   4    5.48    0.39
  -4  -1   4    6.03    0.36
  -4  -1   4    6.19    0.39
  -1   5   4    5.82    0.42
  -1   5   4    6.70    0.39
   5  -4   4    6.43    0.42
  -1   5   4    6.54    0.42
   5  -4   4    6.45    0.41
   5  -4   4    6.16    0.58
  -5   5  -4   10.82    0.55
  -5   5  -4    9.97    0.49
  -5   5  -4   10.67    0.56
   0  -5  -4   11.23    0.60
   0  -5  -4   10.57    0.67
  -5   5  -4   10.24    0.55
   5  -5   4    9.94    0.53
   0   5   4    9.91    0.56
  -5   0   4    9.96    0.55
  -5   0   4   10.28    0.50
   5  -5   4    9.34    0.52
   0   5   4    9.44    0.51
   5  -5   4   10.81    0.56
   0   5   4   10.19    0.53
   5  -5   4   10.26    0.51
   0   5   4    9.92    0.50
   5  -5   4    9.87    0.75
   6  -1  -4   19.84    0.71
  -1  -5  -4   19.90    0.85
  -5   6  -4   19.24    0.77
  -1  -5  -4   19.09    0.96
  -5   6  -4   19.33    0.71
  -5   6  -4   18.39    0.77
  -5   6  -4   18.93    0.78
  -5   6  -4   18.94    0.76
   1   5   4   19.37    0.81
   5  -6   4   18.77    1.08
   5  -6   4   19.22    0.72
   1   5   4   19.46    0.74
   1   5   4   18.26    0.74
   5  -6   4   18.11    0.76
   1   5   4   18.12    0.74
  -6   1   4   19.09    0.79
  -6   1   4   19.25    0.71
   5  -6   4   19.05    0.77
   5  -6   4   19.00    0.75
  -5   7  -4    4.89    0.41
   7  -2  -4    5.20    0.35
  -5   7  -4    5.17    0.42
  -2  -5  -4    5.16    0.50
   7  -2  -4    5.40    0.38
  -5   7  -4    5.74    0.42
   7  -2  -4    5.67    0.38
  -5   7  -4    5.15    0.41
  -5   7  -4    5.44    0.37
   2   5   4    5.08    0.24
   2   5   4    5.59    0.41
   5  -7   4    5.10    0.55
  -7   2   4    5.30    0.35
   5  -7   4    4.63    0.39
   5  -7   4    5.27    0.41
   2   5   4    5.71    0.42
   5  -7   4    4.36    0.38
   2   5   4    5.09    0.42
   2   5   4    5.32    0.40
  -7   2   4    5.48    0.42
   5  -7   4    5.05    0.37
   8  -3  -4   21.80    0.78
  -5   8  -4   21.59    0.85
  -5   8  -4   22.34    0.79
   8  -3  -4   22.10    0.78
   8  -3  -4   23.06    0.86
  -5   8  -4   21.64    0.88
  -5   8  -4   22.63    0.88
  -3  -5  -4   20.58    1.07
   5  -8   4   19.84    1.18
   5  -8   4   20.90    0.85
   3   5   4   21.62    0.90
  -8   3   4   21.87    0.77
   3   5   4   21.31    0.62
   3   5   4   20.54    0.84
   3   5   4   18.70    0.82
  -8   3   4   21.21    0.87
   3   5   4   21.49    0.82
   5  -8   4   20.57    0.85
   5  -8   4   19.74    0.82
  -5   9  -4   20.39    0.77
  -5   9  -4   20.40    0.87
  -4  -5  -4   20.80    1.10
  -5   9  -4   19.47    0.83
   9  -4  -4   21.07    0.79
   9  -4  -4   19.46    0.76
  -5   9  -4   19.72    1.18
  -5   9  -4   20.04    0.84
   9  -4  -4   19.72    0.84
   4   5   4   22.36    0.89
   5  -9   4   20.58    0.86
   5  -9   4   20.81    0.87
   4   5   4   20.59    0.65
   4   5   4   21.70    0.87
   4   5   4   20.92    0.90
   4   5   4   20.42    0.82
  -9   4   4   20.99    0.88
   5  -9   4   21.36    1.23
   5  -9   4   21.45    0.86
  -5  10  -4    1.19    0.26
  -5  10  -4    1.32    0.26
  10  -5  -4    0.85    0.22
  -5  10  -4    1.02    0.26
  -5  -5  -4    1.00    0.31
  10  -5  -4    1.12    0.25
  -5  10  -4    1.42    0.25
  10  -5  -4    1.08    0.26
   5   5   4    1.37    0.30
   5 -10   4    1.07    0.26
 -10   5   4    1.34    0.28
   5   5   4    1.54    0.40
   5   5   4    1.56    0.21
   5   5   4    1.15    0.26
   5   5   4    1.17    0.27
   5 -10   4    1.15    0.27
   5   5   4    1.78    0.30
   5   5   4    1.54    0.28
   5 -10   4    1.29    0.27
  -5  11  -4   16.10    0.77
  11  -6  -4   14.87    0.70
  -5  11  -4   15.80    0.69
  -5  11  -4   16.90    0.79
  11  -6  -4   16.01    0.79
  -5  11  -4   16.28    0.81
  11  -6  -4   15.66    0.73
  -6  -5  -4   16.37    1.02
   5 -11   4   17.30    0.82
 -11   6   4   15.40    0.79
   5 -11   4   16.50    0.79
   6   5   4   16.33    0.82
   6   5   4   16.51    0.82
   6   5   4   16.98    0.79
   6   5   4   17.05    0.80
   6   5   4   16.44    0.77
   6   5   4   16.07    0.62
  10  -6  -4    4.12    0.41
  -4  10  -4    3.52    0.37
  -4  10  -4    4.00    0.41
  10  -6  -4    3.97    0.38
  -4  10  -4    4.32    0.41
  10  -6  -4    3.67    0.36
  -6  -4  -4    3.78    0.50
   6   4   4    4.98    0.43
   6   4   4    4.56    0.44
   4 -10   4    4.87    0.42
   4 -10   4    4.37    0.41
   6   4   4    4.77    0.31
   6   4   4    3.89    0.41
 -10   6   4    4.54    0.42
   6   4   4    4.46    0.57
   6   4   4    5.22    0.45
   6   4   4    4.76    0.42
   9  -6  -4   40.32    1.31
   9  -6  -4   40.83    1.15
  -3   9  -4   40.21    1.77
   9  -6  -4   40.83    1.20
  -3   9  -4   39.78    1.25
  -3   9  -4   39.64    1.24
  -6  -3  -4   41.38    1.67
  -3   9  -4   39.50    1.30
   6   3   4   39.43    1.80
   6   3   4   37.32    1.24
   6   3   4   37.32    1.28
  -9   6   4   38.34    1.26
  -9   6   4   37.01    1.17
   6   3   4   38.23    1.25
   3  -9   4   38.66    1.27
   6   3   4   36.46    1.31
   6   3   4   37.96    1.02
   6   3   4   37.52    1.22
   3  -9   4   38.80    1.28
  -2   8  -4   16.87    1.02
   8  -6  -4   16.75    0.70
   8  -6  -4   16.50    0.75
  -2   8  -4   16.44    0.73
  -2   8  -4   15.88    0.70
  -2   8  -4   15.45    0.75
  -6  -2  -4   16.47    0.67
  -6  -2  -4   16.04    0.94
   6   2   4   15.54    0.71
   6   2   4   14.90    0.69
   6   2   4   15.82    1.02
  -8   6   4   15.39    0.70
   2  -8   4   14.75    0.72
   2  -8   4   15.08    0.71
   6   2   4   16.03    0.77
   6   2   4   16.48    0.53
   6   2   4   15.30    0.73
   2  -8   4   15.56    0.69
   6   2   4   15.73    0.72
  -8   6   4   15.29    0.68
  -1   7  -4    9.94    0.55
  -1   7  -4    9.47    0.57
   7  -6  -4    9.81    0.57
  -1   7  -4    9.91    0.76
   7  -6  -4    9.92    0.46
  -6  -1  -4    9.99    0.72
   7  -6  -4   10.01    0.53
  -6  -1  -4   10.52    0.53
  -1   7  -4   10.28    0.54
   6   1   4   10.89    0.58
   6   1   4   11.45    0.59
  -7   6   4   11.02    0.59
   6   1   4   10.86    0.56
   6   1   4   11.82    0.39
  -7   6   4   10.61    0.54
   1  -7   4   11.19    0.58
   6   1   4   10.44    0.56
   6   1   4    9.89    0.58
   1  -7   4   10.83    0.59
   6   1   4   11.01    0.82
   1  -7   4   10.93    0.55
  -7   6   4   10.70    0.55
  -6   0  -4   49.37    1.83
   0   6  -4   49.29    1.35
   0   6  -4   48.73    1.95
   6  -6  -4   46.26    1.43
   0   6  -4   47.22    1.45
  -6   0  -4   49.32    1.35
   6  -6  -4   47.60    1.33
  -6   0  -4   49.51    1.37
   0   6  -4   49.20    1.38
   6   0   4   47.61    1.34
   0  -6   4   49.04    1.40
   6   0   4   48.46    1.09
   6   0   4   47.65    1.38
   6   0   4   48.84    2.00
   6   0   4   48.25    1.45
  -6   6   4   47.65    1.33
  -6   6   4   49.40    1.46
   6   0   4   49.42    1.43
   6   0   4   48.40    1.41
   6   0   4   50.27    1.38
   0  -6   4   48.85    1.34
   0  -6   4   47.95    1.42
   1   5  -4   19.13    1.04
  -6   1  -4   17.67    0.97
   5  -6  -4   19.16    0.73
   5  -6  -4   19.41    0.80
   1   5  -4   18.92    0.69
   1   5  -4   19.40    0.74
  -6   1  -4   20.31    0.76
  -6   1  -4   18.32    0.72
   6  -1   4   18.91    1.08
   6  -1   4   19.17    0.78
   6  -1   4   18.84    0.75
   6  -1   4   18.56    0.48
  -5   6   4   18.96    0.68
   6  -1   4   18.92    0.77
   6  -1   4   18.20    0.77
  -1  -5   4   17.47    0.77
  -5   6   4   18.84    0.78
  -1  -5   4   18.61    0.74
  -5   6   4   18.00    0.71
   6  -1   4   18.29    0.71
  -1  -5   4   19.36    0.77
   6  -1   4   17.69    0.72
   2   4  -4   28.31    0.85
  -6   2  -4   28.09    0.91
   2   4  -4   27.08    0.90
   2   4  -4   27.60    1.27
   4  -6  -4   27.80    0.92
   4  -6  -4   27.14    0.99
  -6   2  -4   26.60    0.92
  -6   2  -4   26.79    1.23
   4  -6  -4   28.61    1.09
  -2  -4   4   26.55    0.94
   6  -2   4   26.48    0.95
   6  -2   4   27.22    0.88
  -2  -4   4   27.00    0.98
   6  -2   4   25.54    0.91
  -2  -4   4   26.96    0.91
   6  -2   4   27.56    1.35
  -4   6   4   27.94    0.88
  -4   6   4   27.25    0.97
   6  -2   4   25.68    0.93
  -4   6   4   26.72    0.89
   6  -2   4   26.74    0.95
   6  -2   4   26.74    0.93
   3   3  -4   30.32    0.98
   3  -6  -4   30.52    1.02
   3  -6  -4   29.94    1.23
  -6   3  -4   30.95    0.99
   3  -6  -4   29.51    1.08
  -6   3  -4   31.22    1.04
   3   3  -4   30.34    1.38
  -6   3  -4   31.94    1.01
  -3   6   4   33.79    0.73
  -3   6   4   34.21    1.02
   6  -3   4   33.40    1.07
   6  -3   4   34.09    1.06
   6  -3   4   33.24    0.96
  -3  -3   4   33.93    1.11
   6  -3   4   33.35    1.04
  -3   6   4   34.56    1.12
  -3   6   4   35.31    1.03
   6  -3   4   32.22    1.06
  -3  -3   4   33.27    1.05
   6  -3   4   32.68    1.51
  -3  -3   4   34.58    1.03
   6  -3   4   35.70    1.07
  -6   4  -4   26.49    0.90
  -6   4  -4   26.43    0.93
  -6   4  -4   26.12    0.87
   4   2  -4   26.92    0.86
   2  -6  -4   26.78    0.98
   4   2  -4   26.35    1.19
   2  -6  -4   26.72    1.12
  -6   4  -4   26.60    0.93
   6  -4   4   26.25    0.89
   6  -4   4   25.31    0.81
  -2   6   4   26.34    0.61
  -2   6   4   25.14    0.95
  -4  -2   4   25.46    0.89
   6  -4   4   25.81    0.93
   6  -4   4   24.93    1.29
  -4  -2   4   25.96    0.95
  -4  -2   4   25.94    0.85
   6  -4   4   24.78    0.90
   6  -4   4   24.61    0.87
  -2   6   4   25.47    0.87
  -2   6   4   26.19    0.88
   6  -4   4   24.27    0.90
  -6   5  -4   19.37    0.72
   1  -6  -4   18.90    0.82
   5   1  -4   18.54    0.95
  -6   5  -4   19.17    0.77
   1  -6  -4   18.66    0.93
  -6   5  -4   19.04    0.78
  -6   5  -4   19.27    0.76
   5   1  -4   19.46    0.69
  -1   6   4   17.75    0.70
  -1   6   4   18.99    0.80
   6  -5   4   19.18    0.77
  -1   6   4   19.76    0.74
  -5  -1   4   18.86    0.80
  -5  -1   4   18.60    0.73
   6  -5   4   17.95    0.72
   6  -5   4   18.88    0.76
  -1   6   4   19.38    0.75
   6  -5   4   19.24    1.10
  -1   6   4   19.41    0.50
   6  -5   4   20.23    0.79
   6   0  -4   47.26    1.29
  -6   6  -4   46.67    1.38
  -6   6  -4   47.29    1.40
  -6   6  -4   47.76    1.30
  -6   6  -4   47.77    1.39
   0  -6  -4   46.23    1.46
   0  -6  -4   45.27    1.71
   0   6   4   47.20    1.06
  -6   0   4   48.65    1.33
   6  -6   4   46.65    1.97
   0   6   4   47.75    1.33
   6  -6   4   46.45    1.37
   6  -6   4   46.57    1.38
   0   6   4   46.19    1.35
   6  -6   4   47.46    1.33
   6  -6   4   48.08    1.40
   0   6   4   47.53    1.45
   0   6   4   48.81    1.36
  -6   0   4   46.47    1.42
  -6   7  -4   10.36    0.58
  -1  -6  -4   10.40    0.72
  -6   7  -4   11.26    0.55
  -6   7  -4   10.30    0.58
   7  -1  -4   10.89    0.54
  -6   7  -4   10.99    0.60
  -1  -6  -4   10.88    0.64
  -6   7  -4   10.96    0.60
   1   6   4   11.92    0.40
  -7   1   4   11.90    0.62
   6  -7   4   11.20    0.60
   6  -7   4   12.06    0.87
   6  -7   4   11.84    0.60
   1   6   4   11.89    0.60
   1   6   4   12.20    0.60
   6  -7   4   12.29    0.58
  -7   1   4   12.26    0.57
   1   6   4   12.22    0.58
   6  -7   4   11.40    0.60
   1   6   4   11.38    0.62
  -6   8  -4   16.85    0.67
  -6   8  -4   15.68    0.72
  -6   8  -4   17.06    0.74
   8  -2  -4   15.06    0.65
  -6   8  -4   16.47    0.72
  -6   8  -4   15.07    0.72
  -2  -6  -4   14.97    0.89
   2   6   4   15.34    0.71
   2   6   4   15.33    0.69
   6  -8   4   14.19    0.70
   6  -8   4   15.57    1.02
   2   6   4   14.38    0.69
   2   6   4   15.17    0.51
   6  -8   4   14.53    0.70
   6  -8   4   14.32    0.66
   6  -8   4   14.53    0.69
   2   6   4   14.43    0.73
  -8   2   4   15.04    0.73
   9  -3  -4   42.39    1.29
  -6   9  -4   41.87    1.32
  -3  -6  -4   41.36    1.67
  -6   9  -4   44.59    1.35
  -6   9  -4   42.39    1.23
   9  -3  -4   42.92    1.19
  -6   9  -4   40.80    1.33
   9  -3  -4   42.80    1.22
  -6   9  -4   40.92    1.34
   6  -9   4   38.70    1.29
   6  -9   4   39.86    1.31
   6  -9   4   37.54    1.27
   3   6   4   40.45    1.32
   3   6   4   40.41    1.30
   3   6   4   40.39    1.26
  -9   3   4   37.96    1.32
   6  -9   4   39.46    1.84
   3   6   4   39.79    1.36
   3   6   4   39.42    1.05
  -4  -6  -4    3.34    0.51
  -6  10  -4    3.95    0.40
  -6  10  -4    3.36    0.41
  -6  10  -4    3.57    0.35
  10  -4  -4    3.69    0.37
  -6  10  -4    3.48    0.36
  10  -4  -4    4.02    0.36
  10  -4  -4    3.97    0.37
  -6  10  -4    3.84    0.38
   4   6   4    4.53    0.30
   6 -10   4    4.20    0.41
 -10   4   4    4.07    0.41
   4   6   4    4.54    0.42
   4   6   4    4.92    0.44
   6 -10   4    3.71    0.43
   4   6   4    4.07    0.42
   6 -10   4    4.25    0.39
   4   6   4    4.32    0.41
  -6  11  -4   15.46    0.76
  -5  -6  -4   15.57    0.99
  -6  11  -4   16.17    0.71
  -6  11  -4   15.37    0.77
  11  -5  -4   16.10    0.78
  11  -5  -4   16.68    0.74
  11  -5  -4   17.06    0.74
  -6  11  -4   15.32    0.79
   6 -11   4   17.01    0.80
   5   6   4   17.08    0.78
   5   6   4   16.57    0.79
   5   6   4   15.72    0.62
   6 -11   4   16.58    0.79
   5   6   4   16.43    0.83
 -11   5   4   17.03    0.83
   6 -11   4   15.80    0.77
   5   6   4   16.29    0.81
  12  -6  -4   11.38    0.64
  -6  12  -4   10.66    0.68
  -6  12  -4   10.76    0.64
  -6  12  -4   11.38    0.61
  12  -6  -4   10.91    0.67
  12  -6  -4   11.30    0.63
  -6  12  -4   11.19    0.67
   6   6   4   12.80    0.71
   6   6   4   12.58    0.56
   6   6   4   12.51    0.74
   6 -12   4   11.92    0.69
   6 -12   4   13.31    0.72
   6   6   4   13.51    0.75
   6   6   4   13.30    0.70
 -12   6   4   13.57    0.76
  -6  13  -4   12.18    0.70
  13  -7  -4   13.21    0.68
  -6  13  -4   12.55    0.72
  13  -7  -4   11.89    0.72
  -6  13  -4   10.75    0.69
  13  -7  -4   12.53    0.68
   7   6   4   11.69    0.73
   6 -13   4   11.82    0.70
   7   6   4   12.07    0.70
   6 -13   4   12.23    0.71
   6 -13   4   12.08    0.58
   7   6   4   13.41    0.74
   7   6   4   11.82    0.71
 -13   7   4   11.05    0.73
   7   6   4   11.10    0.72
   7   6   4   11.98    0.58
  -5  12  -4   10.11    0.63
  12  -7  -4   10.09    0.58
  -5  12  -4   10.97    0.67
  12  -7  -4    9.86    0.60
  12  -7  -4   10.87    0.67
  -5  12  -4    9.47    0.61
   5 -12   4   10.05    0.64
   7   5   4   10.43    0.66
   7   5   4   11.04    0.70
   7   5   4   10.10    0.63
   7   5   4   10.43    0.51
   5 -12   4   10.38    0.65
   7   5   4   10.52    0.65
   7   5   4   10.93    0.64
 -12   7   4   10.71    0.68
  11  -7  -4    0.56    0.20
  11  -7  -4    0.76    0.24
  -7  -4  -4    0.65    0.29
  -4  11  -4    0.68    0.23
  -4  11  -4    0.68    0.24
  11  -7  -4    0.92    0.25
  -4  11  -4    0.59    0.23
   7   4   4    0.67    0.23
   7   4   4    0.59    0.24
   4 -11   4    0.75    0.23
   7   4   4    0.58    0.16
   7   4   4    0.68    0.24
   7   4   4    0.80    0.25
   4 -11   4    0.74    0.24
 -11   7   4    0.84    0.26
   7   4   4    0.37    0.21
  10  -7  -4    4.77    0.41
  10  -7  -4    4.53    0.43
  10  -7  -4    5.28    0.40
  -7  -3  -4    5.15    0.55
  -3  10  -4    4.76    0.41
  -3  10  -4    5.54    0.46
  -3  10  -4    4.78    0.42
  -7  -3  -4    4.67    0.39
   7   3   4    4.45    0.43
   3 -10   4    4.81    0.42
   7   3   4    4.66    0.42
   7   3   4    4.64    0.31
   7   3   4    4.47    0.44
   7   3   4    3.96    0.40
 -10   7   4    4.38    0.41
   3 -10   4    3.99    0.41
 -10   7   4    4.45    0.42
   7   3   4    4.41    0.42
   9  -7  -4   13.80    0.65
  -7  -2  -4   13.48    0.63
  -2   9  -4   13.88    0.66
   9  -7  -4   14.36    0.72
  -2   9  -4   15.04    0.74
  -7  -2  -4   14.01    0.89
  -2   9  -4   13.72    0.68
   9  -7  -4   14.38    0.61
   7   2   4   12.47    0.65
   2  -9   4   12.66    0.68
   7   2   4   12.40    0.66
   7   2   4   11.82    0.92
   7   2   4   12.52    0.49
   7   2   4   13.28    0.67
  -9   7   4   13.08    0.66
   7   2   4   11.97    0.67
   2  -9   4   11.65    0.65
   7   2   4   11.66    0.68
  -9   7   4   12.35    0.63
  -7  -1  -4    2.09    0.29
  -1   8  -4    1.91    0.30
  -1   8  -4    1.95    0.29
  -1   8  -4    2.13    0.32
   8  -7  -4    2.58    0.33
  -1   8  -4    2.65    0.47
  -7  -1  -4    1.99    0.39
   8  -7  -4    1.83    0.31
   7   1   4    2.44    0.34
  -8   7   4    2.29    0.31
   1  -8   4    2.66    0.35
   7   1   4    2.22    0.20
   7   1   4    1.99    0.31
   7   1   4    2.19    0.46
   7   1   4    2.72    0.36
  -8   7   4    2.30    0.32
   7   1   4    1.68    0.29
   7   1   4    2.12    0.33
   1  -8   4    2.31    0.34
   0   7  -4    7.61    0.67
  -7   0  -4    6.74    0.59
  -7   0  -4    7.66    0.47
   0   7  -4    7.16    0.44
   0   7  -4    7.50    0.51
  -7   0  -4    6.97    0.45
   7  -7  -4    6.66    0.48
   0   7  -4    7.21    0.47
   7  -7  -4    7.71    0.47
   7   0   4    7.02    0.66
   7   0   4    6.70    0.31
  -7   7   4    6.73    0.48
   7   0   4    6.17    0.46
   7   0   4    6.59    0.47
   0  -7   4    6.90    0.47
   0  -7   4    6.63    0.47
   7   0   4    7.36    0.48
   7   0   4    5.93    0.47
   7   0   4    6.95    0.47
  -7   7   4    7.06    0.46
  -7   1  -4    9.91    0.53
   1   6  -4    9.02    0.56
   1   6  -4   10.39    0.76
   6  -7  -4    9.66    0.58
  -7   1  -4    9.63    0.71
   1   6  -4    9.80    0.50
   6  -7  -4    8.97    0.52
   1   6  -4    9.47    0.53
  -7   1  -4    9.57    0.53
  -6   7   4   10.63    0.59
   7  -1   4   10.00    0.57
  -1  -6   4   10.77    0.57
   7  -1   4   11.17    0.84
  -1  -6   4   10.23    0.57
   7  -1   4   11.05    0.55
   7  -1   4   12.11    0.58
   7  -1   4   11.53    0.58
   7  -1   4   11.09    0.38
   7  -1   4   10.81    0.58
  -1  -6   4    9.27    0.55
   7  -1   4   10.58    0.58
  -6   7   4   10.51    0.55
   2   5  -4    4.95    0.38
  -7   2  -4    5.33    0.39
   2   5  -4    5.36    0.36
   2   5  -4    5.43    0.53
   5  -7  -4    4.97    0.39
   5  -7  -4    5.01    0.42
  -7   2  -4    5.46    0.40
  -7   2  -4    4.56    0.50
  -5   7   4    5.39    0.40
   7  -2   4    5.28    0.38
  -5   7   4    5.09    0.38
   7  -2   4    5.63    0.42
   7  -2   4    5.42    0.41
   7  -2   4    5.17    0.57
   7  -2   4    5.16    0.41
   7  -2   4    4.72    0.38
   7  -2   4    5.26    0.42
  -2  -5   4    5.73    0.41
  -2  -5   4    5.41    0.39
   7  -2   4    5.42    0.25
  -2  -5   4    4.70    0.40
  -5   7   4    4.86    0.40
   4  -7  -4    6.94    0.52
  -7   3  -4    6.39    0.43
   3   4  -4    6.28    0.58
  -7   3  -4    6.80    0.42
  -7   3  -4    6.87    0.46
   4  -7  -4    6.49    0.44
   3   4  -4    6.89    0.44
   4  -7  -4    6.00    0.46
  -3  -4   4    7.54    0.49
  -4   7   4    7.94    0.47
   7  -3   4    7.63    0.47
   7  -3   4    8.39    0.71
  -4   7   4    7.90    0.46
   7  -3   4    8.05    0.48
   7  -3   4    8.47    0.50
  -4   7   4    8.36    0.51
   7  -3   4    7.63    0.44
  -3  -4   4    8.68    0.50
  -3  -4   4    8.26    0.47
   7  -3   4    8.66    0.50
   7  -3   4    8.22    0.50
   7  -3   4    8.33    0.30
  -7   4  -4    6.75    0.43
   4   3  -4    5.81    0.55
   3  -7  -4    6.60    0.52
  -7   4  -4    6.21    0.45
  -7   4  -4    6.64    0.46
   3  -7  -4    6.66    0.49
   4   3  -4    6.31    0.41
  -7   4  -4    6.86    0.44
   3  -7  -4    7.00    0.47
   7  -4   4    8.08    0.29
   7  -4   4    8.27    0.70
   7  -4   4    7.97    0.49
  -3   7   4    8.43    0.49
   7  -4   4    9.56    0.51
  -4  -3   4    8.30    0.51
  -4  -3   4    8.32    0.46
   7  -4   4    8.48    0.49
   7  -4   4    8.49    0.50
  -4  -3   4    7.83    0.48
  -3   7   4    9.55    0.50
   7  -4   4    8.11    0.44
   7  -4   4    8.01    0.48
   5   2  -4    5.06    0.36
  -7   5  -4    5.31    0.41
   2  -7  -4    4.61    0.39
  -7   5  -4    5.33    0.38
   5   2  -4    5.49    0.51
   2  -7  -4    5.65    0.49
   2  -7  -4    5.19    0.43
  -7   5  -4    5.26    0.39
  -7   5  -4    5.06    0.39
   7  -5   4    5.03    0.39
   7  -5   4    4.61    0.55
   7  -5   4    4.68    0.40
  -2   7   4    4.70    0.41
   7  -5   4    4.82    0.23
  -2   7   4    4.55    0.39
   7  -5   4    4.33    0.37
   7  -5   4    5.44    0.40
   7  -5   4    4.99    0.37
  -5  -2   4    4.82    0.41
  -2   7   4    4.75    0.39
  -2   7   4    4.80    0.24
  -5  -2   4    5.58    0.41
   6   1  -4   10.02    0.49
  -7   6  -4   10.35    0.57
  -7   6  -4   10.47    0.58
  -7   6  -4   10.44    0.54
   6   1  -4   11.09    0.55
   1  -7  -4   11.45    0.64
   1  -7  -4   10.68    0.71
  -7   6  -4   10.51    0.59
  -1   7   4   11.97    0.40
   7  -6   4   11.68    0.86
  -1   7   4   12.61    0.58
  -1   7   4   11.68    0.59
   7  -6   4   11.45    0.39
   7  -6   4   11.36    0.60
   7  -6   4   10.64    0.59
  -6  -1   4   11.42    0.62
   7  -6   4   11.22    0.59
  -1   7   4   11.32    0.62
  -6  -1   4   12.97    0.60
   7  -6   4   12.04    0.59
  -1   7   4   12.56    0.60
   0  -7  -4    7.49    0.52
  -7   7  -4    7.19    0.45
   0  -7  -4    7.12    0.59
  -7   7  -4    7.10    0.48
  -7   7  -4    7.06    0.48
   7   0  -4    7.15    0.45
  -7   7  -4    6.71    0.46
   0   7   4    7.04    0.47
   7  -7   4    7.09    0.48
   0   7   4    6.22    0.47
   7  -7   4    7.21    0.32
   7  -7   4    6.88    0.67
   7  -7   4    7.21    0.46
  -7   0   4    6.40    0.48
   7  -7   4    6.94    0.46
   0   7   4    7.67    0.48
  -7   0   4    6.78    0.44
   0   7   4    7.23    0.48
   7  -7   4    6.54    0.46
   0   7   4    7.03    0.32
  -7   8  -4    2.07    0.32
  -7   8  -4    2.35    0.33
  -1  -7  -4    2.19    0.40
   8  -1  -4    2.29    0.30
  -1  -7  -4    2.26    0.35
  -7   8  -4    2.16    0.30
  -7   8  -4    1.95    0.31
  -7   8  -4    2.36    0.33
   7  -8   4    1.97    0.30
  -8   1   4    2.34    0.31
   1   7   4    1.97    0.19
   7  -8   4    2.05    0.31
   1   7   4    2.58    0.35
   7  -8   4    2.22    0.20
  -8   1   4    2.23    0.34
   1   7   4    2.26    0.33
   1   7   4    1.95    0.30
   7  -8   4    1.86    0.31
   1   7   4    2.00    0.30
   7  -8   4    2.53    0.48
   7  -8   4    2.22    0.32
  -7   9  -4   13.44    0.69
  -2  -7  -4   13.96    0.75
  -7   9  -4   14.31    0.70
  -7   9  -4   13.77    0.69
  -7   9  -4   13.47    0.69
   9  -2  -4   13.89    0.64
  -7   9  -4   14.11    0.64
  -2  -7  -4   13.06    0.85
   2   7   4   11.68    0.65
   2   7   4   12.18    0.49
  -9   2   4   12.68    0.69
   2   7   4   12.37    0.68
   7  -9   4   11.95    0.64
   7  -9   4   13.10    0.68
   7  -9   4   12.43    0.66
   2   7   4   12.30    0.64
   7  -9   4   11.92    0.48
   2   7   4   13.36    0.68
  -7  10  -4    4.54    0.43
  -7  10  -4    4.92    0.44
  -3  -7  -4    3.97    0.49
  -7  10  -4    4.41    0.42
  10  -3  -4    4.90    0.40
  -7  10  -4    4.37    0.41
  10  -3  -4    4.24    0.39
  -7  10  -4    4.61    0.39
 -10   3   4    4.54    0.43
   3   7   4    3.99    0.40
   3   7   4    4.31    0.30
   3   7   4    4.13    0.41
   7 -10   4    4.17    0.30
   7 -10   4    4.31    0.41
   3   7   4    4.20    0.41
   3   7   4    3.38    0.43
   7 -10   4    4.51    0.42
   7 -10   4    4.25    0.41
  -7  11  -4    0.71    0.24
  -7  11  -4    0.32    0.19
  11  -4  -4    0.91    0.24
  -7  11  -4    0.86    0.23
  11  -4  -4    0.57    0.22
  -7  11  -4    0.68    0.23
  11  -4  -4    0.67    0.22
  -7  11  -4    0.91    0.25
  -4  -7  -4    0.81    0.30
   7 -11   4    0.76    0.17
   4   7   4    0.76    0.17
   4   7   4    0.56    0.23
   7 -11   4    0.60    0.23
   4   7   4    0.79    0.25
   7 -11   4    0.80    0.24
   4   7   4    0.81    0.25
   7 -11   4    0.59    0.22
 -11   4   4    0.60    0.23
   4   7   4    0.67    0.23
  -7  12  -4    9.80    0.62
  -7  12  -4   10.93    0.60
  12  -5  -4   10.50    0.64
  -7  12  -4    9.87    0.63
  -7  12  -4    9.78    0.65
  12  -5  -4    9.34    0.57
  -7  12  -4   10.69    0.63
  12  -5  -4   10.30    0.59
   5   7   4    9.54    0.65
   5   7   4   10.31    0.62
   5   7   4    9.47    0.49
   7 -12   4   10.99    0.66
   5   7   4   10.29    0.64
   7 -12   4    9.92    0.63
   5   7   4   10.39    0.67
   7 -12   4   10.36    0.51
 -12   5   4   10.54    0.68
  -7  13  -4   12.83    0.75
  -7  13  -4   13.06    0.74
  13  -6  -4   12.74    0.69
  13  -6  -4   12.87    0.68
  -7  13  -4   11.85    0.64
  -7  13  -4   12.06    0.71
  13  -6  -4   12.79    0.74
  -7  13  -4   12.72    0.71
   6   7   4   11.44    0.69
   6   7   4   11.95    0.74
   6   7   4   12.43    0.70
   7 -13   4   12.05    0.71
   7 -13   4   10.50    0.67
   6   7   4   10.31    0.70
   7 -13   4   11.15    0.56
   6   7   4   11.01    0.56
 -13   6   4   12.74    0.77
  14  -7  -4    2.03    0.39
  -7  14  -4    1.70    0.35
  -7  14  -4    1.46    0.32
  -7  14  -4    1.96    0.36
  14  -7  -4    1.55    0.31
  -7  14  -4    1.26    0.29
  14  -7  -4    1.41    0.30
  -7  14  -4    1.78    0.33
   7 -14   4    1.28    0.31
   7   7   4    1.61    0.27
   7   7   4    1.26    0.32
   7   7   4    1.21    0.31
   7 -14   4    1.19    0.31
   7   7   4    1.42    0.33
 -14   7   4    1.35    0.34
   7 -14   4    1.46    0.27
   7   7   4    1.11    0.30
  15  -8  -4   13.10    0.73
  15  -8  -4   12.37    0.73
  -7  15  -4   11.62    0.74
  -7  15  -4   11.68    0.74
  -7  15  -4   11.82    0.72
  -7  15  -4   12.50    0.78
   8   7   4   10.89    0.72
   8   7   4   10.67    0.61
   8   7   4   11.88    0.78
   7 -15   4   11.81    0.73
 -15   8   4   12.18    0.81
   8   7   4   12.35    0.74
   7 -15   4   11.54    0.73
   7 -15   4   12.05    0.62
  14  -8  -4    3.40    0.47
  14  -8  -4    3.75    0.46
  -6  14  -4    3.45    0.46
  -6  14  -4    3.43    0.47
  -6  14  -4    3.93    0.48
  14  -8  -4    4.09    0.46
   6 -14   4    4.78    0.48
 -14   8   4    3.99    0.52
   6 -14   4    4.59    0.38
   8   6   4    4.77    0.52
   8   6   4    4.33    0.52
   6 -14   4    4.23    0.50
   8   6   4    4.54    0.38
   8   6   4    4.19    0.53
   8   6   4    3.66    0.49
   8   6   4    4.58    0.46
  13  -8  -4    3.16    0.39
  13  -8  -4    3.46    0.43
  -5  13  -4    3.61    0.45
  -5  13  -4    3.18    0.43
  -5  13  -4    2.63    0.40
  13  -8  -4    3.04    0.43
   5 -13   4    2.95    0.41
   8   5   4    3.91    0.47
   8   5   4    2.71    0.42
   8   5   4    3.49    0.47
   5 -13   4    3.52    0.45
 -13   8   4    3.52    0.47
   8   5   4    2.87    0.34
   8   5   4    3.40    0.44
   8   5   4    3.64    0.47
  -4  12  -4   22.84    0.97
  -4  12  -4   24.46    1.00
  12  -8  -4   23.22    1.02
  -4  12  -4   23.76    1.03
  12  -8  -4   24.18    0.96
   8   4   4   23.33    1.03
   4 -12   4   23.87    1.00
   4 -12   4   23.38    1.00
   8   4   4   23.85    1.02
   8   4   4   22.36    0.82
   8   4   4   23.20    1.06
 -12   8   4   24.11    1.04
   8   4   4   23.87    0.99
   8   4   4   23.25    0.98
  11  -8  -4   11.12    0.63
  -8  -3  -4   11.11    0.83
  11  -8  -4   10.68    0.66
  -3  11  -4   11.57    0.65
  -3  11  -4   11.42    0.65
  -8  -3  -4   10.84    0.60
  11  -8  -4   11.55    0.59
  -3  11  -4   11.48    0.68
   3 -11   4   11.63    0.67
   3 -11   4   10.97    0.65
   8   3   4   11.33    0.68
 -11   8   4   11.16    0.66
   8   3   4   11.30    0.51
   8   3   4   10.65    0.68
   8   3   4   11.98    0.66
   8   3   4   10.98    0.67
   8   3   4   11.88    0.66
  -2  10  -4    3.37    0.40
  10  -8  -4    3.69    0.41
  -2  10  -4    3.53    0.37
  -2  10  -4    3.38    0.42
  -8  -2  -4    3.63    0.35
  10  -8  -4    2.94    0.40
  -8  -2  -4    3.41    0.53
   8   2   4    2.72    0.37
   8   2   4    3.03    0.26
   2 -10   4    3.12    0.41
 -10   8   4    2.62    0.37
   8   2   4    3.71    0.44
   8   2   4    3.28    0.40
   8   2   4    3.10    0.41
   8   2   4    3.20    0.41
 -10   8   4    2.93    0.38
   2 -10   4    3.10    0.39
  -8  -1  -4   13.59    0.66
  -1   9  -4   13.15    0.68
  -8  -1  -4   12.83    0.87
  -1   9  -4   12.71    0.65
   9  -8  -4   12.61    0.65
   9  -8  -4   12.31    0.69
  -8  -1  -4   12.35    0.63
  -1   9  -4   12.71    0.69
   8   1   4   13.01    0.72
   8   1   4   13.64    0.71
   8   1   4   13.65    0.71
   8   1   4   14.01    0.69
   1  -9   4   12.98    0.69
   8   1   4   14.07    0.53
   1  -9   4   14.02    0.70
   8   1   4   14.45    0.70
  -9   8   4   14.46    0.68
   0   8  -4    5.63    0.59
  -8   0  -4    5.28    0.42
   0   8  -4    5.36    0.45
   0   8  -4    5.67    0.42
   8  -8  -4    5.86    0.44
  -8   0  -4    5.73    0.43
   8  -8  -4    5.04    0.45
   0   8  -4    5.32    0.43
  -8   0  -4    5.25    0.56
   8   0   4    8.59    0.55
   0  -8   4    7.09    0.49
   8   0   4    7.63    0.49
   8   0   4    8.36    0.52
  -8   8   4    8.24    0.50
   8   0   4    7.31    0.51
   7  -8  -4    2.04    0.32
  -8   1  -4    2.14    0.30
   1   7  -4    1.96    0.28
   1   7  -4    2.39    0.35
  -8   1  -4    2.09    0.31
   7  -8  -4    1.76    0.29
   1   7  -4    2.33    0.44
   1   7  -4    2.34    0.32
  -8   1  -4    2.19    0.40
  -1  -7   4    1.85    0.31
   8  -1   4    2.26    0.34
   8  -1   4    2.60    0.50
  -7   8   4    1.98    0.32
  -7   8   4    1.98    0.30
   8  -1   4    2.12    0.33
  -1  -7   4    2.10    0.32
   8  -1   4    1.58    0.29
   8  -1   4    1.83    0.29
   8  -1   4    2.12    0.31
   8  -1   4    2.17    0.20
   6  -8  -4   15.96    0.77
  -8   2  -4   15.39    0.67
   2   6  -4   15.88    0.70
   6  -8  -4   16.74    0.72
   2   6  -4   17.14    1.01
  -8   2  -4   16.22    0.96
   2   6  -4   17.95    0.68
  -8   2  -4   16.73    0.73
  -2  -6   4   15.83    0.71
  -6   8   4   15.87    0.67
  -6   8   4   14.67    0.73
   8  -2   4   15.50    0.71
   8  -2   4   15.28    0.73
   8  -2   4   15.48    0.52
   8  -2   4   15.94    0.69
   8  -2   4   14.91    0.70
  -2  -6   4   15.29    0.73
   8  -2   4   14.96    0.73
  -6   8   4   15.89    0.69
   8  -2   4   15.63    0.74
  -2  -6   4   14.62    0.73
   8  -2   4   15.09    1.02
   3   5  -4   21.73    1.14
  -8   3  -4   20.55    0.82
  -8   3  -4   20.33    0.79
   3   5  -4   20.44    0.79
   5  -8  -4   19.67    0.87
  -8   3  -4   20.49    1.09
   5  -8  -4   21.13    0.82
   8  -3   4   19.61    0.83
  -5   8   4   20.60    0.79
   8  -3   4   20.11    0.81
  -5   8   4   19.27    0.85
  -3  -5   4   19.38    0.78
   8  -3   4   20.36    1.20
   8  -3   4   21.39    0.86
   8  -3   4   20.91    0.78
  -3  -5   4   19.68    0.85
  -5   8   4   19.42    0.77
   8  -3   4   19.89    0.60
   8  -3   4   19.63    0.83
   4  -8  -4   55.74    1.92
  -8   4  -4   57.70    1.55
  -8   4  -4   55.52    1.52
   4  -8  -4   57.38    1.70
   4   4  -4   55.87    1.52
   4  -8  -4   55.63    1.55
  -8   4  -4   52.52    1.57
  -8   4  -4   55.75    1.60
   4   4  -4   56.35    2.16
   8  -4   4   57.54    1.60
   8  -4   4   56.94    1.63
   8  -4   4   57.13    1.30
   8  -4   4   58.09    1.62
  -4   8   4   56.88    1.52
  -4  -4   4   55.76    1.59
  -4   8   4   55.46    1.64
   8  -4   4   55.98    1.56
  -4  -4   4   55.75    1.65
   8  -4   4   57.13    1.49
   8  -4   4   57.70    1.62
   8  -4   4   56.97    2.29
  -4   8   4   56.13    1.53
   3  -8  -4   21.51    1.03
   5   3  -4   20.65    0.78
   3  -8  -4   20.89    0.90
  -8   5  -4   21.87    0.81
   3  -8  -4   22.08    0.85
  -8   5  -4   22.72    0.84
   5   3  -4   21.56    1.12
  -8   5  -4   21.44    0.86
  -8   5  -4   21.15    0.86
   8  -5   4   20.41    1.20
  -3   8   4   20.52    0.80
  -3   8   4   20.81    0.82
   8  -5   4   21.35    0.86
   8  -5   4   19.84    0.80
  -3   8   4   20.17    0.87
   8  -5   4   20.20    0.83
   8  -5   4   21.59    0.87
   8  -5   4   21.23    0.84
  -5  -3   4   21.06    0.88
   8  -5   4   21.09    0.62
   8  -5   4   21.59    0.77
  -5  -3   4   21.10    0.85
   2  -8  -4   15.58    0.87
  -8   6  -4   15.42    0.67
  -8   6  -4   15.27    0.71
  -8   6  -4   15.75    0.72
   6   2  -4   15.52    0.67
   6   2  -4   16.38    0.65
   6   2  -4   15.84    0.91
   2  -8  -4   17.49    0.73
  -8   6  -4   16.63    0.72
   2  -8  -4   16.46    0.78
   8  -6   4   15.36    0.73
  -2   8   4   14.10    0.68
   8  -6   4   15.17    1.01
  -6  -2   4   14.31    0.73
   8  -6   4   15.23    0.51
   8  -6   4   15.68    0.70
   8  -6   4   14.26    0.70
  -2   8   4   13.94    0.71
  -6  -2   4   15.30    0.69
   8  -6   4   14.85    0.71
  -2   8   4   14.18    0.65
   1  -8  -4    2.11    0.38
   1  -8  -4    2.20    0.35
   7   1  -4    2.63    0.30
  -8   7  -4    1.96    0.29
   7   1  -4    2.66    0.33
  -8   7  -4    2.40    0.34
  -8   7  -4    1.90    0.30
  -8   7  -4    2.10    0.32
   8  -7   4    2.12    0.32
  -1   8   4    2.07    0.31
  -1   8   4    1.94    0.29
   8  -7   4    2.24    0.20
  -1   8   4    2.35    0.34
  -7  -1   4    2.20    0.34
   8  -7   4    2.37    0.32
   8  -7   4    2.12    0.33
   8  -7   4    2.56    0.34
   8  -7   4    2.59    0.49
  -7  -1   4    1.96    0.29
  -1   8   4    2.14    0.34
  -8   8  -4    5.47    0.46
  -8   8  -4    5.64    0.45
   8   0  -4    6.09    0.44
  -8   8  -4    5.55    0.45
   8  -8   4    8.55    0.53
   0   8   4    8.29    0.55
   8  -8   4    8.31    0.54
   0   8   4    8.33    0.52
  -8   0   4    8.46    0.51
   8  -8   4    8.33    0.37
   8  -8   4    8.51    0.52
   8  -8   4    8.53    0.76
   0   8   4    7.87    0.52
   0   8   4    8.15    0.37
   0   8   4    8.73    0.53
  -8   0   4    7.93    0.55
   8  -8   4    8.58    0.53
  -1  -8  -4   11.90    0.70
  -8   9  -4   13.04    0.70
  -8   9  -4   12.28    0.66
  -1  -8  -4   12.52    0.85
   9  -1  -4   11.38    0.60
  -8   9  -4   11.31    0.64
  -8   9  -4   11.37    0.65
  -8   9  -4   12.29    0.62
   1   8   4   13.41    0.69
   1   8   4   13.19    0.51
   8  -9   4   12.62    0.50
   1   8   4   13.76    0.69
   1   8   4   12.00    0.68
  -9   1   4   12.69    0.63
   8  -9   4   13.52    0.70
   1   8   4   12.92    0.66
   8  -9   4   13.58    0.69
   8  -9   4   12.50    0.66
  -9   1   4   12.97    0.71
  -8  10  -4    3.36    0.41
  -8  10  -4    3.49    0.43
  -8  10  -4    3.79    0.39
  -8  10  -4    3.18    0.38
  -2  -8  -4    3.05    0.43
  10  -2  -4    3.57    0.40
  -8  10  -4    3.00    0.40
  -2  -8  -4    3.30    0.50
   8 -10   4    3.16    0.41
 -10   2   4    2.91    0.40
   2   8   4    2.92    0.39
   2   8   4    2.93    0.38
   8 -10   4    3.18    0.40
   2   8   4    2.90    0.26
   8 -10   4    3.08    0.39
   2   8   4    3.27    0.42
   8 -10   4    3.29    0.27
   2   8   4    2.84    0.39
  -8  11  -4   11.47    0.69
  -8  11  -4   11.10    0.62
  -8  11  -4   12.85    0.69
  11  -3  -4   11.90    0.63
  -8  11  -4   11.38    0.65
  -8  11  -4   11.33    0.67
   3   8   4   10.99    0.67
   3   8   4   12.01    0.54
   3   8   4   12.21    0.66
   8 -11   4   11.96    0.67
   8 -11   4   11.21    0.52
 -11   3   4   11.43    0.70
   8 -11   4   11.28    0.65
   3   8   4   11.98    0.70
   8 -11   4   12.67    0.69
   3   8   4   11.71    0.67
  -8  12  -4   23.23    0.97
  12  -4  -4   23.71    0.93
  -8  12  -4   23.46    0.93
  12  -4  -4   22.38    0.89
  -8  12  -4   23.47    1.00
  -8  12  -4   23.15    0.98
  -8  12  -4   23.28    1.02
   4   8   4   22.95    1.03
   4   8   4   23.03    0.95
   8 -12   4   21.14    0.95
 -12   4   4   21.41    1.01
   8 -12   4   22.17    0.96
   4   8   4   22.00    0.81
   4   8   4   21.93    0.97
   8 -12   4   23.29    0.99
   8 -12   4   21.93    0.79
   4   8   4   21.40    0.98
  -8  13  -4    2.64    0.39
  -8  13  -4    3.25    0.41
  -8  13  -4    3.43    0.46
  -8  13  -4    3.06    0.41
  13  -5  -4    3.14    0.43
  13  -5  -4    3.44    0.42
  13  -5  -4    3.41    0.42
  -8  13  -4    3.27    0.44
   5   8   4    3.19    0.44
   5   8   4    3.07    0.45
   5   8   4    3.53    0.44
 -13   5   4    3.28    0.46
   8 -13   4    3.07    0.31
   5   8   4    2.72    0.41
   5   8   4    3.09    0.31
   8 -13   4    2.68    0.40
   8 -13   4    2.40    0.39
  -8  14  -4    3.79    0.48
  14  -6  -4    4.05    0.46
  14  -6  -4    4.18    0.50
  -8  14  -4    3.74    0.48
  -8  14  -4    3.66    0.45
  -8  14  -4    3.84    0.47
  -8  14  -4    4.02    0.49
  14  -6  -4    4.26    0.47
   8 -14   4    4.27    0.50
   6   8   4    3.89    0.51
   6   8   4    3.57    0.48
   6   8   4    4.20    0.49
 -14   6   4    3.59    0.50
   8 -14   4    4.19    0.50
   6   8   4    4.03    0.49
   8 -14   4    3.59    0.34
  -8  15  -4   12.02    0.70
  -8  15  -4   13.29    0.76
  15  -7  -4   13.19    0.73
  -8  15  -4   12.30    0.76
  15  -7  -4   11.89    0.71
  -8  15  -4   12.13    0.77
   8 -15   4   12.15    0.64
   8 -15   4   10.82    0.70
   7   8   4   12.29    0.75
   7   8   4   13.04    0.82
 -15   7   4   11.98    0.80
   7   8   4   12.14    0.74
  -8  16  -4   23.31    1.04
  -8  16  -4   21.57    1.06
  16  -8  -4   20.80    0.98
  16  -8  -4   23.96    1.04
  -8  16  -4   22.20    1.05
 -16   8   4   19.20    1.07
   8   8   4   22.01    1.09
   8   8   4   22.09    1.03
   8 -16   4   20.39    0.99
   8 -16   4   20.44    0.89
   8   8   4   22.46    1.04
  16  -9  -4    3.71    0.48
  16  -9  -4    3.52    0.47
  -7  16  -4    3.91    0.51
  -7  16  -4    3.24    0.46
  -7  16  -4    3.26    0.47
   9   7   4    4.32    0.53
   9   7   4    3.79    0.53
   9   7   4    3.41    0.47
   7 -16   4    4.79    0.42
   7 -16   4    3.93    0.51
 -16   9   4    4.75    0.60
   9   7   4    3.41    0.40
  -6  15  -4   12.88    0.75
  15  -9  -4   12.78    0.74
  -6  15  -4   12.87    0.79
  15  -9  -4   12.59    0.72
  -6  15  -4   11.80    0.75
   9   6   4   11.52    0.62
   6 -15   4   12.69    0.77
   9   6   4   12.08    0.79
   6 -15   4   13.08    0.78
   9   6   4   13.06    0.81
   9   6   4   12.23    0.74
   6 -15   4   11.91    0.63
   9   6   4   11.87    0.73
 -15   9   4   12.28    0.81
  14  -9  -4    6.44    0.57
  14  -9  -4    6.24    0.52
  -5  14  -4    5.94    0.53
  -5  14  -4    7.01    0.55
  -5  14  -4    6.50    0.53
  14  -9  -4    6.38    0.51
   9   5   4    6.05    0.53
   5 -14   4    6.08    0.53
   9   5   4    5.76    0.54
   9   5   4    5.45    0.51
   9   5   4    5.97    0.43
 -14   9   4    6.24    0.56
   9   5   4    6.87    0.58
   9   5   4    6.28    0.58
   5 -14   4    5.72    0.51
  13  -9  -4    3.98    0.44
  -4  13  -4    4.29    0.45
  13  -9  -4    4.95    0.46
  -4  13  -4    4.70    0.46
  -4  13  -4    4.35    0.44
  13  -9  -4    3.95    0.49
   9   4   4    4.77    0.49
   9   4   4    4.43    0.52
   9   4   4    4.70    0.48
   9   4   4    4.48    0.51
   9   4   4    4.79    0.37
   4 -13   4    4.40    0.45
   9   4   4    3.74    0.46
 -13   9   4    4.39    0.52
   4 -13   4    4.00    0.48
  -3  12  -4   12.60    0.71
  -3  12  -4   12.81    0.71
  12  -9  -4   12.70    0.70
  -9  -3  -4   12.76    0.67
  12  -9  -4   12.42    0.75
  -3  12  -4   12.44    0.73
 -12   9   4   12.44    0.74
   9   3   4   13.23    0.75
   9   3   4   12.51    0.76
   3 -12   4   13.28    0.75
   9   3   4   13.73    0.73
   9   3   4   13.07    0.76
   9   3   4   13.68    0.60
   9   3   4   14.37    0.74
   3 -12   4   13.73    0.75
  -9  -2  -4    8.18    0.53
  -9  -2  -4    8.17    0.54
  -2  11  -4    7.28    0.54
  -2  11  -4    6.74    0.51
  -2  11  -4    6.65    0.51
  11  -9  -4    7.96    0.55
  11  -9  -4    7.89    0.58
   2 -11   4    8.86    0.58
   9   2   4    7.65    0.58
   2 -11   4    8.10    0.57
   9   2   4    7.61    0.43
   9   2   4    7.66    0.58
 -11   9   4    7.29    0.54
   9   2   4    8.05    0.56
   9   2   4    8.19    0.56
   9   2   4    8.54    0.59
  -9  -1  -4   14.26    0.69
  -1  10  -4   13.16    0.73
  -9  -1  -4   14.24    0.93
  -1  10  -4   13.90    0.71
  -9  -1  -4   13.72    0.69
  10  -9  -4   14.29    0.69
  10  -9  -4   14.00    0.75
  -1  10  -4   13.37    0.69
   9   1   4   12.15    0.73
   9   1   4   12.55    0.72
   1 -10   4   13.06    0.71
   9   1   4   13.31    0.70
   9   1   4   13.21    0.55
   9   1   4   13.40    0.70
 -10   9   4   13.71    0.69
   1 -10   4   13.46    0.72
   9   1   4   12.94    0.72
   0   9  -4   47.22    1.47
  -9   0  -4   48.80    1.48
   9  -9  -4   47.76    1.56
  -9   0  -4   48.98    1.96
   9  -9  -4   48.82    1.45
   0   9  -4   50.49    1.47
  -9   0  -4   49.91    1.45
   0   9  -4   48.67    1.56
  -9   9   4   49.09    1.45
   9   0   4   47.98    1.45
   9   0   4   48.34    1.27
   9   0   4   48.50    1.53
   0  -9   4   48.90    1.53
   9   0   4   47.61    1.46
   9   0   4   47.23    1.57
   9   0   4   53.05    1.57
   0  -9   4   49.03    1.51
  -9   1  -4   13.66    0.68
   1   8  -4   12.57    0.70
   8  -9  -4   13.46    0.72
  -9   1  -4   12.01    0.86
  -9   1  -4   12.73    0.64
   8  -9  -4   12.60    0.65
   1   8  -4   13.45    0.67
   1   8  -4   13.76    0.64
   9  -1   4   12.91    0.51
  -8   9   4   13.23    0.66
   9  -1   4   13.27    0.68
   9  -1   4   14.01    0.68
  -1  -8   4   12.24    0.67
   9  -1   4   13.19    0.71
  -1  -8   4   14.04    0.69
   9  -1   4   14.83    0.74
   9  -1   4   13.41    0.71
   2   7  -4   13.96    0.67
   2   7  -4   13.45    0.93
   7  -9  -4   13.54    0.66
   2   7  -4   13.88    0.73
  -9   2  -4   13.02    0.88
   7  -9  -4   14.58    0.74
  -9   2  -4   13.25    0.64
  -9   2  -4   14.11    0.67
   9  -2   4   12.90    0.69
   9  -2   4   12.78    0.68
   9  -2   4   12.33    0.65
  -7   9   4   12.23    0.63
  -2  -7   4   11.55    0.66
  -7   9   4   12.88    0.61
   9  -2   4   12.31    0.64
   9  -2   4   12.60    0.49
   9  -2   4   12.70    0.68
  -2  -7   4   13.00    0.66
  -2  -7   4   12.22    0.67
  -7   9   4   11.38    0.66
  -9   3  -4   41.78    1.70
   6  -9  -4   40.16    1.24
   6  -9  -4   40.46    1.35
   3   6  -4   41.36    1.77
   3   6  -4   41.32    1.25
  -9   3  -4   40.67    1.28
  -9   3  -4   41.20    1.23
   9  -3   4   37.19    1.80
   9  -3   4   37.47    1.29
   9  -3   4   37.97    1.27
  -6   9   4   38.10    1.19
   9  -3   4   38.23    1.20
  -3  -6   4   37.18    1.30
   9  -3   4   39.60    1.30
  -3  -6   4   37.19    1.27
  -6   9   4   37.53    1.20
   9  -3   4   38.41    1.24
  -6   9   4   37.72    1.31
   9  -3   4   39.13    1.29
   9  -3   4   37.55    1.02
  -9   4  -4   18.84    0.78
   5  -9  -4   19.14    0.88
   5  -9  -4   21.18    1.00
   4   5  -4   19.33    1.12
   5  -9  -4   19.51    0.82
  -9   4  -4   20.88    0.81
   4   5  -4   19.91    0.80
  -9   4  -4   18.26    0.82
   9  -4   4   19.86    0.82
   9  -4   4   20.70    0.86
   9  -4   4   19.59    0.84
   9  -4   4   20.67    1.23
  -4  -5   4   19.63    0.88
   9  -4   4   19.97    0.79
   9  -4   4   20.53    0.64
  -5   9   4   21.36    0.82
  -5   9   4   21.50    0.82
  -5   9   4   20.17    0.88
   9  -4   4   21.30    0.87
   9  -4   4   20.38    0.87
  -4  -5   4   21.44    0.87
   5   4  -4   21.12    1.14
   4  -9  -4   20.10    0.90
  -9   5  -4   20.76    0.87
   4  -9  -4   19.79    0.82
   4  -9  -4   20.45    1.02
  -9   5  -4   18.30    0.83
  -9   5  -4   19.21    0.78
   5   4  -4   19.22    0.79
  -9   5  -4   20.98    0.83
   9  -5   4   21.55    0.87
  -5  -4   4   20.39    0.89
   9  -5   4   20.44    0.87
   9  -5   4   21.31    0.80
   9  -5   4   21.84    0.87
   9  -5   4   20.93    0.88
   9  -5   4   22.10    1.26
   9  -5   4   20.57    0.64
  -5  -4   4   20.24    0.86
  -4   9   4   20.22    0.87
  -4   9   4   21.91    0.84
  -4   9   4   20.59    0.81
   9  -5   4   21.87    0.86
  -9   6  -4   42.10    1.29
  -9   6  -4   41.10    1.24
   6   3  -4   41.08    1.23
   6   3  -4   41.79    1.22
  -9   6  -4   41.75    1.32
   3  -9  -4   41.33    1.60
   6   3  -4   41.81    1.73
   3  -9  -4   41.11    1.38
   3  -9  -4   43.03    1.29
  -9   6  -4   41.72    1.32
   9  -6   4   38.23    1.25
   9  -6   4   38.39    1.29
   9  -6   4   40.27    1.85
   9  -6   4   40.11    1.29
   9  -6   4   38.37    1.29
  -3   9   4   38.86    1.34
  -6  -3   4   38.63    1.27
   9  -6   4   39.33    1.05
   9  -6   4   38.47    1.29
  -3   9   4   39.04    1.24
  -6  -3   4   37.82    1.33
  -3   9   4   40.64    1.28
   7   2  -4   12.81    0.63
  -9   7  -4   13.63    0.67
  -9   7  -4   14.18    0.70
   2  -9  -4   14.63    0.70
   2  -9  -4   13.73    0.85
  -9   7  -4   13.73    0.65
   2  -9  -4   13.60    0.73
  -9   7  -4   13.53    0.69
   9  -7   4   12.25    0.64
   9  -7   4   11.47    0.64
   9  -7   4   12.76    0.50
  -7  -2   4   12.46    0.65
   9  -7   4   12.27    0.67
  -2   9   4   11.68    0.67
  -7  -2   4   12.79    0.69
   9  -7   4   12.55    0.66
  -2   9   4   13.12    0.67
  -2   9   4   13.57    0.65
  -9   8  -4   12.30    0.65
  -9   8  -4   11.63    0.65
  -9   8  -4   13.02    0.69
   1  -9  -4   12.18    0.70
   1  -9  -4   11.98    0.82
   8   1  -4   12.63    0.63
  -9   8  -4   12.73    0.64
   9  -8   4   13.09    0.70
   9  -8   4   13.49    0.68
  -8  -1   4   13.60    0.67
  -1   9   4   13.48    0.69
   9  -8   4   12.75    0.51
  -1   9   4   12.91    0.70
  -1   9   4   14.18    0.67
   9  -8   4   12.89    0.67
  -1   9   4   13.74    0.67
  -8  -1   4   13.46    0.72
   9  -8   4   13.14    0.68
  -9   9  -4   51.99    1.48
  -9   9  -4   47.21    1.53
   0  -9  -4   51.95    1.65
  -9   9  -4   49.26    1.53
   9   0  -4   49.39    1.43
  -9   9  -4   49.24    1.52
   0  -9  -4   48.10    1.91
  -9   0   4   49.78    1.60
   9  -9   4   50.02    1.54
  -9   0   4   50.85    1.51
   9  -9   4   49.12    1.53
   0   9   4   49.04    1.58
   9  -9   4   49.85    1.53
   0   9   4   49.22    1.50
   0   9   4   48.86    1.46
   0   9   4   48.70    1.50
   9  -9   4   49.13    1.28
  -9  10  -4   14.41    0.74
  -9  10  -4   13.40    0.71
  -9  10  -4   13.90    0.74
  -1  -9  -4   13.33    0.75
  -9  10  -4   14.02    0.73
  10  -1  -4   13.67    0.67
  -9  10  -4   13.67    0.68
  -1  -9  -4   13.44    0.89
   9 -10   4   13.95    0.73
   1   9   4   12.83    0.70
   1   9   4   13.60    0.74
   9 -10   4   12.87    0.70
   9 -10   4   13.68    0.56
 -10   1   4   12.57    0.72
   9 -10   4   12.74    0.70
   1   9   4   12.36    0.68
   1   9   4   12.41    0.67
 -10   1   4   12.83    0.67
  -9  11  -4    8.83    0.60
  -9  11  -4    8.24    0.57
  -9  11  -4    7.86    0.56
  -2  -9  -4    7.80    0.60
  11  -2  -4    8.10    0.54
  -9  11  -4    7.97    0.57
  -9  11  -4    8.45    0.55
   9 -11   4    9.12    0.59
   9 -11   4    8.73    0.57
   9 -11   4    9.45    0.60
   2   9   4    9.07    0.61
   9 -11   4    8.83    0.46
   2   9   4    8.64    0.57
   2   9   4    9.53    0.61
 -11   2   4    9.56    0.63
   2   9   4    9.74    0.61
  -9  12  -4   12.68    0.73
  -9  12  -4   12.32    0.74
  -3  -9  -4   13.41    0.79
  -9  12  -4   12.15    0.70
  12  -3  -4   12.76    0.69
  -9  12  -4   12.83    0.73
  -9  12  -4   12.19    0.69
   3   9   4   12.97    0.75
   9 -12   4   14.51    0.77
   3   9   4   14.53    0.79
   3   9   4   14.36    0.73
   9 -12   4   13.76    0.61
   9 -12   4   13.84    0.74
 -12   3   4   14.61    0.81
   9 -12   4   12.50    0.72
   3   9   4   14.07    0.76
  -9  13  -4    4.10    0.48
  -9  13  -4    3.48    0.45
  -9  13  -4    4.06    0.41
  13  -4  -4    3.77    0.44
  -4  -9  -4    3.98    0.52
  -9  13  -4    4.28    0.44
  -9  13  -4    3.38    0.45
   4   9   4    3.41    0.45
 -13   4   4    4.16    0.52
   9 -13   4    4.41    0.45
   9 -13   4    3.88    0.34
   9 -13   4    4.22    0.49
   4   9   4    3.91    0.49
   4   9   4    4.33    0.48
   4   9   4    3.79    0.48
  -9  14  -4    7.05    0.56
  14  -5  -4    6.26    0.50
  -9  14  -4    6.67    0.57
  14  -5  -4    7.30    0.55
  -9  14  -4    6.61    0.54
  -9  14  -4    6.61    0.53
  -9  14  -4    6.39    0.53
   5   9   4    6.43    0.53
   9 -14   4    6.42    0.45
 -14   5   4    5.74    0.56
   5   9   4    6.54    0.57
   5   9   4    6.46    0.57
   9 -14   4    6.09    0.53
   9 -14   4    5.93    0.53
   5   9   4    5.86    0.53
  -9  15  -4   13.42    0.79
  15  -6  -4   13.08    0.79
  -9  15  -4   13.61    0.79
  15  -6  -4   13.16    0.75
  -9  15  -4   13.44    0.75
  15  -6  -4   12.89    0.72
  -9  15  -4   13.84    0.78
  -9  15  -4   12.81    0.79
   9 -15   4   13.31    0.77
 -15   6   4   13.02    0.84
   9 -15   4   13.07    0.67
   6   9   4   12.77    0.82
   6   9   4   13.62    0.80
   9 -15   4   13.22    0.77
   6   9   4   13.49    0.78
  -9  16  -4    3.94    0.50
  -9  16  -4    3.59    0.47
  16  -7  -4    3.39    0.46
  -9  16  -4    3.79    0.51
  -9  16  -4    3.68    0.50
  16  -7  -4    3.70    0.48
   7   9   4    4.81    0.54
   7   9   4    4.30    0.57
   9 -16   4    4.37    0.41
 -16   7   4    3.75    0.54
   7   9   4    4.22    0.52
   9 -16   4    4.16    0.52
  -6  16  -4    1.78    0.36
  -6  16  -4    1.62    0.37
  16 -10  -4    2.04    0.38
  -6  16  -4    1.88    0.38
  16 -10  -4    1.23    0.32
  10   6   4    1.65    0.36
   6 -16   4    1.83    0.32
  10   6   4    2.30    0.44
  10   6   4    2.10    0.40
  10   6   4    1.62    0.39
   6 -16   4    2.15    0.40
 -16  10   4    1.90    0.42
  10   6   4    2.19    0.34
  -5  15  -4    2.95    0.44
  -5  15  -4    3.38    0.46
  15 -10  -4    2.93    0.43
  15 -10  -4    2.95    0.42
  -5  15  -4    3.25    0.46
   5 -15   4    3.35    0.35
 -15  10   4    2.88    0.47
  10   5   4    3.20    0.46
   5 -15   4    3.15    0.45
  10   5   4    3.32    0.50
  10   5   4    3.65    0.51
   5 -15   4    3.37    0.47
  10   5   4    3.62    0.36
  10   5   4    3.75    0.49
  14 -10  -4    1.81    0.33
  14 -10  -4    1.66    0.34
  14 -10  -4    1.99    0.39
 -10  -4  -4    2.41    0.37
  -4  14  -4    1.90    0.36
  -4  14  -4    2.29    0.38
  -4  14  -4    1.57    0.33
  10   4   4    1.41    0.27
  10   4   4    1.67    0.36
   4 -14   4    2.16    0.37
  10   4   4    1.73    0.37
  10   4   4    1.73    0.37
   4 -14   4    1.79    0.36
  10   4   4    1.71    0.35
 -14  10   4    2.14    0.39
  10   4   4    1.84    0.37
 -10  -3  -4    5.14    0.46
 -10  -3  -4    5.33    0.46
  -3  13  -4    4.41    0.51
  13 -10  -4    5.39    0.50
  13 -10  -4    4.72    0.47
  -3  13  -4    4.91    0.47
  -3  13  -4    5.05    0.48
  10   3   4    4.45    0.38
  10   3   4    5.14    0.51
  10   3   4    4.37    0.53
  10   3   4    4.76    0.47
  10   3   4    5.17    0.55
 -13  10   4    4.36    0.51
   3 -13   4    4.92    0.48
  10   3   4    5.48    0.53
  -2  12  -4    7.59    0.55
 -10  -2  -4    7.49    0.54
  12 -10  -4    6.67    0.57
  12 -10  -4    8.10    0.57
  -2  12  -4    7.64    0.56
 -10  -2  -4    7.34    0.53
  -2  12  -4    7.57    0.57
   2 -12   4    8.14    0.58
  10   2   4    8.29    0.57
  10   2   4    8.11    0.60
  10   2   4    7.52    0.45
  10   2   4    6.75    0.57
  10   2   4    7.91    0.58
   2 -12   4    8.10    0.59
  10   2   4    7.34    0.58
  11 -10  -4    4.09    0.50
 -10  -1  -4    4.26    0.41
  -1  11  -4    4.46    0.44
  11 -10  -4    4.19    0.42
 -10  -1  -4    4.21    0.41
  -1  11  -4    3.50    0.43
  -1  11  -4    4.24    0.42
   1 -11   4    4.13    0.42
  10   1   4    3.92    0.32
   1 -11   4    3.72    0.46
  10   1   4    4.01    0.45
  10   1   4    3.95    0.48
  10   1   4    4.48    0.44
  10   1   4    4.20    0.50
 -11  10   4    3.74    0.44
  10   1   4    4.30    0.50
 -10   0  -4   11.85    0.66
 -10   0  -4   12.32    0.65
   0  10  -4   12.02    0.67
   0  10  -4   11.52    0.68
  10 -10  -4   11.99    0.66
   0  10  -4   11.99    0.65
  10 -10  -4   11.96    0.70
 -10   0  -4   11.70    0.86
  10   0   4   11.36    0.53
  10   0   4   11.13    0.70
  10   0   4   11.18    0.67
   0 -10   4   12.01    0.69
 -10  10   4   12.10    0.67
  10   0   4   12.88    0.69
   0 -10   4   13.00    0.70
  10   0   4   11.58    0.66
  10   0   4   12.68    0.72
 -10   1  -4   14.07    0.93
 -10   1  -4   13.72    0.67
   1   9  -4   13.66    0.74
 -10   1  -4   14.68    0.73
   1   9  -4   14.11    0.71
   9 -10  -4   13.32    0.75
   9 -10  -4   13.78    0.70
   1   9  -4   14.54    0.69
  10  -1   4   13.45    0.70
  -1  -9   4   13.47    0.72
  -1  -9   4   13.35    0.70
  -9  10   4   12.65    0.68
  10  -1   4   13.09    0.55
  10  -1   4   13.54    0.73
  10  -1   4   12.81    0.69
  10  -1   4   12.25    0.72
  10  -1   4   12.24    0.73
   2   8  -4    2.79    0.38
   8 -10  -4    3.27    0.43
   8 -10  -4    3.08    0.38
   2   8  -4    3.21    0.37
 -10   2  -4    3.71    0.37
 -10   2  -4    2.75    0.37
 -10   2  -4    3.31    0.52
   2   8  -4    3.70    0.38
  -8  10   4    3.35    0.43
  -8  10   4    3.34    0.41
  10  -2   4    2.62    0.37
  10  -2   4    3.09    0.42
  10  -2   4    3.17    0.27
  10  -2   4    2.58    0.37
  10  -2   4    3.32    0.43
  -2  -8   4    3.35    0.42
  10  -2   4    2.91    0.40
   7 -10  -4    4.57    0.44
 -10   3  -4    4.46    0.41
   3   7  -4    5.00    0.42
 -10   3  -4    4.67    0.40
   7 -10  -4    5.09    0.43
 -10   3  -4    4.93    0.56
  10  -3   4    4.39    0.43
  -3  -7   4    4.47    0.43
  10  -3   4    4.62    0.42
  -3  -7   4    4.66    0.44
  -7  10   4    5.01    0.43
  -7  10   4    4.96    0.45
  10  -3   4    4.66    0.45
  -7  10   4    5.22    0.42
  10  -3   4    4.55    0.42
  10  -3   4    4.49    0.31
  10  -3   4    4.14    0.40
 -10   4  -4    3.58    0.54
   6 -10  -4    3.61    0.41
 -10   4  -4    3.33    0.39
 -10   4  -4    3.77    0.37
   4   6  -4    3.88    0.38
   6 -10  -4    3.68    0.45
  -6  10   4    4.61    0.43
  -6  10   4    4.64    0.42
  10  -4   4    4.06    0.39
  10  -4   4    4.85    0.44
  -4  -6   4    4.44    0.42
  10  -4   4    3.87    0.39
  10  -4   4    5.34    0.45
  10  -4   4    4.68    0.41
  10  -4   4    4.78    0.31
  10  -4   4    4.49    0.43
  -4  -6   4    4.21    0.41
  -6  10   4    4.86    0.40
   5   5  -4    1.09    0.24
 -10   5  -4    0.93    0.23
 -10   5  -4    1.21    0.25
   5 -10  -4    1.37    0.28
 -10   5  -4    1.92    0.32
   5 -10  -4    1.10    0.25
   5   5  -4    1.17    0.34
 -10   5  -4    1.29    0.28
   5 -10  -4    1.34    0.31
  -5  10   4    1.47    0.28
  10  -5   4    1.49    0.29
  10  -5   4    1.52    0.21
  10  -5   4    1.41    0.28
  -5  -5   4    1.51    0.30
  -5  10   4    1.44    0.28
  10  -5   4    1.31    0.27
  10  -5   4    1.66    0.30
  10  -5   4    1.21    0.28
  -5  10   4    1.34    0.26
  -5  -5   4    1.46    0.29
  10  -5   4    0.89    0.25
   4 -10  -4    3.54    0.44
   6   4  -4    3.49    0.39
   4 -10  -4    3.41    0.40
 -10   6  -4    3.31    0.41
 -10   6  -4    3.68    0.37
 -10   6  -4    3.60    0.38
   6   4  -4    3.56    0.48
 -10   6  -4    3.32    0.38
   4 -10  -4    3.58    0.44
  10  -6   4    3.97    0.39
  -4  10   4    4.38    0.41
  -6  -4   4    4.53    0.42
  10  -6   4    4.75    0.43
  -4  10   4    4.37    0.40
  10  -6   4    3.79    0.38
  -4  10   4    4.21    0.40
  10  -6   4    4.88    0.43
  10  -6   4    4.93    0.44
  10  -6   4    4.40    0.30
  -6  -4   4    4.79    0.44
  10  -6   4    3.97    0.39
   7   3  -4    4.17    0.39
 -10   7  -4    4.92    0.41
   7   3  -4    4.75    0.54
   3 -10  -4    4.77    0.42
 -10   7  -4    4.52    0.42
 -10   7  -4    4.41    0.41
   3 -10  -4    4.16    0.41
   7   3  -4    4.38    0.38
 -10   7  -4    4.66    0.44
   3 -10  -4    5.18    0.53
  10  -7   4    4.29    0.30
  10  -7   4    4.35    0.42
  -7  -3   4    4.21    0.41
  -3  10   4    3.77    0.40
  -3  10   4    4.65    0.42
  10  -7   4    4.05    0.40
  -7  -3   4    4.57    0.43
  -3  10   4    4.51    0.42
  10  -7   4    4.73    0.43
  10  -7   4    4.59    0.42
   2 -10  -4    3.71    0.47
 -10   8  -4    3.07    0.39
 -10   8  -4    3.85    0.37
   8   2  -4    3.83    0.37
   8   2  -4    3.56    0.34
 -10   8  -4    3.15    0.40
   2 -10  -4    2.92    0.41
   2 -10  -4    3.82    0.44
 -10   8  -4    3.49    0.41
  10  -8   4    3.09    0.39
  10  -8   4    4.34    0.41
  -2  10   4    2.47    0.37
  -8  -2   4    2.89    0.40
  -8  -2   4    3.60    0.42
  10  -8   4    2.56    0.38
  -2  10   4    2.94    0.37
  -2  10   4    3.43    0.42
  10  -8   4    3.09    0.39
  10  -8   4    3.30    0.27
   9   1  -4   14.06    0.68
   1 -10  -4   13.46    0.90
 -10   9  -4   14.47    0.74
   1 -10  -4   14.28    0.77
 -10   9  -4   14.08    0.69
 -10   9  -4   14.13    0.73
 -10   9  -4   14.45    0.75
  10  -9   4   13.38    0.71
  10  -9   4   13.62    0.73
  10  -9   4   12.80    0.69
  10  -9   4   13.83    0.72
  -1  10   4   12.88    0.69
  -1  10   4   13.55    0.69
  -9  -1   4   12.65    0.69
  -9  -1   4   14.04    0.76
  -1  10   4   12.67    0.70
  -1  10   4   12.87    0.73
  10  -9   4   13.18    0.56
 -10  10  -4   12.48    0.69
 -10  10  -4   11.63    0.68
   0 -10  -4   12.48    0.74
 -10  10  -4   12.10    0.65
 -10  10  -4   11.56    0.67
  10   0  -4   11.60    0.64
 -10   0   4   12.04    0.72
   0  10   4   11.89    0.68
  10 -10   4   11.22    0.53
 -10   0   4   11.98    0.67
   0  10   4   12.25    0.69
  10 -10   4   13.14    0.72
  10 -10   4   12.47    0.69
   0  10   4   12.09    0.66
   0  10   4   11.90    0.70
  10 -10   4   11.82    0.68
 -10  11  -4    4.79    0.43
 -10  11  -4    4.60    0.44
 -10  11  -4    4.16    0.43
 -10  11  -4    5.24    0.47
 -10  11  -4    4.32    0.44
  -1 -10  -4    4.08    0.50
  11  -1  -4    4.46    0.42
 -11   1   4    4.52    0.45
   1  10   4    4.39    0.43
   1  10   4    3.63    0.45
   1  10   4    3.63    0.45
  10 -11   4    4.09    0.33
   1  10   4    3.65    0.46
  10 -11   4    3.98    0.47
  10 -11   4    3.64    0.44
  10 -11   4    3.91    0.47
 -10  12  -4    7.56    0.58
  -2 -10  -4    7.21    0.58
  12  -2  -4    7.53    0.54
 -10  12  -4    8.31    0.56
 -10  12  -4    6.87    0.55
 -10  12  -4    7.04    0.55
 -10  12  -4    7.96    0.58
  10 -12   4    8.06    0.58
   2  10   4    7.96    0.59
   2  10   4    8.13    0.60
   2  10   4    7.58    0.56
   2  10   4    8.15    0.58
  10 -12   4    7.85    0.58
  10 -12   4    8.10    0.58
 -12   2   4    7.81    0.61
  10 -12   4    7.97    0.46
  13  -3  -4    5.08    0.46
  -3 -10  -4    5.70    0.53
 -10  13  -4    4.68    0.45
 -10  13  -4    4.58    0.46
 -10  13  -4    5.02    0.48
 -10  13  -4    4.75    0.47
 -10  13  -4    5.15    0.50
  10 -13   4    4.81    0.47
   3  10   4    4.89    0.47
 -13   3   4    3.91    0.51
   3  10   4    4.47    0.47
   3  10   4    4.69    0.47
  10 -13   4    4.84    0.48
   3  10   4    4.46    0.53
  10 -13   4    5.27    0.49
  10 -13   4    4.50    0.37
 -10  14  -4    2.10    0.37
  -4 -10  -4    2.03    0.40
  14  -4  -4    1.43    0.32
 -10  14  -4    2.18    0.38
 -10  14  -4    1.89    0.35
 -10  14  -4    1.84    0.35
 -10  14  -4    1.38    0.33
  10 -14   4    1.79    0.35
  10 -14   4    1.94    0.30
   4  10   4    1.94    0.35
 -14   4   4    1.51    0.36
  10 -14   4    1.83    0.36
   4  10   4    1.86    0.36
   4  10   4    1.45    0.34
   4  10   4    1.87    0.38
 -10  15  -4    2.19    0.40
  15  -5  -4    2.75    0.41
 -10  15  -4    2.97    0.43
 -10  15  -4    2.71    0.43
 -10  15  -4    2.70    0.43
 -10  15  -4    2.35    0.40
  10 -15   4    3.69    0.48
  10 -15   4    3.60    0.47
 -15   5   4    3.71    0.52
  10 -15   4    3.04    0.38
   5  10   4    3.83    0.52
   5  10   4    3.40    0.45
   5  10   4    3.26    0.47
  16  -6  -4    1.95    0.37
 -10  16  -4    1.80    0.38
 -10  16  -4    1.69    0.35
  16  -6  -4    1.75    0.35
 -10  16  -4    1.82    0.38
   6  10   4    1.81    0.36
  10 -16   4    1.99    0.33
   6  10   4    1.84    0.40
   6  10   4    1.70    0.38
  16 -11  -4    0.59    0.27
  16 -11  -4    0.58    0.25
  -5  16  -4    0.87    0.28
  -5  16  -4    0.64    0.27
  -5  16  -4    1.15    0.32
  11   5   4    0.78    0.23
  11   5   4    0.75    0.29
   5 -16   4    0.84    0.24
  11   5   4    1.13    0.35
 -16  11   4    1.08    0.33
  11   5   4    1.07    0.34
  15 -11  -4   12.82    0.76
  -4  15  -4   11.54    0.74
  -4  15  -4   13.17    0.78
 -11  -4  -4   12.53    0.72
  -4  15  -4   11.91    0.73
   4 -15   4   11.77    0.75
  11   4   4   12.85    0.81
  11   4   4   11.74    0.73
  11   4   4   11.96    0.79
  11   4   4   11.67    0.75
 -15  11   4   10.68    0.76
  11   4   4   11.84    0.63
  -3  14  -4   12.39    0.76
  -3  14  -4   12.27    0.74
 -11  -3  -4   12.14    0.70
  -3  14  -4   12.90    0.75
 -11  -3  -4   12.07    0.71
  14 -11  -4   12.83    0.75
  11   3   4   12.91    0.76
  11   3   4   12.30    0.73
  11   3   4   11.25    0.76
  11   3   4   11.53    0.61
  11   3   4   11.50    0.76
   3 -14   4   12.10    0.76
 -11  -2  -4    2.23    0.36
  -2  13  -4    1.75    0.34
  -2  13  -4    2.62    0.40
  13 -11  -4    1.77    0.34
  13 -11  -4    2.30    0.40
  -2  13  -4    1.61    0.34
 -11  -2  -4    2.31    0.37
  11   2   4    2.82    0.41
  11   2   4    2.32    0.41
  11   2   4    2.41    0.40
   2 -13   4    2.56    0.40
  11   2   4    1.71    0.36
  11   2   4    2.43    0.40
  11   2   4    2.61    0.33
  12 -11  -4   14.96    0.85
  12 -11  -4   15.93    0.80
 -11  -1  -4   15.55    0.79
 -11  -1  -4   16.00    0.77
  -1  12  -4   15.14    0.78
  -1  12  -4   14.28    0.77
  -1  12  -4   14.99    0.80
  11   1   4   13.29    0.79
   1 -12   4   13.35    0.78
  11   1   4   13.88    0.64
  11   1   4   16.57    0.87
  11   1   4   13.33    0.81
  11   1   4   14.04    0.77
  11   1   4   14.70    0.77
   0  11  -4   13.61    0.71
   0  11  -4   13.18    0.73
  11 -11  -4   13.99    0.73
   0  11  -4   14.20    0.77
  11 -11  -4   13.07    0.76
 -11   0  -4   12.44    0.70
 -11   0  -4   13.25    0.70
 -11  11   4   12.41    0.70
   0 -11   4   13.43    0.76
  11   0   4   11.09    0.73
  11   0   4   11.16    0.56
  11   0   4   10.90    0.67
  11   0   4   11.13    0.67
  11   0   4   11.38    0.72
  11   0   4   11.96    0.72
   1  10  -4    3.92    0.40
 -11   1  -4    4.17    0.40
 -11   1  -4    4.39    0.43
  10 -11  -4    4.16    0.45
   1  10  -4    4.59    0.45
   1  10  -4    4.55    0.44
  10 -11  -4    3.89    0.45
  11  -1   4    4.22    0.50
 -10  11   4    4.51    0.44
  -1 -10   4    3.44    0.44
  11  -1   4    4.52    0.43
  11  -1   4    3.27    0.45
  11  -1   4    3.64    0.45
  11  -1   4    3.82    0.45
  11  -1   4    3.54    0.32
   2   9  -4    7.77    0.55
   9 -11  -4    8.16    0.55
   9 -11  -4    7.66    0.58
 -11   2  -4    8.07    0.54
   2   9  -4    8.36    0.59
 -11   2  -4    7.61    0.55
   2   9  -4    7.74    0.51
  11  -2   4    7.64    0.55
  11  -2   4    7.52    0.55
  11  -2   4    7.56    0.56
  11  -2   4    8.21    0.60
  11  -2   4    8.51    0.45
  -9  11   4    8.72    0.57
  11  -2   4    8.50    0.60
  -2  -9   4    8.23    0.58
 -11   3  -4   10.66    0.61
   8 -11  -4   10.46    0.62
 -11   3  -4   11.10    0.65
   3   8  -4   12.15    0.70
 -11   3  -4   12.07    0.88
   8 -11  -4   10.96    0.69
   3   8  -4   11.13    0.64
  -8  11   4   10.67    0.63
  11  -3   4   12.14    0.69
  11  -3   4   11.67    0.65
  -3  -8   4   10.88    0.66
  11  -3   4   11.22    0.68
  11  -3   4   11.00    0.51
  -8  11   4   11.58    0.69
  -3  -8   4   10.21    0.64
  11  -3   4   10.63    0.67
  -8  11   4   11.53    0.64
  11  -3   4   11.48    0.64
   7 -11  -4    1.09    0.27
   4   7  -4    1.02    0.25
 -11   4  -4    0.63    0.23
   7 -11  -4    0.58    0.24
 -11   4  -4    0.65    0.22
 -11   4  -4    0.71    0.30
  11  -4   4    0.84    0.25
  11  -4   4    0.56    0.24
  -4  -7   4    0.58    0.23
  11  -4   4    0.66    0.24
  11  -4   4    0.70    0.23
  -7  11   4    0.73    0.24
  11  -4   4    0.99    0.19
  -4  -7   4    0.74    0.25
  -7  11   4    0.68    0.23
  11  -4   4    0.63    0.22
  -7  11   4    0.64    0.22
   6 -11  -4   15.63    0.82
 -11   5  -4   16.30    0.79
 -11   5  -4   16.12    0.74
   5   6  -4   16.47    0.76
 -11   5  -4   16.36    0.80
   6 -11  -4   16.42    0.77
  -6  11   4   17.80    0.79
  11  -5   4   16.82    0.77
  -5  -6   4   16.93    0.84
  -5  -6   4   15.63    0.80
  -6  11   4   16.32    0.82
  11  -5   4   15.93    0.79
  11  -5   4   15.82    0.73
  11  -5   4   16.61    0.64
  -6  11   4   16.10    0.77
  11  -5   4   17.05    0.81
  11  -5   4   16.04    0.82
  11  -5   4   16.94    0.83
  11  -5   4   17.16    0.79
 -11   6  -4   16.14    0.79
 -11   6  -4   16.20    0.75
 -11   6  -4   16.66    0.77
   5 -11  -4   15.31    0.74
   5 -11  -4   16.09    0.82
 -11   6  -4   17.20    0.81
   6   5  -4   16.79    0.76
   5 -11  -4   16.05    0.94
  11  -6   4   16.49    0.82
  -5  11   4   16.63    0.76
  -5  11   4   16.87    0.84
  11  -6   4   16.16    0.63
  11  -6   4   15.67    0.78
  -5  11   4   16.44    0.78
  11  -6   4   16.01    0.75
  11  -6   4   16.44    0.81
  -6  -5   4   15.48    0.78
  11  -6   4   16.56    0.79
  -6  -5   4   15.96    0.81
  11  -6   4   16.38    0.78
 -11   7  -4    0.58    0.23
 -11   7  -4    0.65    0.22
   4 -11  -4    0.41    0.21
   7   4  -4    0.77    0.23
 -11   7  -4    0.81    0.23
 -11   7  -4    0.75    0.23
   4 -11  -4    0.70    0.23
   4 -11  -4    0.74    0.28
   7   4  -4    0.71    0.21
  11  -7   4    0.67    0.17
  -4  11   4    0.51    0.21
  -4  11   4    0.59    0.23
  11  -7   4    0.53    0.21
  -4  11   4    0.71    0.22
  11  -7   4    0.52    0.23
  11  -7   4    0.72    0.23
  11  -7   4    0.61    0.23
  -7  -4   4    0.54    0.23
  11  -7   4    0.59    0.21
  -7  -4   4    0.60    0.22
   8   3  -4   11.34    0.62
 -11   8  -4   11.84    0.67
   3 -11  -4   11.05    0.65
 -11   8  -4   12.07    0.68
   8   3  -4   11.85    0.63
   3 -11  -4   11.32    0.70
 -11   8  -4   11.43    0.64
   3 -11  -4   11.84    0.83
 -11   8  -4   11.04    0.66
  -3  11   4   11.50    0.67
  11  -8   4   11.59    0.68
  11  -8   4   12.95    0.70
  11  -8   4   12.57    0.68
  11  -8   4   11.60    0.67
  -8  -3   4   12.06    0.72
  11  -8   4   12.24    0.54
  -8  -3   4   11.12    0.66
  -3  11   4   12.59    0.66
   2 -11  -4    8.36    0.61
 -11   9  -4    8.14    0.57
 -11   9  -4    7.99    0.57
   2 -11  -4    8.64    0.58
 -11   9  -4    7.85    0.54
   9   2  -4    9.05    0.56
 -11   9  -4    8.64    0.60
  -2  11   4   10.03    0.60
  11  -9   4    8.11    0.45
  11  -9   4    9.30    0.61
  11  -9   4    9.71    0.62
  -9  -2   4    9.00    0.59
  -2  11   4    9.23    0.62
  11  -9   4    8.76    0.58
  -2  11   4    8.65    0.59
  -9  -2   4    9.03    0.63
  11  -9   4    8.74    0.58
   1 -11  -4    4.43    0.43
 -11  10  -4    3.93    0.45
   1 -11  -4    4.20    0.50
  10   1  -4    4.31    0.41
 -11  10  -4    4.29    0.43
 -11  10  -4    4.85    0.45
 -11  10  -4    4.11    0.49
  11 -10   4    3.98    0.33
  11 -10   4    4.38    0.44
 -10  -1   4    4.08    0.47
  -1  11   4    3.84    0.47
  -1  11   4    4.76    0.44
  11 -10   4    3.87    0.47
  -1  11   4    4.22    0.49
 -10  -1   4    3.91    0.49
  -1  11   4    3.76    0.46
  11 -10   4    4.28    0.49
   0 -11  -4   12.90    0.76
  11   0  -4   13.27    0.69
 -11  11  -4   13.05    0.73
 -11  11  -4   14.22    0.75
 -11  11  -4   13.72    0.75
 -11  11  -4   12.96    0.76
 -11  11  -4   13.05    0.70
  11 -11   4   12.04    0.71
   0  11   4   12.70    0.73
  11 -11   4   12.45    0.73
   0  11   4   12.48    0.69
  11 -11   4   12.97    0.73
 -11   0   4   11.47    0.69
   0  11   4   11.22    0.69
 -11   0   4   11.35    0.73
  11 -11   4   12.10    0.58
   0  11   4   12.75    0.75
  12  -1  -4   14.65    0.75
  -1 -11  -4   15.36    0.86
 -11  12  -4   15.12    0.80
 -11  12  -4   15.80    0.79
 -11  12  -4   15.68    0.82
 -11  12  -4   15.12    0.84
 -11  12  -4   15.33    0.80
   1  11   4   14.77    0.82
   1  11   4   14.95    0.77
   1  11   4   15.12    0.82
   1  11   4   14.42    0.80
 -12   1   4   14.37    0.83
  11 -12   4   14.62    0.80
  11 -12   4   14.92    0.80
  11 -12   4   14.85    0.80
  11 -12   4   14.87    0.66
 -11  13  -4    2.12    0.37
  13  -2  -4    2.59    0.39
 -11  13  -4    1.90    0.35
 -11  13  -4    2.79    0.41
 -11  13  -4    2.04    0.36
 -11  13  -4    1.96    0.38
  -2 -11  -4    2.30    0.41
   2  11   4    2.52    0.41
   2  11   4    2.24    0.39
  11 -13   4    2.57    0.40
   2  11   4    2.33    0.38
  11 -13   4    2.32    0.32
 -13   2   4    2.69    0.44
  11 -13   4    2.15    0.38
  11 -13   4    2.56    0.40
   2  11   4    2.46    0.41
 -11  14  -4   11.46    0.71
 -11  14  -4   11.68    0.72
 -11  14  -4   11.68    0.71
  14  -3  -4   10.87    0.69
 -11  14  -4   12.54    0.79
 -11  14  -4   10.98    0.69
  -3 -11  -4   12.45    0.79
   3  11   4   10.74    0.73
   3  11   4   11.52    0.73
   3  11   4   11.60    0.74
 -14   3   4   10.89    0.77
   3  11   4   11.66    0.71
  11 -14   4   11.18    0.71
  11 -14   4   11.67    0.72
  11 -14   4   11.50    0.62
 -11  15  -4   13.06    0.82
 -11  15  -4   13.29    0.77
 -11  15  -4   12.27    0.73
  15  -4  -4   12.61    0.74
 -11  15  -4   12.62    0.74
 -11  15  -4   12.43    0.77
  11 -15   4   12.81    0.77
   4  11   4   12.31    0.80
  11 -15   4   12.40    0.76
   4  11   4   11.80    0.76
 -15   4   4   12.72    0.84
  11 -15   4   12.35    0.66
   4  11   4   11.99    0.74
 -11  16  -4    1.02    0.30
 -11  16  -4    0.94    0.30
  16  -5  -4    0.76    0.27
  11 -16   4    0.71    0.24
   5  11   4    0.87    0.28
   5  11   4    1.15    0.34
   5  11   4    1.17    0.33
  -4  16  -4    0.53    0.26
  16 -12  -4    0.43    0.26
  -4  16  -4    0.68    0.27
  12   4   4    1.17    0.35
  12   4   4    0.92    0.31
  12   4   4    1.18    0.36
  -3  15  -4   13.86    0.82
  15 -12  -4   13.26    0.80
  -3  15  -4   12.73    0.79
 -12  -3  -4   15.03    0.79
 -12  -3  -4   14.20    0.81
  -3  15  -4   14.02    0.82
   3 -15   4   13.46    0.82
  12   3   4   13.10    0.86
  12   3   4   14.78    0.87
  12   3   4   13.30    0.82
  12   3   4   13.41    0.69
  12   3   4   15.24    0.82
 -12  -2  -4    9.22    0.64
  -2  14  -4    9.30    0.67
 -12  -2  -4    9.45    0.63
  -2  14  -4    9.50    0.66
  -2  14  -4    9.84    0.67
  14 -12  -4    9.07    0.64
  12   2   4    9.04    0.66
   2 -14   4    9.63    0.68
  12   2   4    9.54    0.56
  12   2   4    8.85    0.64
  12   2   4    8.92    0.68
  12   2   4   10.38    0.73
  13 -12  -4    4.34    0.51
  -1  13  -4    4.51    0.46
  13 -12  -4    4.69    0.50
 -12  -1  -4    4.93    0.47
  -1  13  -4    5.71    0.51
 -12  -1  -4    4.26    0.43
  -1  13  -4    4.85    0.48
  12   1   4    4.17    0.38
  12   1   4    4.50    0.55
  12   1   4    3.85    0.49
  12   1   4    4.34    0.52
  12   1   4    4.34    0.55
   1 -13   4    4.79    0.49
  12   1   4    4.37    0.51
 -12   0  -4   22.91    0.96
 -12   0  -4   21.21    0.98
   0  12  -4   21.05    1.00
   0  12  -4   21.86    1.00
  12 -12  -4   21.68    0.99
   0  12  -4   22.62    0.98
  12 -12  -4   20.35    1.05
  12   0   4   23.65    1.00
  12   0   4   25.19    1.05
  12   0   4   24.54    1.12
  12   0   4   22.97    1.04
   0 -12   4   23.36    1.05
  12   0   4   22.63    1.06
  12   0   4   24.49    0.88
   1  11  -4   13.98    0.78
  11 -12  -4   14.58    0.77
 -12   1  -4   14.70    0.75
   1  11  -4   14.72    0.80
   1  11  -4   15.31    0.77
 -12   1  -4   16.45    0.82
  12  -1   4   15.58    0.79
  12  -1   4   13.88    0.83
  12  -1   4   15.20    0.80
  -1 -11   4   14.64    0.81
  12  -1   4   14.91    0.81
 -11  12   4   13.74    0.76
  12  -1   4   14.75    0.83
  12  -1   4   14.56    0.66
   2  10  -4    8.30    0.55
 -12   2  -4    6.99    0.51
  10 -12  -4    7.87    0.60
   2  10  -4    7.25    0.55
  10 -12  -4    7.99    0.56
 -12   2  -4    7.41    0.55
   2  10  -4    7.90    0.58
  -2 -10   4    7.29    0.57
 -10  12   4    7.60    0.56
  12  -2   4    8.25    0.61
  12  -2   4    8.35    0.48
  12  -2   4    7.53    0.57
  12  -2   4    7.20    0.56
  12  -2   4    7.33    0.60
  12  -2   4    7.84    0.56
   9 -12  -4   13.54    0.72
 -12   3  -4   12.92    0.68
   3   9  -4   12.94    0.71
   9 -12  -4   12.77    0.76
   3   9  -4   12.47    0.74
 -12   3  -4   12.76    0.73
  12  -3   4   12.96    0.71
  -3  -9   4   12.64    0.74
  12  -3   4   13.10    0.72
  -9  12   4   13.85    0.72
  12  -3   4   13.77    0.76
  12  -3   4   14.02    0.80
  12  -3   4   13.30    0.77
  12  -3   4   13.19    0.60
   8 -12  -4   22.72    1.05
 -12   4  -4   25.26    1.04
   8 -12  -4   23.41    0.97
   4   8  -4   24.83    1.00
 -12   4  -4   23.20    0.94
  -8  12   4   24.84    1.00
  -8  12   4   23.45    1.04
  12  -4   4   22.03    1.04
  12  -4   4   22.55    0.99
  12  -4   4   23.41    1.04
  12  -4   4   23.60    0.83
  12  -4   4   24.49    0.99
  -8  12   4   23.99    0.98
  -4  -8   4   22.76    1.02
  -4  -8   4   23.44    1.03
  12  -4   4   23.39    0.98
   7 -12  -4   10.55    0.63
 -12   5  -4   10.39    0.64
   7 -12  -4   10.64    0.69
 -12   5  -4   10.66    0.62
 -12   5  -4   11.43    0.67
   5   7  -4   10.39    0.62
  12  -5   4    9.98    0.65
  12  -5   4   10.80    0.64
  12  -5   4   11.18    0.67
  12  -5   4    9.96    0.67
  -7  12   4   10.50    0.64
  -5  -7   4    9.86    0.65
  12  -5   4    9.62    0.50
  -7  12   4    9.52    0.65
  12  -5   4   10.80    0.63
  -7  12   4   10.55    0.63
  -5  -7   4   11.17    0.68
   6 -12  -4   10.57    0.65
 -12   6  -4   11.32    0.69
 -12   6  -4   11.61    0.68
   6   6  -4   11.33    0.65
   6   6  -4   10.92    0.64
 -12   6  -4   11.39    0.65
   6 -12  -4   11.12    0.71
 -12   6  -4   11.65    0.66
  12  -6   4   13.51    0.73
  -6  -6   4   13.54    0.74
  12  -6   4   13.21    0.71
  12  -6   4   12.91    0.74
  -6  12   4   13.79    0.71
  -6  -6   4   14.41    0.78
  12  -6   4   14.56    0.78
  12  -6   4   13.06    0.69
  12  -6   4   12.36    0.67
  12  -6   4   12.89    0.57
  -6  12   4   12.83    0.71
  -6  12   4   12.92    0.74
 -12   7  -4   10.89    0.64
   7   5  -4   10.53    0.61
   5 -12  -4    9.09    0.64
 -12   7  -4   10.54    0.65
 -12   7  -4    9.71    0.63
 -12   7  -4   10.85    0.63
   7   5  -4   10.37    0.61
   5 -12  -4    9.77    0.60
  12  -7   4   10.06    0.62
  12  -7   4   10.08    0.64
  12  -7   4    9.96    0.60
  12  -7   4   11.03    0.66
  -7  -5   4    9.93    0.65
  -5  12   4   10.39    0.64
  -5  12   4   10.60    0.62
  12  -7   4    9.92    0.61
  12  -7   4    9.23    0.62
  -5  12   4   10.57    0.67
  -7  -5   4    9.52    0.64
  12  -7   4   10.61    0.66
  12  -7   4   10.16    0.51
 -12   8  -4   22.87    0.99
   4 -12  -4   22.06    0.94
   8   4  -4   23.40    0.93
 -12   8  -4   22.41    0.96
   4 -12  -4   22.75    1.03
   8   4  -4   23.26    0.92
 -12   8  -4   23.14    0.94
 -12   8  -4   24.15    1.00
  -8  -4   4   21.39    0.98
  -4  12   4   22.58    0.98
  12  -8   4   20.79    0.96
  12  -8   4   22.85    1.00
  -4  12   4   21.87    0.93
  12  -8   4   20.76    0.93
  -4  12   4   22.09    0.99
  12  -8   4   22.37    0.97
  12  -8   4   22.58    0.81
  -8  -4   4   23.19    1.03
 -12   9  -4   12.47    0.72
   3 -12  -4   12.68    0.71
 -12   9  -4   13.18    0.74
   9   3  -4   13.00    0.69
 -12   9  -4   12.24    0.69
   3 -12  -4   12.74    0.77
   9   3  -4   13.75    0.70
 -12   9  -4   12.55    0.73
  -3  12   4   13.30    0.76
  12  -9   4   14.35    0.75
  -9  -3   4   12.41    0.73
  12  -9   4   13.58    0.74
  -9  -3   4   13.46    0.79
  -3  12   4   13.92    0.76
  -3  12   4   13.71    0.70
  12  -9   4   13.42    0.60
  12  -9   4   13.57    0.76
  12  -9   4   13.24    0.73
   2 -12  -4    7.34    0.54
  10   2  -4    7.20    0.53
 -12  10  -4    8.53    0.60
 -12  10  -4    7.92    0.58
 -12  10  -4    8.03    0.58
 -12  10  -4    7.09    0.53
   2 -12  -4    7.61    0.59
  12 -10   4    8.62    0.61
  12 -10   4    8.34    0.47
  -2  12   4    8.46    0.61
 -10  -2   4    7.90    0.61
  -2  12   4    8.68    0.61
  -2  12   4    7.92    0.56
  12 -10   4    7.65    0.57
 -10  -2   4    8.05    0.60
  12 -10   4    7.98    0.58
   1 -12  -4   16.24    0.87
   1 -12  -4   16.36    0.82
 -12  11  -4   16.19    0.85
 -12  11  -4   15.31    0.81
  11   1  -4   15.77    0.77
 -12  11  -4   15.27    0.78
 -12  11  -4   17.10    0.85
 -11  -1   4   15.48    0.82
  12 -11   4   15.32    0.81
 -11  -1   4   15.34    0.86
  -1  12   4   15.47    0.77
  -1  12   4   15.35    0.83
  -1  12   4   14.14    0.80
  12 -11   4   15.52    0.82
  -1  12   4   13.57    0.77
  12 -11   4   14.25    0.66
  12 -11   4   15.13    0.81
 -12  12  -4   21.17    0.98
  12   0  -4   21.69    0.95
 -12  12  -4   20.96    0.98
 -12  12  -4   21.28    1.02
   0 -12  -4   21.63    1.04
 -12  12  -4   20.56    0.98
   0 -12  -4   21.88    0.97
 -12  12  -4   21.66    0.96
  12 -12   4   23.72    1.03
   0  12   4   21.39    0.93
   0  12   4   23.15    1.03
  12 -12   4   22.45    1.01
  12 -12   4   22.41    0.85
 -12   0   4   22.76    1.02
 -12   0   4   22.58    1.08
  12 -12   4   23.34    1.01
   0  12   4   21.82    1.02
 -12  13  -4    4.30    0.51
  13  -1  -4    4.90    0.47
 -12  13  -4    4.84    0.48
 -12  13  -4    4.47    0.52
 -12  13  -4    4.29    0.53
 -12  13  -4    4.58    0.46
  -1 -12  -4    5.12    0.51
  12 -13   4    4.21    0.50
  12 -13   4    4.66    0.48
   1  12   4    4.50    0.53
  12 -13   4    4.55    0.53
 -13   1   4    4.62    0.56
   1  12   4    4.81    0.47
   1  12   4    4.11    0.52
  12 -13   4    4.15    0.38
   1  12   4    4.27    0.52
  14  -2  -4    9.30    0.64
 -12  14  -4    9.06    0.68
  -2 -12  -4    8.84    0.69
 -12  14  -4    8.64    0.64
 -12  14  -4    9.18    0.66
 -12  14  -4    9.65    0.65
 -12  14  -4    8.67    0.62
  12 -14   4    9.51    0.67
   2  12   4    9.80    0.70
   2  12   4    9.33    0.64
  12 -14   4    8.99    0.55
   2  12   4    9.26    0.68
   2  12   4    9.76    0.68
  12 -14   4    9.60    0.67
 -14   2   4    9.17    0.71
  12 -14   4    9.23    0.65
  15  -3  -4   14.31    0.80
 -12  15  -4   13.91    0.82
 -12  15  -4   14.60    0.83
 -12  15  -4   13.72    0.86
 -12  15  -4   15.32    0.86
   3  12   4   13.37    0.83
   3  12   4   14.76    0.88
  12 -15   4   14.36    0.71
   3  12   4   14.15    0.79
 -15   3   4   14.28    0.89
 -12  16  -4    0.37    0.24
 -12  16  -4    0.43    0.25
  16  -4  -4    0.53    0.25
   4  12   4    1.29    0.36
 -13  -2  -4    5.02    0.52
  -2  15  -4    4.70    0.56
  -2  15  -4    5.15    0.51
  15 -13  -4    4.57    0.54
  13   2   4    4.72    0.56
  13   2   4    4.20    0.54
  13   2   4    4.99    0.45
  13   2   4    5.20    0.62
   2 -15   4    5.11    0.52
  14 -13  -4    0.87    0.29
  -1  14  -4    1.07    0.30
 -13  -1  -4    0.79    0.26
  -1  14  -4    1.09    0.30
  -1  14  -4    1.07    0.30
 -13  -1  -4    0.96    0.29
  13   1   4    1.00    0.31
  13   1   4    0.93    0.30
  13   1   4    0.78    0.28
  13   1   4    0.72    0.22
  13   1   4    1.17    0.34
   1 -14   4    1.12    0.32
   0  13  -4    3.12    0.45
 -13   0  -4    3.58    0.47
   0  13  -4    2.84    0.43
   0  13  -4    3.34    0.45
  13 -13  -4    3.13    0.45
 -13   0  -4    3.31    0.44
  13   0   4    4.54    0.55
   0 -13   4    3.48    0.47
  13   0   4    3.24    0.38
  13   0   4    3.74    0.52
  13   0   4    3.94    0.50
  13   0   4    3.82    0.48
   1  12  -4    5.01    0.50
 -13   1  -4    4.42    0.44
  12 -13  -4    4.60    0.56
   1  12  -4    4.80    0.48
   1  12  -4    5.37    0.48
 -13   1  -4    4.83    0.48
  12 -13  -4    5.43    0.52
  13  -1   4    3.99    0.52
  13  -1   4    4.68    0.58
  13  -1   4    3.97    0.37
  13  -1   4    4.72    0.49
  -1 -12   4    4.48    0.53
  13  -1   4    3.79    0.47
  13  -1   4    4.67    0.54
  11 -13  -4    1.64    0.33
 -13   2  -4    1.71    0.32
 -13   2  -4    2.18    0.37
   2  11  -4    2.65    0.41
  11 -13  -4    1.91    0.37
   2  11  -4    2.42    0.37
   2  11  -4    1.99    0.36
  13  -2   4    2.09    0.40
  -2 -11   4    2.09    0.37
  13  -2   4    2.19    0.38
  13  -2   4    2.75    0.34
  13  -2   4    2.73    0.45
 -11  13   4    2.48    0.39
  13  -2   4    2.55    0.39
  13  -2   4    2.43    0.40
   3  10  -4    4.68    0.48
 -13   3  -4    5.20    0.46
  10 -13  -4    5.03    0.47
 -13   3  -4    5.33    0.49
  10 -13  -4    5.01    0.51
   3  10  -4    4.67    0.47
  13  -3   4    5.07    0.51
  13  -3   4    4.92    0.49
  13  -3   4    4.93    0.38
  13  -3   4    4.82    0.48
  -3 -10   4    4.09    0.51
 -10  13   4    5.17    0.49
  13  -3   4    4.96    0.46
  13  -3   4    4.48    0.55
   4   9  -4    3.70    0.47
 -13   4  -4    4.34    0.44
   9 -13  -4    3.70    0.49
   4   9  -4    4.61    0.45
   9 -13  -4    3.71    0.46
 -13   4  -4    4.44    0.42
  13  -4   4    4.29    0.36
  -9  13   4    4.03    0.47
  13  -4   4    4.73    0.46
  13  -4   4    4.40    0.53
  -4  -9   4    4.12    0.50
  13  -4   4    4.55    0.52
  13  -4   4    4.88    0.47
  -9  13   4    4.28    0.49
  13  -4   4    4.64    0.48
 -13   5  -4    3.40    0.42
   8 -13  -4    3.24    0.43
   5   8  -4    3.49    0.44
 -13   5  -4    3.30    0.44
   8 -13  -4    2.58    0.43
 -13   5  -4    3.00    0.43
  -8  13   4    3.53    0.45
  13  -5   4    3.39    0.43
  -8  13   4    3.22    0.42
  13  -5   4    3.11    0.31
  13  -5   4    3.60    0.48
  -5  -8   4    3.07    0.44
  13  -5   4    3.15    0.43
  -5  -8   4    3.17    0.44
  13  -5   4    2.97    0.44
  -8  13   4    3.17    0.44
  13  -5   4    3.30    0.44
 -13   6  -4   12.40    0.72
 -13   6  -4   12.32    0.67
   6   7  -4   13.17    0.68
   7 -13  -4   11.95    0.69
 -13   6  -4   13.08    0.74
   6   7  -4   11.82    0.68
   7 -13  -4   12.97    0.77
  13  -6   4   10.14    0.66
  -7  13   4   10.45    0.70
  13  -6   4   12.66    0.77
  -7  13   4   12.89    0.70
  13  -6   4   10.51    0.55
  13  -6   4   11.96    0.71
  -6  -7   4   11.70    0.73
  -6  -7   4   12.04    0.74
  -7  13   4   11.44    0.70
  13  -6   4   12.57    0.71
  13  -6   4   12.19    0.74
   7   6  -4   12.78    0.69
   7   6  -4   12.50    0.70
 -13   7  -4   12.15    0.72
 -13   7  -4   12.05    0.71
   6 -13  -4   12.70    0.71
   6 -13  -4   12.65    0.76
 -13   7  -4   12.12    0.68
 -13   7  -4   12.73    0.71
  13  -7   4   10.80    0.67
  -7  -6   4   11.59    0.73
  -6  13   4   11.95    0.69
  13  -7   4   10.87    0.70
  13  -7   4   12.16    0.70
  13  -7   4   11.63    0.74
  -6  13   4   12.69    0.75
  13  -7   4   11.50    0.70
  -6  13   4   12.11    0.72
  13  -7   4   11.37    0.57
  -7  -6   4   11.56    0.72
  13  -7   4   12.55    0.70
   5 -13  -4    3.57    0.48
 -13   8  -4    3.31    0.41
 -13   8  -4    3.18    0.42
   5 -13  -4    3.18    0.42
   8   5  -4    3.25    0.41
   8   5  -4    3.19    0.42
 -13   8  -4    2.78    0.40
 -13   8  -4    2.59    0.39
  13  -8   4    2.96    0.30
  -8  -5   4    3.24    0.45
  13  -8   4    2.96    0.41
  13  -8   4    3.00    0.40
  13  -8   4    3.36    0.46
  -5  13   4    3.54    0.46
  -5  13   4    3.18    0.44
  13  -8   4    2.69    0.41
  -8  -5   4    2.93    0.43
  13  -8   4    2.71    0.40
  -5  13   4    2.70    0.39
  13  -8   4    2.89    0.42
   4 -13  -4    3.96    0.47
 -13   9  -4    3.46    0.43
   9   4  -4    4.67    0.44
   4 -13  -4    3.80    0.49
   9   4  -4    4.07    0.46
 -13   9  -4    4.11    0.44
 -13   9  -4    3.90    0.47
 -13   9  -4    3.38    0.45
  -4  13   4    4.30    0.47
  -9  -4   4    4.83    0.49
  13  -9   4    4.04    0.48
  13  -9   4    3.84    0.48
  13  -9   4    3.58    0.46
  13  -9   4    3.73    0.47
  13  -9   4    3.90    0.35
  -4  13   4    3.76    0.48
  -4  13   4    4.11    0.50
  -9  -4   4    3.98    0.49
 -13  10  -4    4.84    0.48
   3 -13  -4    5.08    0.46
 -13  10  -4    4.69    0.47
  10   3  -4    4.76    0.44
 -13  10  -4    4.26    0.49
   3 -13  -4    4.72    0.49
  10   3  -4    4.99    0.45
 -13  10  -4    4.60    0.47
  -3  13   4    5.13    0.50
 -10  -3   4    4.42    0.52
  13 -10   4    4.14    0.50
  13 -10   4    4.48    0.38
  13 -10   4    4.35    0.51
  -3  13   4    4.85    0.48
  13 -10   4    4.67    0.47
  -3  13   4    4.85    0.46
 -10  -3   4    3.81    0.50
 -13  11  -4    1.71    0.35
 -13  11  -4    2.10    0.36
 -13  11  -4    2.12    0.37
  11   2  -4    2.05    0.35
   2 -13  -4    2.03    0.39
 -13  11  -4    1.90    0.36
   2 -13  -4    2.02    0.37
  -2  13   4    2.10    0.38
 -11  -2   4    2.08    0.38
  13 -11   4    2.23    0.39
  -2  13   4    2.15    0.38
  13 -11   4    2.58    0.32
  13 -11   4    2.72    0.42
  13 -11   4    2.96    0.43
 -11  -2   4    2.54    0.42
  -2  13   4    1.96    0.35
   1 -13  -4    5.11    0.48
   1 -13  -4    4.60    0.49
 -13  12  -4    4.29    0.51
  12   1  -4    5.04    0.47
 -13  12  -4    5.26    0.51
 -13  12  -4    4.38    0.52
 -13  12  -4    4.52    0.54
 -13  12  -4    4.38    0.51
 -12  -1   4    4.12    0.53
  13 -12   4    4.07    0.50
  13 -12   4    4.16    0.51
 -12  -1   4    4.43    0.54
  -1  13   4    4.75    0.47
  -1  13   4    4.77    0.49
  -1  13   4    4.36    0.53
  -1  13   4    4.20    0.51
  13 -12   4    4.28    0.38
  13 -12   4    4.18    0.51
 -13  13  -4    4.12    0.51
   0 -13  -4    3.15    0.46
 -13  13  -4    3.32    0.47
   0 -13  -4    3.34    0.49
  13   0  -4    2.97    0.43
 -13  13  -4    2.80    0.43
 -13  13  -4    3.19    0.48
 -13  13  -4    3.49    0.46
  13 -13   4    3.75    0.48
 -13   0   4    4.21    0.53
  13 -13   4    3.64    0.48
  13 -13   4    4.57    0.40
   0  13   4    4.61    0.51
  13 -13   4    4.25    0.52
   0  13   4    4.00    0.52
 -13   0   4    4.36    0.56
   0  13   4    4.08    0.52
   0  13   4    4.06    0.52
  14  -1  -4    0.72    0.28
  -1 -13  -4    1.06    0.30
 -13  14  -4    0.94    0.30
 -13  14  -4    0.87    0.30
 -13  14  -4    0.89    0.29
 -13  14  -4    1.41    0.34
 -13  14  -4    1.24    0.34
  13 -14   4    0.92    0.25
   1  13   4    1.66    0.38
 -14   1   4    1.40    0.36
  13 -14   4    1.06    0.30
   1  13   4    1.14    0.33
  13 -14   4    0.96    0.29
   1  13   4    0.81    0.27
  13 -14   4    1.13    0.32
 -13  15  -4    4.94    0.51
  15  -2  -4    4.67    0.54
 -13  15  -4    5.60    0.53
   2  13   4    5.42    0.61
  13 -15   4    5.25    0.45
  13 -15   4    4.86    0.57
   2  13   4    4.83    0.59
  15 -14  -4    4.22    0.54
  -1  15  -4    4.22    0.53
  14   1   4    4.42    0.56
  14   1   4    3.69    0.52
   0  14  -4    7.54    0.62
 -14   0  -4    7.82    0.63
   0  14  -4    7.57    0.61
  14 -14  -4    6.90    0.59
  14   0   4    7.81    0.63
  14   0   4    9.09    0.71
  14   0   4    8.28    0.55
  14   0   4    9.38    0.69
   0 -14   4    8.66    0.67
 -14   1  -4    0.80    0.27
  13 -14  -4    0.62    0.27
 -14   1  -4    0.64    0.26
   1  13  -4    1.18    0.32
   1  13  -4    0.84    0.27
  14  -1   4    1.24    0.33
  14  -1   4    0.79    0.23
  -1 -13   4    1.74    0.37
  14  -1   4    1.08    0.32
  14  -1   4    1.15    0.31
  14  -1   4    0.74    0.29
  12 -14  -4   10.12    0.68
   2  12  -4    8.64    0.61
   2  12  -4    9.95    0.67
 -14   2  -4   10.81    0.67
 -14   2  -4    8.66    0.65
   2  12  -4    9.40    0.67
  14  -2   4    9.61    0.69
 -12  14   4    9.33    0.66
  14  -2   4    8.99    0.69
  14  -2   4    9.40    0.68
  14  -2   4    9.26    0.64
  14  -2   4    9.34    0.56
  -2 -12   4    9.04    0.68
   3  11  -4   12.59    0.76
 -14   3  -4   12.34    0.70
 -14   3  -4   13.31    0.78
   3  11  -4   12.99    0.77
  11 -14  -4   12.81    0.75
  14  -3   4   12.51    0.73
  14  -3   4   11.76    0.63
 -11  14   4   13.04    0.76
  -3 -11   4   12.44    0.78
  14  -3   4   11.46    0.74
  14  -3   4   10.77    0.75
  14  -3   4   13.15    0.78
  10 -14  -4    1.63    0.36
   4  10  -4    1.90    0.36
 -14   4  -4    1.56    0.32
   4  10  -4    1.38    0.33
  10 -14  -4    1.56    0.33
 -14   4  -4    1.59    0.35
  14  -4   4    1.74    0.35
  14  -4   4    1.99    0.37
  14  -4   4    1.46    0.34
  14  -4   4    1.84    0.29
  14  -4   4    2.06    0.40
  -4 -10   4    1.51    0.35
 -10  14   4    1.69    0.35
  14  -4   4    1.70    0.38
   5   9  -4    7.30    0.60
 -14   5  -4    7.05    0.53
   9 -14  -4    6.95    0.60
 -14   5  -4    6.94    0.56
   5   9  -4    7.17    0.56
 -14   5  -4    6.63    0.55
   9 -14  -4    6.86    0.55
  14  -5   4    6.15    0.59
  14  -5   4    6.69    0.46
  -5  -9   4    6.40    0.56
  14  -5   4    6.53    0.55
  -9  14   4    7.40    0.57
  -9  14   4    6.96    0.56
  14  -5   4    6.95    0.55
  14  -5   4    6.73    0.57
  -5  -9   4    6.86    0.57
  14  -5   4    6.43    0.58
   6   8  -4    4.08    0.47
 -14   6  -4    3.63    0.47
   6   8  -4    4.24    0.50
 -14   6  -4    4.16    0.47
 -14   6  -4    4.10    0.50
   8 -14  -4    4.67    0.46
   8 -14  -4    4.76    0.50
  14  -6   4    4.04    0.51
  14  -6   4    3.97    0.49
  14  -6   4    3.88    0.47
  -8  14   4    3.96    0.51
  -8  14   4    4.38    0.50
  14  -6   4    4.96    0.48
  14  -6   4    4.40    0.37
  -6  -8   4    3.37    0.47
  -6  -8   4    4.09    0.50
  14  -6   4    4.26    0.54
 -14   7  -4    1.49    0.33
   7   7  -4    1.86    0.35
 -14   7  -4    1.33    0.31
   7 -14  -4    1.17    0.31
   7 -14  -4    1.76    0.34
   7   7  -4    1.80    0.33
 -14   7  -4    1.89    0.36
  -7  -7   4    1.75    0.36
  14  -7   4    1.08    0.32
  14  -7   4    1.21    0.24
  -7  14   4    1.66    0.36
  -7  14   4    1.46    0.32
  -7  -7   4    1.33    0.33
  14  -7   4    1.61    0.35
  14  -7   4    1.40    0.32
  14  -7   4    1.28    0.32
  -7  14   4    0.98    0.30
  14  -7   4    1.75    0.34
  14  -7   4    0.99    0.29
   6 -14  -4    3.88    0.50
 -14   8  -4    3.45    0.47
 -14   8  -4    3.72    0.48
 -14   8  -4    4.16    0.48
 -14   8  -4    4.39    0.45
   8   6  -4    3.87    0.45
   8   6  -4    4.26    0.49
   6 -14  -4    3.07    0.43
  14  -8   4    4.21    0.51
  14  -8   4    3.69    0.50
  14  -8   4    3.53    0.48
  14  -8   4    4.20    0.49
  -6  14   4    4.18    0.51
  14  -8   4    3.83    0.35
  14  -8   4    4.36    0.45
  -6  14   4    3.79    0.46
  -8  -6   4    3.73    0.49
  -8  -6   4    4.60    0.54
  14  -8   4    3.28    0.44
  -6  14   4    3.71    0.48
   5 -14  -4    6.81    0.54
 -14   9  -4    6.59    0.53
   9   5  -4    7.23    0.54
   5 -14  -4    6.48    0.57
   9   5  -4    6.37    0.52
 -14   9  -4    5.97    0.53
 -14   9  -4    7.08    0.56
 -14   9  -4    6.69    0.55
  14  -9   4    6.66    0.46
  14  -9   4    6.25    0.54
  14  -9   4    6.23    0.56
  -5  14   4    5.77    0.54
  -5  14   4    6.92    0.54
  -9  -5   4    6.60    0.57
  14  -9   4    6.90    0.56
  -9  -5   4    6.92    0.58
  -5  14   4    6.21    0.55
  14  -9   4    7.08    0.56
   4 -14  -4    1.84    0.34
 -14  10  -4    1.64    0.34
  10   4  -4    2.25    0.37
 -14  10  -4    1.83    0.36
  10   4  -4    1.67    0.33
   4 -14  -4    1.44    0.34
 -14  10  -4    1.58    0.34
 -14  10  -4    1.40    0.32
  14 -10   4    1.96    0.30
  14 -10   4    1.57    0.35
  14 -10   4    2.29    0.39
 -10  -4   4    2.30    0.41
  -4  14   4    1.78    0.34
  -4  14   4    1.97    0.37
 -10  -4   4    1.59    0.36
  14 -10   4    2.11    0.38
  -4  14   4    1.91    0.37
   3 -14  -4   11.84    0.77
 -14  11  -4   12.21    0.72
  11   3  -4   11.43    0.68
 -14  11  -4   11.96    0.73
 -14  11  -4   12.70    0.78
   3 -14  -4   11.09    0.70
 -14  11  -4   12.08    0.74
  -3  14   4   11.13    0.70
  14 -11   4   11.08    0.72
  14 -11   4   11.35    0.61
  -3  14   4   11.21    0.74
 -11  -3   4   11.16    0.75
  14 -11   4   11.59    0.72
  14 -11   4   11.29    0.73
 -11  -3   4   12.36    0.80
 -14  12  -4    9.40    0.66
 -14  12  -4    8.93    0.65
   2 -14  -4    9.95    0.65
 -14  12  -4   10.27    0.69
 -14  12  -4   10.13    0.71
  12   2  -4    9.15    0.62
   2 -14  -4    9.25    0.68
 -12  -2   4   10.20    0.71
  -2  14   4    8.70    0.66
  14 -12   4    9.04    0.66
  14 -12   4    9.13    0.56
  -2  14   4    9.33    0.67
  14 -12   4    9.07    0.66
  14 -12   4    9.71    0.66
 -12  -2   4    9.48    0.72
  -2  14   4    9.45    0.63
 -14  13  -4    0.94    0.31
 -14  13  -4    0.91    0.30
   1 -14  -4    1.09    0.32
 -14  13  -4    1.36    0.35
  13   1  -4    1.18    0.30
 -14  13  -4    0.91    0.28
 -13  -1   4    0.71    0.29
 -13  -1   4    0.87    0.31
  -1  14   4    1.01    0.29
  14 -13   4    0.93    0.28
  -1  14   4    0.76    0.29
  14 -13   4    1.08    0.32
  14 -13   4    0.89    0.24
  14 -13   4    0.80    0.29
 -14  14  -4    7.68    0.62
 -14  14  -4    7.70    0.62
  14   0  -4    8.67    0.63
 -14  14  -4    7.85    0.62
   0  14   4    8.39    0.67
  14 -14   4    9.34    0.67
  14 -14   4    9.00    0.57
 -14   0   4    8.10    0.69
  14 -14   4    9.25    0.67
   0  14   4    9.13    0.69
 -14  15  -4    4.20    0.52
 -14  15  -4    4.15    0.52
  15  -1  -4    4.30    0.52
   1  14   4    3.39    0.51
   1  14   4    4.15    0.55
   1  14  -4    4.75    0.55
  14 -15  -4    4.20    0.53
  15  -1   4    4.46    0.56
  15  -1   4    3.96    0.53
   2  13  -4    4.17    0.53
  13 -15  -4    4.20    0.53
 -15   2  -4    4.06    0.48
  15  -2   4    4.92    0.43
  15  -2   4    5.57    0.51
  15  -2   4    5.64    0.54
  15  -2   4    4.95    0.61
  12 -15  -4   13.29    0.81
   3  12  -4   13.99    0.83
 -15   3  -4   15.34    0.80
 -15   3  -4   14.95    0.86
  -3 -12   4   13.81    0.85
  15  -3   4   13.44    0.86
  15  -3   4   13.19    0.82
 -12  15   4   13.10    0.79
  15  -3   4   14.59    0.80
  15  -3   4   14.30    0.83
  15  -3   4   13.68    0.70
 -15   4  -4   12.63    0.78
   4  11  -4   11.37    0.74
 -15   4  -4   13.37    0.73
  11 -15  -4   12.41    0.75
  15  -4   4   11.74    0.77
  15  -4   4   11.66    0.80
  -4 -11   4   10.96    0.76
 -11  15   4   12.06    0.74
  15  -4   4   13.26    0.80
  15  -4   4   12.57    0.75
  15  -4   4   11.79    0.65
   5  10  -4    3.22    0.47
 -15   5  -4    3.30    0.43
  10 -15  -4    2.85    0.42
 -15   5  -4    3.15    0.47
   5  10  -4    3.49    0.45
   5  10  -4    2.95    0.44
 -15   5  -4    2.98    0.45
  15  -5   4    3.10    0.46
 -10  15   4    3.45    0.48
  15  -5   4    3.82    0.51
  15  -5   4    4.15    0.54
  15  -5   4    3.92    0.48
  -5 -10   4    3.27    0.47
 -10  15   4    3.23    0.46
  15  -5   4    3.53    0.37
 -15   6  -4   13.60    0.74
   6   9  -4   12.23    0.75
 -15   6  -4   13.01    0.78
 -15   6  -4   12.18    0.76
   6   9  -4   12.78    0.80
   6   9  -4   12.99    0.72
   9 -15  -4   12.34    0.74
  -6  -9   4   13.09    0.80
  -9  15   4   11.87    0.73
  15  -6   4   11.19    0.71
  -9  15   4   12.68    0.78
  15  -6   4   11.92    0.74
  15  -6   4   12.50    0.65
  15  -6   4   11.44    0.76
  -6  -9   4   11.79    0.78
  15  -6   4   12.92    0.80
 -15   7  -4   12.61    0.77
   7   8  -4   12.70    0.75
   7   8  -4   12.29    0.71
 -15   7  -4   11.77    0.70
   8 -15  -4   13.84    0.77
 -15   7  -4   11.69    0.73
  15  -7   4   10.53    0.77
  15  -7   4   11.50    0.73
  15  -7   4   11.77    0.63
  15  -7   4   11.29    0.75
  -7  -8   4   11.68    0.76
  -8  15   4   11.44    0.70
  -7  -8   4   11.79    0.78
  -8  15   4   11.40    0.75
  15  -7   4   12.94    0.77
  15  -7   4   12.42    0.75
 -15   8  -4   13.60    0.78
 -15   8  -4   12.29    0.77
   7 -15  -4   12.41    0.73
   7 -15  -4   12.30    0.80
   8   7  -4   12.48    0.75
 -15   8  -4   12.45    0.73
   8   7  -4   11.89    0.69
  15  -8   4   12.34    0.81
  15  -8   4   11.72    0.76
  15  -8   4   12.80    0.76
  -7  15   4   11.88    0.76
  -8  -7   4   11.61    0.77
  15  -8   4   12.62    0.75
  15  -8   4   12.05    0.64
  -7  15   4   12.33    0.77
  -7  15   4   12.27    0.74
  15  -8   4   12.32    0.74
  15  -8   4   10.22    0.69
  -8  -7   4   11.32    0.76
   6 -15  -4   12.41    0.74
 -15   9  -4   14.48    0.81
   9   6  -4   13.78    0.75
   6 -15  -4   12.31    0.80
 -15   9  -4   14.27    0.82
   9   6  -4   14.07    0.79
 -15   9  -4   12.91    0.75
 -15   9  -4   12.98    0.78
  15  -9   4   13.58    0.82
  15  -9   4   14.07    0.79
  -9  -6   4   13.10    0.81
  15  -9   4   13.28    0.79
  -9  -6   4   13.64    0.83
  -6  15   4   12.45    0.79
  15  -9   4   12.95    0.66
  -6  15   4   13.88    0.76
  10   5  -4    2.74    0.42
 -15  10  -4    2.44    0.41
 -15  10  -4    2.75    0.42
 -15  10  -4    2.86    0.44
  10   5  -4    2.59    0.39
 -15  10  -4    3.16    0.46
   5 -15  -4    2.51    0.41
  15 -10   4    3.71    0.50
  15 -10   4    2.89    0.36
 -10  -5   4    4.00    0.52
  -5  15   4    3.28    0.48
 -10  -5   4    3.03    0.48
  -5  15   4    2.75    0.42
  15 -10   4    3.41    0.47
 -15  11  -4   12.81    0.80
 -15  11  -4   12.37    0.77
   4 -15  -4   13.36    0.75
  11   4  -4   12.39    0.71
 -15  11  -4   13.53    0.79
 -15  11  -4   13.38    0.77
  -4  15   4   12.14    0.73
  -4  15   4   11.51    0.77
  15 -11   4   12.09    0.65
 -11  -4   4   11.16    0.77
  15 -11   4   11.64    0.74
  15 -11   4   12.89    0.80
 -11  -4   4   12.50    0.81
   3 -15  -4   14.25    0.79
 -15  12  -4   15.02    0.84
  12   3  -4   15.57    0.82
 -15  12  -4   15.38    0.84
 -15  12  -4   13.67    0.85
 -15  12  -4   13.74    0.82
 -12  -3   4   13.84    0.87
  15 -12   4   14.38    0.85
  15 -12   4   15.07    0.84
  -3  15   4   14.06    0.77
 -12  -3   4   14.32    0.87
  15 -12   4   14.57    0.72
  -3  15   4   13.69    0.86
 -15  13  -4    4.95    0.51
  13   2  -4    4.62    0.53
 -15  13  -4    5.10    0.52
 -15  13  -4    5.49    0.53
 -15  13  -4    4.59    0.55
 -13  -2   4    5.03    0.60
  15 -13   4    5.58    0.56
  15 -13   4    5.54    0.54
  -2  15   4    5.95    0.58
  15 -13   4    5.06    0.45
  14   1  -4    4.27    0.52
 -15  14  -4    4.24    0.53
 -15  14  -4    4.52    0.55
  -1  15   4    4.07    0.55
  15 -14   4    4.48    0.54
  12 -16  -4    0.54    0.27
 -16   4  -4    0.84    0.28
  16  -4   4    1.18    0.31
  16  -4   4    1.30    0.35
   5  11  -4    0.96    0.30
  11 -16  -4    0.54    0.25
 -16   5  -4    0.94    0.28
  16  -5   4    0.73    0.29
  16  -5   4    1.08    0.35
  16  -5   4    0.73    0.24
  16  -5   4    0.88    0.32
 -11  16   4    0.85    0.29
  10 -16  -4    1.79    0.37
   6  10  -4    1.73    0.37
 -16   6  -4    2.11    0.37
 -10  16   4    2.38    0.41
 -10  16   4    2.10    0.41
  16  -6   4    1.82    0.40
  16  -6   4    1.70    0.38
  16  -6   4    1.56    0.34
  16  -6   4    1.83    0.31
 -16   7  -4    3.48    0.49
   7   9  -4    3.55    0.48
 -16   7  -4    3.88    0.48
   9 -16  -4    3.46    0.48
   7   9  -4    3.91    0.47
  16  -7   4    3.29    0.50
  -9  16   4    3.91    0.50
  16  -7   4    4.04    0.40
  -9  16   4    3.67    0.51
  16  -7   4    3.17    0.48
  -7  -9   4    3.94    0.52
  -7  -9   4    4.25    0.55
  16  -7   4    3.55    0.48
   8   8  -4   22.92    0.99
   8   8  -4   22.51    1.06
 -16   8  -4   22.31    1.01
   8 -16  -4   21.34    1.00
 -16   8  -4   21.79    1.06
  16  -8   4   22.03    1.04
  -8  16   4   21.42    1.06
  -8  -8   4   19.69    1.05
  16  -8   4   21.58    1.01
  -8  -8   4   21.84    1.07
  16  -8   4   22.21    1.08
  -8  16   4   20.71    0.98
  16  -8   4   21.20    0.90
 -16   9  -4    3.75    0.50
   9   7  -4    4.52    0.54
 -16   9  -4    3.19    0.47
   7 -16  -4    4.09    0.50
 -16   9  -4    3.96    0.49
   9   7  -4    3.41    0.46
  16  -9   4    3.42    0.49
  16  -9   4    4.48    0.41
  -7  16   4    4.84    0.54
  -7  16   4    4.49    0.56
  -9  -7   4    4.10    0.54
  -9  -7   4    3.82    0.53
  16  -9   4    4.28    0.55
  16  -9   4    3.66    0.50
  10   6  -4    1.73    0.36
 -16  10  -4    2.08    0.40
 -16  10  -4    1.70    0.37
 -16  10  -4    1.44    0.33
  10   6  -4    1.29    0.33
   6 -16  -4    1.58    0.35
 -10  -6   4    1.53    0.37
  16 -10   4    1.54    0.30
  -6  16   4    1.84    0.36
  16 -10   4    1.53    0.36
  16 -10   4    2.28    0.42
  -6  16   4    1.71    0.39
   5 -16  -4    0.80    0.27
 -16  11  -4    1.06    0.31
 -16  11  -4    1.03    0.32
  11   5  -4    0.71    0.27
  11   5  -4    1.02    0.29
 -11  -5   4    0.83    0.31
  16 -11   4    1.03    0.26
  16 -11   4    0.90    0.30
  -5  16   4    1.35    0.36
  -5  16   4    1.37    0.32
 -16  12  -4    0.43    0.25
  12   4  -4    0.20    0.23
  -4  16   4    0.73    0.31
  16 -12   4    0.91    0.31
   0   0  -5   27.93    0.86
   0   0  -5   27.38    0.94
   0   0  -5   27.94    1.17
   0   0  -5   29.09    0.93
   0   0  -5   28.49    0.95
   0   0  -5   28.53    0.93
   0   0  -5   27.78    0.90
   0   0   5   26.43    0.89
   0   0   5   27.02    0.89
   0   0   5   26.44    1.26
   0   0   5   26.82    0.90
   0   0   5   25.88    0.87
   0   0   5   27.45    0.94
   0   1  -5    6.91    0.42
  -1   0  -5    6.39    0.41
  -1   0  -5    6.75    0.55
   0   1  -5    6.95    0.46
  -1   0  -5    6.83    0.41
   0   1  -5    6.69    0.43
  -1   0  -5    6.86    0.44
   1  -1  -5    6.60    0.41
   1  -1  -5    6.68    0.44
  -1   0  -5    6.88    0.43
  -1   0  -5    6.86    0.43
   0  -1   5    7.93    0.46
   1   0   5    7.49    0.44
   1   0   5    7.95    0.64
   1   0   5    8.11    0.45
  -1   1   5    7.74    0.42
   0  -1   5    7.36    0.44
   0  -1   5    8.43    0.46
   0  -1   5    8.28    0.65
   1   0   5    7.31    0.47
   1   0   5    7.62    0.45
  -1   1   5    7.87    0.46
   1   0   5    7.57    0.43
   1   0   5    7.89    0.45
  -1   1  -5    6.76    0.44
   0  -1  -5    6.54    0.53
  -1   1  -5    6.82    0.44
  -1   1  -5    6.38    0.39
  -1   1  -5    6.78    0.44
  -1   1  -5    6.24    0.42
   0  -1  -5    6.40    0.45
  -1   1  -5    6.65    0.54
   0   1   5    7.55    0.43
  -1   0   5    7.62    0.46
   1  -1   5    7.83    0.45
   1  -1   5    7.84    0.45
   0   1   5    7.00    0.42
   1  -1   5    7.13    0.44
   0   1   5    7.42    0.46
  -1   0   5    6.87    0.42
   1  -1   5    8.05    0.44
   0   1   5    7.74    0.45
   1  -1   5    7.54    0.63
  -1   2  -5   -0.01    0.12
  -1   2  -5    0.06    0.16
  -1   2  -5   -0.04    0.12
  -1  -1  -5    0.09    0.17
   2  -1  -5   -0.03    0.12
  -1   2  -5    0.09    0.13
   2  -1  -5    0.05    0.13
  -1  -1  -5    0.04    0.14
   1  -2   5    0.11    0.17
   1  -2   5    0.00    0.12
   1   1   5    0.06    0.13
   1   1   5   -0.11    0.12
   1  -2   5    0.02    0.14
  -2   1   5    0.09    0.14
  -2   1   5    0.10    0.14
   1   1   5    0.08    0.14
  -2   1   5    0.01    0.13
   1  -2   5   -0.17    0.12
   1   1   5   -0.04    0.12
   3  -2  -5   26.75    0.86
  -2  -1  -5   25.90    1.19
  -1   3  -5   25.38    0.95
  -1   3  -5   24.94    0.89
   3  -2  -5   25.83    0.92
  -1   3  -5   26.65    0.90
   1  -3   5   24.50    0.91
   1  -3   5   24.35    1.27
   2   1   5   24.48    1.23
   1  -3   5   24.87    0.91
   2   1   5   25.63    0.95
   2   1   5   24.90    0.87
  -3   2   5   24.61    0.89
  -3   2   5   24.58    0.83
   2   1   5   24.21    0.88
   2   1   5   24.32    0.90
  -3   2   5   24.73    0.90
   1  -3   5   24.21    0.87
   2   1   5   25.60    0.87
  -2   0  -5    3.91    0.37
  -2   0  -5    3.70    0.33
  -2   0  -5    4.41    0.35
   0   2  -5    3.84    0.32
  -2   0  -5    4.56    0.47
   0   2  -5    4.09    0.37
   2  -2  -5    4.16    0.36
   0   2  -5    3.98    0.34
   2  -2  -5    3.59    0.32
   2   0   5    3.36    0.45
   2   0   5    3.59    0.34
   0  -2   5    3.73    0.46
   2   0   5    3.34    0.32
   0  -2   5    3.60    0.34
   0  -2   5    3.94    0.34
  -2   2   5    3.19    0.34
   2   0   5    3.86    0.35
   2   0   5    3.44    0.31
   0  -2   5    3.58    0.31
   2   0   5    3.38    0.33
  -2   2   5    3.99    0.36
   2   0   5    3.47    0.33
   1   1  -5    0.09    0.17
   1  -2  -5    0.10    0.15
  -2   1  -5    0.21    0.14
  -2   1  -5    0.13    0.13
  -2   1  -5   -0.05    0.12
  -2   1  -5    0.06    0.13
  -2   1  -5    0.06    0.15
   1   1  -5    0.16    0.14
  -2   1  -5    0.13    0.14
  -1  -1   5    0.10    0.13
  -1   2   5    0.05    0.12
  -1  -1   5    0.08    0.14
  -1  -1   5    0.07    0.13
   2  -1   5    0.06    0.18
  -1   2   5    0.07    0.13
   2  -1   5   -0.10    0.12
   2  -1   5    0.01    0.12
   2  -1   5    0.08    0.13
   2  -1   5    0.12    0.13
  -1  -1   5    0.15    0.18
   2  -1   5   -0.04    0.13
  -1   2   5   -0.11    0.12
  -2   2  -5    3.22    0.33
   0  -2  -5    3.51    0.40
  -2   2  -5    3.57    0.42
  -2   2  -5    3.94    0.35
  -2   2  -5    3.30    0.33
  -2   2  -5    3.81    0.35
   0  -2  -5    3.27    0.35
  -2   2  -5    3.52    0.30
   0   2   5    3.36    0.35
  -2   0   5    3.67    0.36
   2  -2   5    3.17    0.45
   2  -2   5    3.10    0.32
   2  -2   5    3.56    0.34
  -2   0   5    3.75    0.32
   0   2   5    2.86    0.29
   0   2   5    3.34    0.33
   0   2   5    3.22    0.34
   2  -2   5    3.10    0.32
   2  -2   5    2.97    0.32
  -2   3  -5   25.35    0.81
  -2   3  -5   24.01    0.91
  -2   3  -5   23.92    0.87
  -2   3  -5   25.25    0.92
  -1  -2  -5   23.93    1.11
  -2   3  -5   24.60    0.89
  -1  -2  -5   24.64    0.95
   2  -3   5   22.93    0.86
   1   2   5   22.27    0.85
   2  -3   5   23.02    0.80
   2  -3   5   23.21    0.88
   1   2   5   22.54    0.90
  -3   1   5   24.01    0.89
   2  -3   5   23.22    0.88
   2  -3   5   21.97    1.22
   1   2   5   23.29    0.84
   1   2   5   23.27    0.86
  -2   4  -5    4.53    0.39
   4  -2  -5    5.65    0.37
  -2   4  -5    5.13    0.42
   4  -2  -5    5.85    0.39
   4  -2  -5    5.06    0.40
  -2  -2  -5    4.92    0.50
  -2   4  -5    5.52    0.43
   2  -4   5    4.95    0.40
   2  -4   5    5.08    0.41
  -4   2   5    5.39    0.39
   2  -4   5    5.03    0.40
  -4   2   5    5.00    0.40
   2  -4   5    4.74    0.56
   2   2   5    5.31    0.41
   2   2   5    4.79    0.40
  -4   2   5    5.37    0.40
   2   2   5    5.49    0.41
   2   2   5    5.62    0.44
  -2   5  -5    8.19    0.50
   5  -3  -5    8.32    0.45
  -2   5  -5    8.72    0.55
   5  -3  -5    8.63    0.52
  -2   5  -5    8.00    0.52
   5  -3  -5    8.44    0.48
  -3  -2  -5    8.85    0.68
   3   2   5    9.73    0.56
  -5   3   5    9.52    0.54
   2  -5   5   10.11    0.80
   3   2   5    9.58    0.54
   3   2   5    8.82    0.56
  -5   3   5    9.25    0.51
   2  -5   5    9.05    0.55
   2  -5   5    9.19    0.56
  -5   3   5    9.62    0.54
   2  -5   5    8.61    0.51
   3   2   5    9.34    0.52
   3   2   5    8.91    0.54
   4  -3  -5   15.23    0.70
  -1   4  -5   15.90    0.99
  -3  -1  -5   15.47    0.91
  -1   4  -5   15.95    0.68
   4  -3  -5   14.92    0.65
  -1   4  -5   16.53    0.71
  -1   4  -5   15.08    0.72
   3   1   5   15.77    0.68
   1  -4   5   15.45    0.70
   1  -4   5   16.26    0.72
   1  -4   5   15.33    0.67
   3   1   5   16.43    0.72
   3   1   5   14.79    0.70
   3   1   5   16.09    0.69
  -4   3   5   15.96    0.66
  -4   3   5   14.40    0.69
   1  -4   5   15.88    0.99
   3   1   5   15.68    0.96
   3   1   5   14.51    0.72
   3  -3  -5   58.10    1.51
   0   3  -5   56.64    1.54
   0   3  -5   57.22    1.65
  -3   0  -5   58.20    1.52
   0   3  -5   58.33    1.52
   0   3  -5   58.61    2.21
  -3   0  -5   55.54    2.03
   3  -3  -5   58.67    1.65
  -3   0  -5   57.44    1.53
   0  -3   5   58.59    1.54
   0  -3   5   56.01    1.56
   3   0   5   56.99    1.60
   3   0   5   55.25    1.49
  -3   3   5   58.30    1.62
   3   0   5   57.25    1.56
   3   0   5   58.18    2.22
  -3   3   5   55.55    1.47
   3   0   5   56.22    1.55
   3   0   5   57.64    1.53
   0  -3   5   55.32    1.58
   3   0   5   57.83    1.64
   0  -3   5   54.35    2.18
  -3   1  -5   25.83    0.91
   2  -3  -5   26.30    0.97
   2  -3  -5   25.77    0.89
  -3   1  -5   26.99    1.22
   1   2  -5   25.62    1.23
  -3   1  -5   25.60    0.92
   1   2  -5   26.26    0.87
  -3   1  -5   26.65    0.88
   3  -1   5   23.22    0.90
   3  -1   5   25.82    0.93
  -2   3   5   24.55    0.94
   3  -1   5   25.05    0.89
   3  -1   5   23.84    1.27
  -2   3   5   24.35    0.86
  -1  -2   5   24.62    0.91
  -1  -2   5   25.23    0.94
   3  -1   5   24.57    0.88
  -1  -2   5   24.91    0.88
   3  -1   5   24.07    0.84
   3  -1   5   24.73    0.90
  -3   2  -5   24.35    1.16
   1  -3  -5   23.69    0.93
  -3   2  -5   24.75    0.90
  -3   2  -5   25.23    0.91
  -3   2  -5   25.34    0.85
   2   1  -5   24.55    0.83
   1  -3  -5   25.01    1.10
  -3   2  -5   24.87    0.88
  -1   3   5   23.41    0.85
   3  -2   5   24.05    0.86
  -2  -1   5   22.90    0.82
  -2  -1   5   23.61    0.86
   3  -2   5   23.74    0.87
  -1   3   5   23.55    0.93
   3  -2   5   23.97    1.27
  -2  -1   5   24.25    0.92
   3  -2   5   22.90    0.88
   3  -2   5   23.04    0.88
  -1   3   5   23.29    0.84
  -3   3  -5   57.94    1.63
   0  -3  -5   57.44    1.69
  -3   3  -5   58.17    1.61
  -3   3  -5   58.52    1.50
   0  -3  -5   57.26    1.99
  -3   3  -5   56.65    1.60
  -3   3  -5   57.77    1.58
   3  -3   5   56.68    1.59
   3  -3   5   56.82    1.60
   0   3   5   58.03    1.67
   3  -3   5   58.43    1.53
  -3   0   5   59.44    1.65
   0   3   5   57.81    1.55
   0   3   5   57.45    1.55
   3  -3   5   56.07    2.26
   0   3   5   57.88    1.54
   3  -3   5   57.72    1.61
  -3   4  -5   14.88    0.70
  -1  -3  -5   16.79    0.78
  -3   4  -5   15.55    0.70
  -3   4  -5   15.77    0.72
  -1  -3  -5   15.05    0.87
  -3   4  -5   16.22    0.74
  -3   4  -5   15.44    0.63
   1   3   5   15.69    0.68
   1   3   5   16.05    0.70
   3  -4   5   15.30    1.00
   1   3   5   15.16    0.73
   1   3   5   15.71    0.69
   3  -4   5   15.07    0.71
   3  -4   5   16.13    0.66
   3  -4   5   15.22    0.71
  -4   1   5   14.69    0.70
   3  -4   5   15.31    0.69
  -3   5  -5    9.75    0.57
  -3   5  -5    8.74    0.53
  -3   5  -5    9.19    0.56
  -3   5  -5    8.82    0.48
  -2  -3  -5    8.58    0.68
   5  -2  -5    9.59    0.50
  -2  -3  -5    8.97    0.60
   3  -5   5   10.22    0.58
  -5   2   5   10.11    0.57
   3  -5   5   10.52    0.53
   3  -5   5    9.86    0.56
   2   3   5   10.18    0.56
   2   3   5    9.58    0.55
   3  -5   5   10.17    0.81
   2   3   5    9.52    0.58
   2   3   5    9.87    0.56
   3  -5   5    9.61    0.57
   6  -3  -5   29.37    0.95
   6  -3  -5   28.66    0.95
  -3   6  -5   28.85    1.05
   6  -3  -5   28.85    1.04
  -3   6  -5   28.07    1.08
  -3  -3  -5   28.60    1.35
  -3   6  -5   29.26    1.04
  -6   3   5   30.97    1.08
   3  -6   5   29.87    1.09
   3  -6   5   30.30    1.05
   3   3   5   28.27    1.11
   3   3   5   30.02    1.06
   3   3   5   30.09    1.07
  -6   3   5   29.48    0.96
   3   3   5   30.00    1.04
   3  -6   5   27.61    1.05
  -3   7  -5    4.84    0.43
   7  -4  -5    5.04    0.42
  -3   7  -5    4.54    0.43
   7  -4  -5    4.52    0.37
   7  -4  -5    4.49    0.38
  -4  -3  -5    4.52    0.53
  -3   7  -5    5.04    0.42
  -7   4   5    3.83    0.38
   4   3   5    3.26    0.40
   4   3   5    3.81    0.43
   4   3   5    3.85    0.41
   3  -7   5    3.56    0.43
   3  -7   5    3.95    0.38
   4   3   5    3.69    0.39
   3  -7   5    4.09    0.41
  -7   4   5    3.97    0.37
  -2   6  -5   15.62    0.72
   6  -4  -5   13.55    0.63
  -2   6  -5   13.42    0.72
   6  -4  -5   15.03    0.72
  -4  -2  -5   14.82    0.92
  -2   6  -5   15.68    0.71
   6  -4  -5   15.35    0.63
  -6   4   5   14.38    0.69
   2  -6   5   16.10    0.71
   4   2   5   14.64    0.71
   4   2   5   14.96    0.68
   4   2   5   16.02    1.01
   4   2   5   16.04    0.71
  -6   4   5   13.99    0.64
   2  -6   5   14.09    0.71
   4   2   5   14.22    0.74
   2  -6   5   14.60    0.72
  -6   4   5   14.28    0.70
   4   2   5   14.23    0.71
  -1   5  -5    1.98    0.30
  -4  -1  -5    2.13    0.41
  -1   5  -5    1.79    0.30
  -1   5  -5    2.56    0.45
   5  -4  -5    1.93    0.31
  -1   5  -5    2.03    0.29
   5  -4  -5    2.33    0.31
   1  -5   5    2.03    0.31
   4   1   5    1.86    0.29
  -5   4   5    2.29    0.30
   4   1   5    2.12    0.33
   4   1   5    2.38    0.45
   4   1   5    2.29    0.32
  -5   4   5    2.18    0.32
   1  -5   5    2.11    0.30
   4   1   5    1.71    0.30
   4   1   5    2.38    0.33
   1  -5   5    2.18    0.33
   0   4  -5   37.29    1.14
   4  -4  -5   35.27    1.13
   0   4  -5   37.12    1.16
  -4   0  -5   33.74    1.51
  -4   0  -5   35.69    1.13
   0   4  -5   37.01    1.64
   4  -4  -5   35.64    1.23
  -4   0  -5   35.73    1.14
   0   4  -5   35.99    1.25
   0  -4   5   38.59    1.20
   4   0   5   37.52    1.14
   4   0   5   37.79    1.69
   0  -4   5   38.26    1.14
   4   0   5   38.99    1.17
   4   0   5   37.67    1.22
   4   0   5   36.92    1.18
   4   0   5   38.55    1.20
   0  -4   5   37.92    1.22
   4   0   5   38.43    1.25
  -4   4   5   38.92    1.24
  -4   4   5   36.88    1.11
  -4   1  -5   14.42    0.89
   1   3  -5   16.26    0.68
   3  -4  -5   15.11    0.73
   1   3  -5   16.88    0.97
   3  -4  -5   15.56    0.69
   1   3  -5   14.95    0.73
  -4   1  -5   14.77    0.65
  -4   1  -5   14.94    0.67
   4  -1   5   14.62    0.68
   4  -1   5   14.80    0.68
  -3   4   5   14.10    0.70
  -1  -3   5   15.40    0.68
   4  -1   5   15.71    0.69
  -1  -3   5   14.95    0.69
  -1  -3   5   14.30    0.70
   4  -1   5   15.18    0.71
   4  -1   5   15.01    0.97
   4  -1   5   16.35    0.72
  -3   4   5   15.72    0.67
   4  -1   5   15.28    0.65
  -4   2  -5    5.66    0.55
  -4   2  -5    4.53    0.40
  -4   2  -5    5.30    0.39
   2  -4  -5    4.85    0.40
  -4   2  -5    5.00    0.39
   2  -4  -5    4.59    0.41
   2   2  -5    4.73    0.36
   2   2  -5    4.82    0.50
   4  -2   5    5.53    0.42
  -2  -2   5    5.25    0.41
  -2   4   5    5.60    0.43
  -2   4   5    5.33    0.39
   4  -2   5    5.73    0.42
   4  -2   5    6.14    0.62
   4  -2   5    5.23    0.40
   4  -2   5    5.56    0.42
  -2  -2   5    5.12    0.38
  -2  -2   5    5.29    0.43
   4  -2   5    5.14    0.40
  -2   4   5    5.61    0.41
  -4   3  -5   17.30    0.96
   1  -4  -5   16.19    0.87
  -4   3  -5   17.62    0.73
  -4   3  -5   16.22    0.73
  -4   3  -5   16.69    0.69
  -4   3  -5   16.38    0.73
   1  -4  -5   17.55    0.79
  -3  -1   5   16.05    0.70
  -1   4   5   17.11    0.71
   4  -3   5   15.96    1.03
  -3  -1   5   15.26    0.74
   4  -3   5   15.26    0.71
  -1   4   5   15.92    0.70
   4  -3   5   16.22    0.72
  -1   4   5   15.77    0.76
   4  -3   5   16.31    0.70
   4  -3   5   15.86    0.72
  -4   4  -5   36.65    1.13
  -4   4  -5   38.91    1.25
  -4   4  -5   37.30    1.21
  -4   4  -5   37.55    1.24
   0  -4  -5   37.65    1.52
   0  -4  -5   37.03    1.29
  -4   4  -5   37.21    1.23
   4  -4   5   37.51    1.22
   0   4   5   39.99    1.22
   4  -4   5   39.00    1.24
   0   4   5   38.86    1.19
   4  -4   5   39.11    1.77
   0   4   5   40.12    1.18
   0   4   5   37.44    1.27
   4  -4   5   38.87    1.25
  -4   0   5   38.16    1.26
   4  -4   5   39.25    1.17
   5  -1  -5    1.74    0.27
  -4   5  -5    2.16    0.29
  -4   5  -5    2.15    0.32
  -1  -4  -5    2.02    0.33
  -1  -4  -5    2.33    0.41
  -4   5  -5    2.14    0.33
  -4   5  -5    2.18    0.32
  -4   5  -5    2.04    0.32
   4  -5   5    2.35    0.31
   1   4   5    2.36    0.32
   4  -5   5    2.55    0.34
   1   4   5    2.21    0.33
   1   4   5    2.27    0.33
   4  -5   5    2.16    0.33
   1   4   5    2.10    0.31
   4  -5   5    1.99    0.31
  -5   1   5    2.19    0.33
   4  -5   5    1.74    0.42
  -4   6  -5   15.43    0.72
  -4   6  -5   15.74    0.66
  -4   6  -5   14.58    0.72
  -2  -4  -5   14.64    0.79
   6  -2  -5   15.29    0.66
  -4   6  -5   15.64    0.76
  -2  -4  -5   14.66    0.91
  -4   6  -5   15.13    0.73
   4  -6   5   15.27    0.72
   4  -6   5   15.12    0.74
  -6   2   5   15.12    0.74
   2   4   5   15.69    0.73
   4  -6   5   15.29    0.67
   2   4   5   14.60    0.70
   2   4   5   14.33    0.75
   2   4   5   13.92    0.69
   4  -6   5   15.81    0.75
  -4   7  -5    4.93    0.43
  -4   7  -5    4.52    0.41
   7  -3  -5    4.33    0.37
  -4   7  -5    4.81    0.43
  -3  -4  -5    5.87    0.57
  -4   7  -5    4.78    0.37
   3   4   5    4.15    0.42
   3   4   5    3.69    0.42
   4  -7   5    4.37    0.38
   3   4   5    3.84    0.39
   4  -7   5    3.55    0.43
   3   4   5    4.38    0.41
   4  -7   5    3.88    0.40
  -7   3   5    3.44    0.42
   4  -7   5    3.68    0.37
  -4   8  -5    0.90    0.25
  -4   8  -5    1.21    0.29
  -4   8  -5    1.20    0.28
   8  -4  -5    1.42    0.26
   8  -4  -5    1.29    0.27
   8  -4  -5    1.23    0.25
  -4  -4  -5    1.41    0.37
  -8   4   5    1.67    0.32
   4  -8   5    1.62    0.31
   4   4   5    1.45    0.30
   4  -8   5    1.68    0.31
   4   4   5    1.54    0.31
  -8   4   5    1.61    0.27
   4   4   5    1.70    0.19
   4   4   5    1.23    0.30
   4   4   5    1.51    0.31
   4  -8   5    1.83    0.33
  -4   9  -5   11.12    0.65
   9  -5  -5   11.07    0.60
   9  -5  -5   11.07    0.59
   9  -5  -5   10.91    0.65
  -4   9  -5   11.40    0.65
  -4   9  -5   11.64    0.70
  -9   5   5   11.00    0.62
   4  -9   5   11.22    0.65
   5   4   5   10.57    0.68
   5   4   5   10.46    0.64
   5   4   5   11.62    0.46
  -9   5   5   12.20    0.69
   4  -9   5   10.47    0.65
   5   4   5   11.31    0.68
   4  -9   5   11.28    0.68
   5   4   5   11.29    0.67
  -3   8  -5   15.90    0.79
  -3   8  -5   15.38    0.74
   8  -5  -5   16.56    0.68
   8  -5  -5   17.63    0.80
  -5  -3  -5   16.25    1.01
   8  -5  -5   16.82    0.72
  -3   8  -5   15.89    0.76
   5   3   5   15.28    0.74
   3  -8   5   14.34    0.72
   5   3   5   14.40    0.50
  -8   5   5   14.13    0.68
   3  -8   5   14.73    0.76
   5   3   5   13.13    0.75
   3  -8   5   12.96    0.73
   5   3   5   15.13    0.73
  -8   5   5   14.31    0.74
   5   3   5   15.92    0.79
   5   3   5   14.15    0.74
   7  -5  -5    0.49    0.20
  -2   7  -5    0.78    0.22
  -5  -2  -5    0.74    0.28
  -2   7  -5    0.77    0.24
  -2   7  -5    0.78    0.23
   7  -5  -5    0.93    0.25
   2  -7   5    0.61    0.22
  -7   5   5    0.53    0.20
   5   2   5    0.57    0.29
   5   2   5    0.28    0.18
   2  -7   5    0.41    0.19
   2  -7   5    0.56    0.20
   5   2   5    0.53    0.21
   5   2   5    0.47    0.20
   5   2   5    0.35    0.20
   5   2   5    0.46    0.21
  -1   6  -5    3.54    0.35
  -5  -1  -5    4.04    0.51
  -1   6  -5    3.31    0.41
  -1   6  -5    4.08    0.39
   6  -5  -5    3.37    0.38
   6  -5  -5    3.65    0.38
   1  -6   5    4.19    0.41
   5   1   5    4.46    0.41
   5   1   5    3.61    0.40
  -6   5   5    4.57    0.41
   5   1   5    3.85    0.39
   5   1   5    5.09    0.42
   5   1   5    4.98    0.58
   1  -6   5    4.72    0.39
   5   1   5    5.15    0.45
  -6   5   5    5.05    0.43
   1  -6   5    4.27    0.40
   0   5  -5    6.93    0.48
   5  -5  -5    6.80    0.50
   0   5  -5    6.32    0.62
   5  -5  -5    6.04    0.44
  -5   0  -5    5.69    0.59
  -5   0  -5    6.22    0.45
   0   5  -5    6.45    0.45
   0   5  -5    6.57    0.50
  -5   0  -5    6.54    0.45
   0  -5   5    7.46    0.50
   5   0   5    8.36    0.54
  -5   5   5    8.10    0.49
   5   0   5    8.54    0.53
   0  -5   5    8.72    0.49
  -5   5   5    8.35    0.53
   5   0   5    8.12    0.52
   0  -5   5    8.09    0.53
   5   0   5    7.71    0.49
   5   0   5    8.52    0.74
   5   0   5    8.19    0.48
   5   0   5    8.59    0.54
  -5   1  -5    2.13    0.30
   1   4  -5    2.00    0.29
   1   4  -5    2.00    0.40
   4  -5  -5    1.76    0.29
   4  -5  -5    2.16    0.33
  -5   1  -5    1.91    0.39
   1   4  -5    1.53    0.29
  -5   1  -5    2.08    0.30
   5  -1   5    1.86    0.30
   5  -1   5    2.01    0.43
   5  -1   5    2.37    0.34
  -1  -4   5    2.17    0.33
   5  -1   5    1.98    0.32
   5  -1   5    1.95    0.29
   5  -1   5    1.93    0.31
  -4   5   5    1.91    0.31
  -4   5   5    2.50    0.33
  -1  -4   5    2.18    0.31
   5  -1   5    2.03    0.30
  -5   2  -5    8.61    0.54
  -5   2  -5    7.79    0.66
   2   3  -5    8.14    0.49
  -5   2  -5    8.40    0.51
  -5   2  -5    8.60    0.50
   2   3  -5    8.70    0.69
   3  -5  -5    8.43    0.56
   3  -5  -5    8.80    0.53
   5  -2   5    9.60    0.54
  -2  -3   5    8.80    0.56
  -3   5   5    9.04    0.52
   5  -2   5    9.06    0.50
   5  -2   5    9.70    0.56
   5  -2   5    9.06    0.56
  -2  -3   5    9.99    0.53
  -3   5   5    9.12    0.56
   5  -2   5    9.29    0.54
   5  -2   5    9.74    0.79
  -2  -3   5    9.71    0.56
   5  -2   5    8.43    0.52
  -3   5   5   10.21    0.53
  -5   3  -5    8.55    0.70
  -5   3  -5   10.08    0.58
  -5   3  -5    9.10    0.53
   2  -5  -5    8.47    0.57
  -5   3  -5    8.95    0.54
   3   2  -5    9.83    0.52
   2  -5  -5   10.19    0.58
   2  -5  -5    9.52    0.65
  -5   3  -5    9.97    0.54
  -3  -2   5   10.74    0.54
  -2   5   5   10.37    0.55
  -2   5   5    9.97    0.55
   5  -3   5    9.56    0.54
  -2   5   5   10.27    0.60
   5  -3   5   10.68    0.60
   5  -3   5    8.75    0.78
  -3  -2   5   10.71    0.57
  -3  -2   5   10.62    0.61
   5  -3   5   10.06    0.58
   5  -3   5   10.27    0.57
  -5   4  -5    2.07    0.31
  -5   4  -5    2.13    0.33
   1  -5  -5    2.41    0.39
  -5   4  -5    1.92    0.30
   1  -5  -5    2.25    0.35
  -5   4  -5    2.10    0.29
  -4  -1   5    2.31    0.33
  -1   5   5    2.34    0.35
  -1   5   5    2.62    0.34
   5  -4   5    2.38    0.34
  -1   5   5    2.71    0.34
   5  -4   5    2.14    0.31
   5  -4   5    2.50    0.33
   5  -4   5    2.21    0.46
  -4  -1   5    2.40    0.32
   5  -4   5    2.33    0.33
  -5   5  -5    7.71    0.52
   0  -5  -5    6.73    0.59
  -5   5  -5    6.80    0.45
  -5   5  -5    6.20    0.47
   0  -5  -5    6.90    0.52
  -5   5  -5    6.54    0.48
  -5   5  -5    6.89    0.49
   5   0  -5    6.83    0.46
   5  -5   5    8.27    0.53
   0   5   5    8.61    0.56
   5  -5   5    8.12    0.49
   0   5   5    8.78    0.54
   5  -5   5    9.18    0.55
   5  -5   5    8.90    0.78
   0   5   5    9.25    0.52
  -5   0   5    8.62    0.55
   0   5   5    8.31    0.52
   5  -5   5    8.24    0.54
   6  -1  -5    3.98    0.36
  -5   6  -5    3.72    0.43
  -5   6  -5    3.66    0.35
  -5   6  -5    3.64    0.38
  -5   6  -5    3.73    0.43
  -5   6  -5    3.96    0.38
  -1  -5  -5    3.19    0.43
  -1  -5  -5    3.50    0.45
   1   5   5    4.13    0.39
  -6   1   5    4.03    0.40
   5  -6   5    4.77    0.42
   5  -6   5    4.03    0.40
   5  -6   5    4.00    0.39
   1   5   5    4.08    0.41
   5  -6   5    4.37    0.37
   1   5   5    4.24    0.40
   1   5   5    4.13    0.41
  -5   7  -5    0.84    0.21
  -5   7  -5    0.55    0.22
  -5   7  -5    0.53    0.21
  -5   7  -5    0.89    0.24
  -2  -5  -5    0.81    0.25
  -5   7  -5    0.61    0.22
  -2  -5  -5    0.52    0.25
   7  -2  -5    0.66    0.21
   5  -7   5    0.42    0.21
   5  -7   5    0.71    0.23
  -7   2   5    0.52    0.21
   5  -7   5    0.68    0.21
   2   5   5    0.45    0.20
   2   5   5    0.59    0.21
   5  -7   5    0.59    0.22
   2   5   5    0.38    0.21
   2   5   5    0.17    0.19
  -3  -5  -5   14.74    0.95
  -5   8  -5   16.43    0.78
  -5   8  -5   15.52    0.67
   8  -3  -5   15.70    0.69
  -5   8  -5   15.57    0.76
  -5   8  -5   15.91    0.80
  -5   8  -5   15.18    0.78
   3   5   5   13.41    0.76
   5  -8   5   14.86    0.74
   3   5   5   13.82    0.72
   3   5   5   14.18    0.49
   3   5   5   13.86    0.74
   3   5   5   13.91    0.74
   5  -8   5   14.00    0.75
   5  -8   5   13.86    0.75
  -8   3   5   14.77    0.77
  -5   9  -5   11.09    0.69
  -5   9  -5   11.95    0.71
  -5   9  -5   12.84    0.71
  -5   9  -5   12.33    0.69
   9  -4  -5   12.35    0.63
   4   5   5   12.73    0.69
   4   5   5   13.42    0.73
   4   5   5   12.38    0.48
   5  -9   5   11.17    0.68
   5  -9   5   12.16    0.70
  -9   4   5   12.04    0.70
   5  -9   5   11.76    0.67
   4   5   5   13.44    0.72
   4   5   5   12.41    0.74
  10  -5  -5    0.84    0.23
  10  -5  -5    0.61    0.23
  -5  10  -5    0.89    0.26
  -5  10  -5    1.57    0.32
  10  -5  -5    0.60    0.22
  -5  10  -5    0.64    0.24
   5   5   5    0.99    0.29
   5   5   5    0.55    0.25
   5   5   5    0.98    0.29
   5 -10   5    0.54    0.23
   5   5   5    0.80    0.17
   5   5   5    0.88    0.26
 -10   5   5    1.04    0.28
   5 -10   5    0.89    0.26
   5 -10   5    0.75    0.26
  -5  11  -5    9.32    0.62
  11  -6  -5    9.58    0.64
  -5  11  -5    9.65    0.66
  11  -6  -5   10.28    0.59
  -5  11  -5    9.45    0.63
  11  -6  -5   11.80    0.65
   5 -11   5    8.18    0.61
   6   5   5    6.97    0.59
   6   5   5    8.47    0.63
   6   5   5    7.64    0.58
   6   5   5    8.16    0.61
   6   5   5    8.50    0.45
   5 -11   5    7.83    0.60
 -11   6   5    8.30    0.62
  10  -6  -5    0.99    0.26
  10  -6  -5    1.70    0.34
  -4  10  -5    1.52    0.30
  -4  10  -5    1.60    0.32
  10  -6  -5    1.36    0.27
  -4  10  -5    1.30    0.31
   6   4   5    1.63    0.34
   4 -10   5    1.78    0.34
 -10   6   5    2.18    0.36
 -10   6   5    2.01    0.34
   6   4   5    1.95    0.34
   6   4   5    1.89    0.36
   4 -10   5    1.78    0.35
   6   4   5    1.90    0.23
   6   4   5    2.26    0.37
   9  -6  -5   16.91    0.77
  -3   9  -5   17.18    0.81
  -3   9  -5   16.46    0.86
   9  -6  -5   16.51    0.83
  -3   9  -5   17.26    0.83
   6   3   5   18.91    0.89
   6   3   5   17.55    0.82
  -9   6   5   18.57    0.80
   3  -9   5   18.12    0.82
   3  -9   5   18.29    0.86
   6   3   5   18.86    0.86
   6   3   5   18.23    0.61
   3  -9   5   18.31    0.87
   6   3   5   17.82    0.85
  -9   6   5   20.36    0.88
   6   3   5   17.41    0.89
  -6  -2  -5   14.95    0.97
   8  -6  -5   13.36    0.68
  -2   8  -5   15.00    0.74
  -2   8  -5   14.30    0.77
  -2   8  -5   15.17    0.73
   8  -6  -5   14.01    0.75
   6   2   5   14.10    0.75
  -8   6   5   14.95    0.71
   6   2   5   15.09    0.79
   6   2   5   15.55    0.77
   6   2   5   14.43    0.73
   2  -8   5   14.53    0.72
   6   2   5   14.21    0.50
   2  -8   5   14.35    0.75
   6   2   5   14.10    0.74
   2  -8   5   14.06    0.74
  -6  -1  -5   14.58    0.70
  -1   7  -5   15.65    0.79
  -6  -1  -5   15.67    0.70
   7  -6  -5   15.41    0.76
  -1   7  -5   14.14    0.70
  -1   7  -5   15.93    0.71
  -6  -1  -5   14.41    0.95
   7  -6  -5   14.42    0.69
   6   1   5   13.86    0.46
   6   1   5   12.65    0.72
   1  -7   5   13.87    0.68
   6   1   5   12.54    0.71
   6   1   5   14.33    0.73
   1  -7   5   13.70    0.71
  -7   6   5   13.44    0.71
   6   1   5   13.82    0.69
   1  -7   5   13.51    0.72
   6   1   5   14.06    0.71
  -7   6   5   13.70    0.69
   6  -6  -5   41.76    1.28
   6  -6  -5   40.87    1.39
   0   6  -5   43.35    1.34
  -6   0  -5   43.21    1.31
   0   6  -5   41.87    1.42
  -6   0  -5   42.64    1.78
  -6   0  -5   43.42    1.32
   0   6  -5   43.49    1.29
   6   0   5   41.41    1.41
   6   0   5   42.62    1.31
   0  -6   5   42.48    1.39
   6   0   5   40.80    1.37
   0  -6   5   41.98    1.35
   0  -6   5   42.76    1.29
  -6   6   5   42.88    1.29
   6   0   5   40.51    1.33
   6   0   5   41.06    1.29
   6   0   5   42.04    1.35
  -6   6   5   41.92    1.39
   1   5  -5    3.69    0.37
   5  -6  -5    3.27    0.41
   1   5  -5    3.87    0.51
  -6   1  -5    3.85    0.37
   1   5  -5    3.36    0.43
  -6   1  -5    4.07    0.38
  -6   1  -5    3.72    0.54
   5  -6  -5    3.92    0.38
  -5   6   5    4.92    0.42
  -5   6   5    5.10    0.42
   6  -1   5    3.56    0.42
  -1  -5   5    4.86    0.41
   6  -1   5    4.76    0.40
   6  -1   5    4.58    0.42
  -1  -5   5    4.30    0.40
   6  -1   5    4.66    0.58
   6  -1   5    4.43    0.38
   6  -1   5    5.04    0.42
   6  -1   5    4.90    0.43
   2   4  -5   15.22    0.96
   2   4  -5   15.34    0.68
  -6   2  -5   15.06    0.70
   4  -6  -5   14.89    0.75
   4  -6  -5   15.30    0.70
  -6   2  -5   14.11    0.66
  -6   2  -5   13.87    0.92
  -2  -4   5   14.96    0.69
   6  -2   5   14.66    0.72
  -4   6   5   14.06    0.68
   6  -2   5   15.04    0.73
   6  -2   5   14.38    0.72
   6  -2   5   14.69    0.71
  -2  -4   5   14.11    0.70
  -2  -4   5   13.70    0.72
   6  -2   5   14.22    0.69
   6  -2   5   14.00    1.00
  -4   6   5   15.07    0.75
   6  -2   5   14.89    0.67
   3   3  -5   28.11    1.37
  -6   3  -5   28.71    1.05
   3  -6  -5   26.76    1.09
  -6   3  -5   28.39    1.06
  -6   3  -5   28.28    1.00
   3   3  -5   29.40    0.99
  -6   3  -5   28.85    1.38
   3  -6  -5   27.54    1.01
  -3   6   5   29.25    1.02
   6  -3   5   28.84    1.50
  -3   6   5   30.41    1.02
   6  -3   5   30.09    1.09
   6  -3   5   29.49    1.05
  -3   6   5   29.54    1.11
   6  -3   5   29.32    1.07
   6  -3   5   29.89    1.04
  -3  -3   5   29.41    1.05
  -3  -3   5   28.02    1.09
   6  -3   5   28.55    1.04
   6  -3   5   30.06    0.97
  -3  -3   5   30.07    1.01
  -6   4  -5   15.53    0.75
  -6   4  -5   15.26    0.73
   2  -6  -5   14.87    0.85
  -6   4  -5   15.32    0.68
   2  -6  -5   14.95    0.72
   2  -6  -5   15.10    0.77
   4   2  -5   15.45    0.66
  -6   4  -5   14.59    0.68
   6  -4   5   14.02    0.72
   6  -4   5   15.53    0.74
  -4  -2   5   14.08    0.69
   6  -4   5   14.18    0.69
   6  -4   5   14.36    0.71
  -2   6   5   15.34    0.70
  -2   6   5   15.02    0.69
  -4  -2   5   14.95    0.65
  -4  -2   5   15.07    0.76
  -2   6   5   14.61    0.74
  -6   5  -5    3.66    0.37
  -6   5  -5    3.75    0.36
  -6   5  -5    3.63    0.43
   1  -6  -5    3.30    0.43
  -6   5  -5    3.33    0.40
   1  -6  -5    3.86    0.40
  -1   6   5    4.45    0.40
   6  -5   5    4.67    0.42
  -1   6   5    3.88    0.41
  -5  -1   5    4.10    0.40
  -1   6   5    4.69    0.42
  -5  -1   5    4.70    0.40
   6  -5   5    3.95    0.40
   6  -5   5    4.27    0.40
   6  -5   5    3.79    0.37
  -6   6  -5   41.94    1.34
   0  -6  -5   39.41    1.64
  -6   6  -5   40.90    1.34
   6   0  -5   42.17    1.25
  -6   6  -5   40.89    1.25
  -6   6  -5   42.05    1.37
   0  -6  -5   40.69    1.43
  -6   6  -5   44.73    1.38
  -6   0   5   39.18    1.36
   6  -6   5   39.51    1.33
   0   6   5   40.82    1.30
   6  -6   5   40.54    1.33
   0   6   5   39.34    1.38
   6  -6   5   39.52    1.26
   0   6   5   40.95    1.31
   6  -6   5   40.26    1.35
  -6   7  -5   15.71    0.70
  -6   7  -5   17.56    0.80
  -1  -6  -5   15.19    0.80
  -6   7  -5   15.24    0.77
  -1  -6  -5   16.26    0.96
  -6   7  -5   16.14    0.77
   7  -1  -5   15.66    0.69
  -6   7  -5   15.58    0.76
   1   6   5   14.95    0.74
   6  -7   5   14.10    0.74
   1   6   5   14.51    0.48
   6  -7   5   14.43    0.75
  -7   1   5   13.78    0.75
   1   6   5   14.56    0.73
   6  -7   5   14.05    0.68
   6  -7   5   13.85    0.72
   1   6   5   14.01    0.71
   1   6   5   13.93    0.77
  -6   8  -5   13.40    0.72
  -2  -6  -5   13.12    0.78
  -6   8  -5   14.21    0.67
  -2  -6  -5   14.66    0.94
  -6   8  -5   13.57    0.75
  -6   8  -5   14.03    0.73
   8  -2  -5   14.05    0.67
  -6   8  -5   14.34    0.74
   6  -8   5   14.13    0.73
   6  -8   5   14.33    0.75
   2   6   5   14.40    0.77
   6  -8   5   14.39    0.69
   6  -8   5   12.85    0.71
   2   6   5   13.69    0.70
   2   6   5   14.80    0.74
  -8   2   5   14.49    0.77
   2   6   5   14.51    0.50
   2   6   5   14.45    0.74
  -3  -6  -5   17.48    0.93
  -6   9  -5   16.93    0.86
  -6   9  -5   17.30    0.83
  -6   9  -5   16.99    0.75
  -6   9  -5   17.37    0.86
  -6   9  -5   16.87    0.82
   9  -3  -5   16.69    0.75
   6  -9   5   17.40    0.85
   3   6   5   18.32    0.84
  -9   3   5   18.01    0.89
   6  -9   5   17.81    0.87
   3   6   5   17.69    0.85
   3   6   5   19.32    0.92
   3   6   5   18.35    0.61
   3   6   5   19.50    0.88
   6  -9   5   19.77    0.87
  -6  10  -5    1.45    0.32
  -6  10  -5    1.84    0.31
  -6  10  -5    1.32    0.31
  -6  10  -5    1.38    0.31
  -6  10  -5    1.58    0.31
  10  -4  -5    1.26    0.27
   6 -10   5    1.64    0.33
 -10   4   5    1.47    0.33
   6 -10   5    1.87    0.34
   6 -10   5    1.92    0.34
   4   6   5    1.97    0.24
   4   6   5    2.03    0.37
   4   6   5    1.56    0.32
   4   6   5    1.50    0.33
   4   6   5    1.79    0.33
  11  -5  -5   10.37    0.60
  -6  11  -5   10.26    0.65
  -6  11  -5    9.31    0.63
  -6  11  -5   10.84    0.69
  11  -5  -5   11.46    0.62
  -6  11  -5   10.55    0.68
   6 -11   5    8.66    0.63
 -11   5   5    8.79    0.64
   5   6   5    8.13    0.62
   5   6   5    7.57    0.60
   6 -11   5    8.83    0.61
   5   6   5    8.27    0.64
   5   6   5    9.22    0.47
   6 -11   5    8.56    0.62
   5   6   5    8.16    0.59
  12  -6  -5    8.55    0.57
  12  -6  -5    8.90    0.59
  12  -6  -5    7.35    0.58
  -6  12  -5    9.10    0.63
  -6  12  -5    8.69    0.63
  -6  12  -5    7.40    0.61
  -6  12  -5    9.23    0.67
   6   6   5    9.80    0.51
 -12   6   5    9.33    0.67
   6   6   5   10.17    0.67
   6   6   5   10.25    0.70
   6   6   5    9.80    0.70
   6 -12   5    9.23    0.65
   6   6   5   10.15    0.67
   6 -12   5    8.21    0.63
  -6  13  -5    2.91    0.45
  -6  13  -5    2.65    0.44
  -6  13  -5    2.59    0.42
  13  -7  -5    3.06    0.43
  -6  13  -5    3.27    0.47
  13  -7  -5    2.53    0.38
  13  -7  -5    2.41    0.41
   7   6   5    2.38    0.41
   6 -13   5    2.97    0.46
 -13   7   5    2.50    0.44
   7   6   5    3.51    0.50
   7   6   5    2.99    0.31
   6 -13   5    3.35    0.47
   7   6   5    2.99    0.45
  -5  12  -5    8.92    0.63
  -5  12  -5    9.38    0.65
  12  -7  -5   10.06    0.68
  12  -7  -5    9.51    0.61
  -5  12  -5    9.15    0.67
  12  -7  -5    9.93    0.61
   7   5   5    9.30    0.64
   7   5   5    9.28    0.69
   5 -12   5   10.46    0.69
 -12   7   5   10.53    0.72
   7   5   5   10.02    0.52
   7   5   5    9.73    0.69
   7   5   5   10.40    0.69
   5 -12   5   10.47    0.70
  -4  11  -5    2.91    0.43
  11  -7  -5    3.67    0.44
  -4  11  -5    3.22    0.43
  11  -7  -5    2.94    0.43
  -4  11  -5    3.17    0.43
  11  -7  -5    3.54    0.41
   4 -11   5    3.29    0.45
   7   4   5    2.62    0.42
   7   4   5    3.49    0.29
   7   4   5    3.65    0.46
   7   4   5    3.19    0.43
   4 -11   5    3.14    0.45
 -11   7   5    3.11    0.43
   7   4   5    3.28    0.46
  10  -7  -5    7.25    0.51
  10  -7  -5    6.97    0.55
  -3  10  -5    6.21    0.51
  -3  10  -5    5.94    0.53
  -3  10  -5    7.15    0.53
   7   3   5    6.34    0.55
   7   3   5    5.91    0.51
   3 -10   5    6.46    0.53
   7   3   5    5.52    0.51
   7   3   5    6.96    0.55
   3 -10   5    6.97    0.55
   7   3   5    6.22    0.54
   7   3   5    6.66    0.38
 -10   7   5    6.50    0.51
  -2   9  -5    2.78    0.42
   9  -7  -5    2.32    0.35
  -2   9  -5    2.99    0.39
  -2   9  -5    2.67    0.39
   7   2   5    3.87    0.47
  -9   7   5    4.20    0.42
   2  -9   5    4.37    0.44
   2  -9   5    4.06    0.47
   7   2   5    4.10    0.46
   7   2   5    4.11    0.47
   7   2   5    4.05    0.49
   7   2   5    4.10    0.28
   7   2   5    4.54    0.45
  -1   8  -5    2.79    0.39
  -1   8  -5    2.45    0.35
  -7  -1  -5    2.26    0.33
  -1   8  -5    1.64    0.32
   8  -7  -5    2.06    0.35
   8  -7  -5    2.32    0.35
  -7  -1  -5    2.63    0.36
   1  -8   5    2.55    0.37
  -8   7   5    2.24    0.35
   7   1   5    2.06    0.35
   7   1   5    2.08    0.36
   1  -8   5    2.52    0.37
   7   1   5    1.89    0.35
   7   1   5    2.58    0.37
   7   1   5    2.46    0.22
   7   1   5    1.87    0.34
   0   7  -5   14.04    0.76
   7  -7  -5   13.68    0.74
  -7   0  -5   13.48    0.67
  -7   0  -5   13.61    0.94
   7  -7  -5   14.50    0.70
  -7   0  -5   14.33    0.70
   0   7  -5   14.59    0.72
   0   7  -5   14.13    0.67
   7   0   5   12.99    0.73
   0  -7   5   12.34    0.70
  -7   7   5   12.82    0.71
   7   0   5   13.07    0.74
   7   0   5   13.32    0.71
   7   0   5   14.24    0.71
   7   0   5   13.10    0.70
   7   0   5   13.66    0.47
  -7   7   5   14.18    0.69
   0  -7   5   12.37    0.68
  -7   1  -5   15.46    0.71
  -7   1  -5   15.60    0.72
   1   6  -5   14.56    0.76
  -7   1  -5   15.61    0.99
   1   6  -5   15.15    0.72
   6  -7  -5   14.97    0.72
   6  -7  -5   14.99    0.77
   7  -1   5   14.39    0.71
  -1  -6   5   13.64    0.73
   7  -1   5   13.12    0.71
   7  -1   5   13.83    0.74
  -1  -6   5   13.04    0.69
  -6   7   5   13.32    0.73
   7  -1   5   14.09    0.75
   7  -1   5   13.91    0.69
   7  -1   5   13.84    0.72
  -6   7   5   13.39    0.69
   7  -1   5   14.08    0.46
   2   5  -5    0.58    0.24
  -7   2  -5    0.45    0.25
   5  -7  -5    0.52    0.20
  -7   2  -5    0.44    0.19
  -7   2  -5    0.46    0.20
   5  -7  -5    0.43    0.21
   2   5  -5    0.97    0.24
  -5   7   5    0.58    0.22
  -2  -5   5    0.38    0.20
  -2  -5   5    0.67    0.23
   7  -2   5    0.67    0.23
   7  -2   5    0.53    0.21
  -2  -5   5    0.58    0.21
   7  -2   5    0.35    0.20
   7  -2   5    0.37    0.20
   7  -2   5    0.69    0.22
   7  -2   5    0.54    0.22
  -5   7   5    0.47    0.21
  -7   3  -5    4.83    0.42
   3   4  -5    4.65    0.53
   3   4  -5    4.68    0.39
  -7   3  -5    5.06    0.44
   4  -7  -5    4.65    0.42
  -7   3  -5    5.38    0.42
   4  -7  -5    4.32    0.43
  -7   3  -5    4.60    0.55
   7  -3   5    4.27    0.42
   7  -3   5    3.97    0.39
  -3  -4   5    4.24    0.43
  -3  -4   5    4.28    0.39
  -4   7   5    4.07    0.43
   7  -3   5    3.97    0.41
  -4   7   5    3.71    0.37
   7  -3   5    3.48    0.41
   7  -3   5    4.37    0.41
   7  -3   5    3.88    0.37
  -3  -4   5    4.19    0.40
  -4   7   5    3.87    0.41
  -7   4  -5    4.66    0.43
  -7   4  -5    4.18    0.39
  -7   4  -5    4.73    0.54
   3  -7  -5    4.54    0.41
  -7   4  -5    4.17    0.38
   3  -7  -5    4.98    0.45
   4   3  -5    4.73    0.38
   7  -4   5    4.05    0.39
   7  -4   5    3.99    0.41
  -3   7   5    3.87    0.41
  -4  -3   5    4.04    0.37
  -4  -3   5    3.55    0.42
  -3   7   5    3.59    0.41
  -3   7   5    3.36    0.39
  -4  -3   5    4.01    0.42
   7  -4   5    3.74    0.44
   7  -4   5    3.82    0.37
   2  -7  -5    0.70    0.24
  -7   5  -5    0.47    0.19
   2  -7  -5    0.62    0.25
  -7   5  -5    0.60    0.22
  -7   5  -5    0.59    0.20
  -7   5  -5    0.59    0.21
   2  -7  -5    0.55    0.23
  -5  -2   5    0.53    0.20
  -5  -2   5    0.42    0.21
   7  -5   5    0.48    0.22
   7  -5   5    0.26    0.18
   7  -5   5    0.51    0.21
  -2   7   5    0.79    0.23
  -2   7   5    0.70    0.23
  -2   7   5    0.78    0.24
  -2   7   5    0.49    0.11
   7  -5   5    0.41    0.21
   1  -7  -5   16.35    0.94
   6   1  -5   15.75    0.71
  -7   6  -5   15.11    0.74
  -7   6  -5   15.38    0.70
  -7   6  -5   15.85    0.75
  -7   6  -5   15.78    0.77
   1  -7  -5   15.39    0.81
  -1   7   5   13.79    0.71
  -1   7   5   14.25    0.78
   7  -6   5   14.43    0.71
   7  -6   5   14.28    0.73
   7  -6   5   13.62    0.72
   7  -6   5   13.74    0.74
  -6  -1   5   14.23    0.71
  -6  -1   5   13.27    0.74
  -1   7   5   15.14    0.74
   7   0  -5   13.15    0.66
   0  -7  -5   12.96    0.75
  -7   7  -5   12.87    0.65
  -7   7  -5   13.82    0.74
   0  -7  -5   13.68    0.88
  -7   7  -5   14.41    0.73
  -7   7  -5   12.82    0.71
  -7   7  -5   13.26    0.71
   0   7   5   13.00    0.74
   7  -7   5   12.86    0.70
  -7   0   5   12.26    0.71
   7  -7   5   13.59    0.72
   0   7   5   13.24    0.70
   0   7   5   13.46    0.71
   7  -7   5   14.06    0.74
   0   7   5   12.70    0.46
   7  -7   5   13.21    0.68
  -1  -7  -5    2.29    0.43
  -7   8  -5    1.95    0.34
   8  -1  -5    2.58    0.34
  -1  -7  -5    2.03    0.37
  -7   8  -5    1.73    0.32
  -7   8  -5    2.11    0.36
  -7   8  -5    1.87    0.33
  -7   8  -5    2.29    0.33
   1   7   5    2.50    0.38
   7  -8   5    2.55    0.38
   7  -8   5    2.13    0.35
   7  -8   5    2.05    0.35
   7  -8   5    2.02    0.33
   1   7   5    1.84    0.35
   1   7   5    2.45    0.21
   1   7   5    2.30    0.35
  -8   1   5    2.14    0.36
   1   7   5    2.34    0.36
  -2  -7  -5    2.51    0.41
  -7   9  -5    2.32    0.37
  -7   9  -5    2.15    0.36
  -7   9  -5    2.90    0.37
  -7   9  -5    2.79    0.41
   9  -2  -5    2.73    0.36
  -7   9  -5    2.78    0.40
   2   7   5    4.52    0.44
   2   7   5    4.61    0.45
   7  -9   5    4.34    0.43
  -9   2   5    4.39    0.51
   2   7   5    4.06    0.49
   2   7   5    4.08    0.28
   7  -9   5    4.26    0.43
   7  -9   5    4.31    0.50
   2   7   5    4.28    0.43
  -7  10  -5    6.00    0.52
  -3  -7  -5    5.94    0.55
  -7  10  -5    5.72    0.50
  10  -3  -5    5.82    0.46
  -7  10  -5    6.12    0.51
  -7  10  -5    6.83    0.54
  -7  10  -5    7.06    0.50
   3   7   5    5.41    0.52
   3   7   5    5.88    0.36
   7 -10   5    6.23    0.53
   7 -10   5    5.95    0.50
   3   7   5    5.38    0.49
   3   7   5    5.76    0.50
 -10   3   5    6.12    0.54
   7 -10   5    6.20    0.52
   3   7   5    6.39    0.53
  -7  11  -5    2.55    0.37
  -7  11  -5    2.26    0.39
  -4  -7  -5    2.91    0.46
  -7  11  -5    2.95    0.42
  -7  11  -5    2.87    0.43
  11  -4  -5    3.53    0.42
  -7  11  -5    2.50    0.40
   4   7   5    2.75    0.42
   4   7   5    3.45    0.46
   4   7   5    2.62    0.40
 -11   4   5    2.85    0.43
   7 -11   5    2.65    0.40
   7 -11   5    3.02    0.28
   7 -11   5    3.39    0.45
   7 -11   5    3.18    0.44
   4   7   5    3.19    0.43
   4   7   5    3.02    0.28
  -7  12  -5    9.87    0.69
  -7  12  -5   10.54    0.68
  -7  12  -5   10.06    0.70
  -7  12  -5   11.06    0.69
  12  -5  -5    9.83    0.62
   7 -12   5   10.13    0.52
   5   7   5   10.95    0.71
   5   7   5   10.47    0.53
 -12   5   5   10.83    0.73
   5   7   5   11.46    0.70
   5   7   5   10.79    0.72
   5   7   5   11.14    0.75
   7 -12   5   10.94    0.71
   7 -12   5   10.52    0.69
  -7  13  -5    3.11    0.47
  13  -6  -5    3.56    0.44
  -7  13  -5    2.91    0.43
  13  -6  -5    3.61    0.45
  -7  13  -5    3.68    0.48
  -7  13  -5    2.90    0.45
   6   7   5    3.74    0.49
 -13   6   5    3.62    0.51
   7 -13   5    3.23    0.47
   7 -13   5    2.67    0.43
   6   7   5    2.66    0.42
   6   7   5    3.25    0.33
   6   7   5    3.25    0.48
   7 -13   5    2.70    0.33
  -7  14  -5    0.30    0.23
  14  -7  -5    0.30    0.23
  -7  14  -5    0.55    0.27
  -7  14  -5    0.27    0.22
  14  -7  -5    0.55    0.24
  -7  14  -5    0.37    0.25
   7   7   5    0.22    0.25
   7 -14   5    0.26    0.24
   7 -14   5    0.23    0.24
   7 -14   5    0.24    0.17
   7   7   5    0.62    0.26
 -14   7   5    0.15    0.23
  -7  15  -5    1.66    0.36
  15  -8  -5    2.39    0.41
  15  -8  -5    2.19    0.38
   8   7   5    2.35    0.43
   7 -15   5    2.50    0.43
   8   7   5    2.28    0.43
  -6  14  -5    1.14    0.32
  14  -8  -5    1.00    0.29
  -6  14  -5    1.13    0.32
  -6  14  -5    1.29    0.34
  14  -8  -5    1.50    0.34
  -6  14  -5    1.24    0.33
   8   6   5    1.60    0.28
   6 -14   5    1.34    0.34
   8   6   5    1.67    0.39
   8   6   5    1.61    0.36
   8   6   5    1.83    0.39
   6 -14   5    1.55    0.27
 -14   8   5    1.81    0.40
   6 -14   5    1.91    0.38
  -5  13  -5    0.59    0.25
  13  -8  -5    0.83    0.25
  13  -8  -5    0.56    0.25
  13  -8  -5    0.83    0.27
  -5  13  -5    0.77    0.28
 -13   8   5    1.09    0.32
   5 -13   5    0.71    0.28
   8   5   5    0.48    0.25
   5 -13   5    0.83    0.29
   8   5   5    0.47    0.25
   8   5   5    0.68    0.20
   8   5   5    0.97    0.30
  -4  12  -5   37.53    1.44
  -4  12  -5   38.35    1.39
  12  -8  -5   39.60    1.34
  -4  12  -5   37.95    1.37
  12  -8  -5   38.81    1.44
   4 -12   5   36.68    1.38
   8   4   5   37.69    1.40
   8   4   5   34.33    1.13
   8   4   5   35.50    1.44
   8   4   5   39.25    1.42
   4 -12   5   37.88    1.43
   8   4   5   35.77    1.42
  -3  11  -5    1.62    0.33
  11  -8  -5    1.69    0.33
  -3  11  -5    1.34    0.30
  11  -8  -5    1.86    0.37
  -3  11  -5    1.74    0.36
   8   3   5    1.78    0.36
   8   3   5    1.90    0.35
   8   3   5    1.87    0.37
   8   3   5    1.88    0.36
   8   3   5    1.66    0.35
   3 -11   5    1.95    0.36
   8   3   5    1.75    0.25
   3 -11   5    1.70    0.35
  10  -8  -5    2.27    0.38
  -2  10  -5    2.29    0.36
  -2  10  -5    2.15    0.36
  -2  10  -5    2.55    0.40
  10  -8  -5    1.82    0.33
  -8  -2  -5    2.00    0.34
   8   2   5    2.25    0.37
 -10   8   5    2.13    0.36
   2 -10   5    2.23    0.38
   8   2   5    2.43    0.40
   8   2   5    2.00    0.36
   8   2   5    2.37    0.40
   8   2   5    2.45    0.39
   2 -10   5    1.78    0.34
   8   2   5    1.79    0.25
  -1   9  -5   10.00    0.67
  -8  -1  -5    9.29    0.57
  -1   9  -5    9.86    0.62
  -1   9  -5    9.74    0.60
  -8  -1  -5    8.61    0.57
   9  -8  -5    9.07    0.63
   9  -8  -5    8.93    0.58
   8   1   5    9.43    0.44
   1  -9   5    8.74    0.62
  -9   8   5    9.51    0.60
   8   1   5    9.35    0.62
   1  -9   5    9.00    0.61
   8   1   5    9.25    0.63
   8   1   5    9.18    0.63
   8   1   5    8.95    0.61
   8   1   5    9.22    0.65
   0   8  -5   35.30    1.34
   0   8  -5   36.61    1.27
   0   8  -5   35.84    1.22
   8  -8  -5   34.19    1.33
  -8   0  -5   37.33    1.25
   8  -8  -5   36.60    1.25
  -8   0  -5   37.30    1.26
   8   0   5   35.45    1.27
   8   0   5   37.82    1.33
   0  -8   5   37.77    1.30
   8   0   5   36.81    1.26
   8   0   5   37.89    1.35
   8   0   5   35.58    1.35
   8   0   5   38.55    1.01
   0  -8   5   36.60    1.32
  -8   8   5   37.39    1.24
   1   7  -5    2.10    0.36
   7  -8  -5    1.96    0.33
   7  -8  -5    2.18    0.36
  -8   1  -5    2.40    0.36
  -8   1  -5    2.50    0.35
   1   7  -5    2.29    0.35
   8  -1   5    2.65    0.39
  -7   8   5    2.29    0.35
   8  -1   5    2.61    0.40
   8  -1   5    2.10    0.35
   8  -1   5    2.27    0.21
  -7   8   5    2.01    0.35
  -1  -7   5    2.05    0.34
   8  -1   5    2.35    0.37
  -1  -7   5    2.16    0.36
   8  -1   5    2.14    0.34
  -8   2  -5   14.36    0.97
  -8   2  -5   14.23    0.72
   6  -8  -5   13.76    0.72
   2   6  -5   14.01    0.77
   2   6  -5   14.11    0.71
   6  -8  -5   14.41    0.79
  -8   2  -5   14.17    0.71
  -6   8   5   14.41    0.72
   8  -2   5   14.61    0.73
   8  -2   5   14.77    0.77
   8  -2   5   14.83    0.75
  -2  -6   5   13.86    0.72
   8  -2   5   14.46    0.50
  -2  -6   5   14.84    0.77
   8  -2   5   14.40    0.76
   8  -2   5   15.34    0.73
  -6   8   5   14.76    0.78
   8  -2   5   15.08    0.78
  -8   3  -5   15.63    1.01
  -8   3  -5   16.24    0.74
  -8   3  -5   14.77    0.74
   5  -8  -5   15.73    0.81
   5  -8  -5   15.82    0.75
   3   5  -5   15.95    0.74
   8  -3   5   14.77    0.50
   8  -3   5   13.90    0.72
   8  -3   5   15.13    0.72
   8  -3   5   14.26    0.73
   8  -3   5   15.25    0.77
  -5   8   5   14.68    0.78
  -3  -5   5   13.73    0.74
   8  -3   5   14.66    0.77
  -5   8   5   14.52    0.72
   8  -3   5   13.95    0.75
  -3  -5   5   13.90    0.76
  -3  -5   5   14.29    0.71
  -8   4  -5    1.09    0.26
  -8   4  -5    1.15    0.35
   4   4  -5    1.04    0.24
   4  -8  -5    1.35    0.28
   4  -8  -5    1.35    0.30
  -8   4  -5    1.21    0.28
  -8   4  -5    1.46    0.28
   8  -4   5    1.44    0.28
  -4   8   5    1.70    0.32
   8  -4   5    1.05    0.27
  -4   8   5    1.28    0.28
  -4   8   5    1.87    0.31
  -4  -4   5    1.54    0.32
   8  -4   5    1.13    0.28
   8  -4   5    1.63    0.30
  -4  -4   5    1.63    0.31
   8  -4   5    1.62    0.18
   8  -4   5    1.29    0.28
   3  -8  -5   14.99    0.74
  -8   5  -5   15.23    0.77
  -8   5  -5   15.14    0.70
  -8   5  -5   15.67    0.73
  -8   5  -5   14.71    0.75
   3  -8  -5   15.30    0.81
   5   3  -5   16.06    0.71
   3  -8  -5   13.87    0.86
   8  -5   5   14.72    0.73
  -5  -3   5   14.55    0.78
  -5  -3   5   14.47    0.74
   8  -5   5   13.59    0.73
   8  -5   5   12.93    0.71
   8  -5   5   13.83    0.75
  -3   8   5   14.63    0.72
  -3   8   5   14.07    0.72
   8  -5   5   13.86    0.49
   6   2  -5   14.01    0.69
   2  -8  -5   13.14    0.73
  -8   6  -5   12.84    0.66
   2  -8  -5   13.41    0.86
  -8   6  -5   12.91    0.69
  -8   6  -5   13.26    0.73
  -8   6  -5   13.79    0.74
   2  -8  -5   13.64    0.78
  -6  -2   5   14.67    0.72
   8  -6   5   13.68    0.48
   8  -6   5   14.86    0.75
   8  -6   5   13.85    0.73
  -2   8   5   13.31    0.75
   8  -6   5   13.53    0.74
   8  -6   5   13.92    0.71
  -6  -2   5   14.37    0.77
  -2   8   5   14.88    0.73
  -2   8   5   13.00    0.69
  -8   7  -5    2.48    0.36
  -8   7  -5    2.51    0.37
  -8   7  -5    2.27    0.36
   1  -8  -5    2.19    0.39
   1  -8  -5    2.49    0.45
   7   1  -5    2.43    0.35
  -8   7  -5    2.24    0.34
   8  -7   5    2.27    0.36
   8  -7   5    2.25    0.21
   8  -7   5    2.03    0.34
   8  -7   5    2.07    0.35
  -1   8   5    2.67    0.39
   8  -7   5    3.04    0.42
  -1   8   5    2.11    0.37
  -7  -1   5    1.95    0.32
  -1   8   5    2.16    0.35
   0  -8  -5   38.98    1.45
  -8   8  -5   37.67    1.34
  -8   8  -5   38.23    1.36
  -8   8  -5   36.70    1.35
   8   0  -5   38.28    1.26
  -8   8  -5   37.87    1.33
  -8   8  -5   37.80    1.26
   8  -8   5   39.95    1.37
   8  -8   5   39.74    1.37
   8  -8   5   38.97    1.04
   0   8   5   39.31    1.31
   8  -8   5   40.69    1.40
   0   8   5   40.91    1.36
   0   8   5   39.57    1.43
  -8   0   5   39.35    1.43
   8  -8   5   39.86    1.31
   9  -1  -5    8.95    0.56
  -8   9  -5    8.95    0.61
  -8   9  -5    9.38    0.62
  -8   9  -5    9.44    0.62
  -8   9  -5    9.80    0.65
  -1  -8  -5    9.19    0.67
  -8   9  -5    8.91    0.56
   1   8   5    8.56    0.60
   8  -9   5    8.67    0.60
   1   8   5    9.38    0.61
   8  -9   5    7.94    0.60
   1   8   5    9.35    0.64
   8  -9   5    8.83    0.42
   8  -9   5    8.90    0.61
  -9   1   5    9.13    0.64
   1   8   5    8.17    0.58
   1   8   5    8.97    0.43
  -2  -8  -5    2.50    0.41
  -8  10  -5    2.38    0.38
  -8  10  -5    2.56    0.41
  -8  10  -5    2.47    0.36
  -8  10  -5    2.53    0.40
  10  -2  -5    2.85    0.37
  -8  10  -5    2.28    0.38
   2   8   5    2.35    0.39
   8 -10   5    1.99    0.36
   2   8   5    2.28    0.39
   2   8   5    1.99    0.36
   2   8   5    2.54    0.41
   8 -10   5    2.12    0.37
   8 -10   5    1.99    0.24
 -10   2   5    2.40    0.40
   8 -10   5    2.40    0.40
   2   8   5    2.31    0.26
  -8  11  -5    1.40    0.32
  -3  -8  -5    0.82    0.30
  -8  11  -5    1.37    0.30
  -8  11  -5    1.00    0.28
  -8  11  -5    0.96    0.27
  11  -3  -5    1.34    0.30
  -8  11  -5    1.20    0.30
   3   8   5    1.78    0.25
   8 -11   5    1.74    0.34
   3   8   5    2.28    0.38
   8 -11   5    1.70    0.33
   8 -11   5    2.17    0.38
   3   8   5    1.49    0.34
 -11   3   5    1.73    0.36
   8 -11   5    1.84    0.25
   3   8   5    1.77    0.35
   3   8   5    1.66    0.35
  -4  -8  -5   38.43    1.52
  -8  12  -5   38.33    1.45
  12  -4  -5   38.47    1.31
  -8  12  -5   40.53    1.42
  -8  12  -5   39.27    1.42
  -8  12  -5   37.28    1.42
 -12   4   5   37.17    1.47
   4   8   5   35.87    1.40
   8 -12   5   36.85    1.39
   4   8   5   37.14    1.39
   4   8   5   37.76    1.47
   4   8   5   36.95    1.15
   8 -12   5   36.74    1.14
   8 -12   5   39.57    1.44
  -8  13  -5    0.67    0.27
  -8  13  -5    0.67    0.24
  -8  13  -5    0.70    0.27
  13  -5  -5    0.49    0.24
  -8  13  -5    0.72    0.27
  -8  13  -5    0.64    0.26
   8 -13   5    1.01    0.31
   8 -13   5    0.67    0.20
   8 -13   5    0.63    0.26
   5   8   5    0.61    0.28
   5   8   5    1.08    0.31
 -13   5   5    1.01    0.32
   5   8   5    0.61    0.26
   5   8   5    0.85    0.22
  -8  14  -5    1.46    0.35
  -8  14  -5    1.13    0.32
  14  -6  -5    1.04    0.28
  -8  14  -5    1.37    0.35
  -8  14  -5    0.85    0.29
   6   8   5    1.58    0.37
   8 -14   5    1.95    0.30
 -14   6   5    1.26    0.35
   6   8   5    2.15    0.32
   6   8   5    1.97    0.38
   8 -14   5    1.68    0.37
   6   8   5    1.71    0.37
   8 -14   5    1.87    0.40
  15  -7  -5    2.04    0.38
  -8  15  -5    2.40    0.42
   8 -15   5    2.41    0.43
   7   8   5    2.50    0.45
   7   8   5    2.11    0.41
  15  -9  -5    8.23    0.63
   9   6   5    8.18    0.65
   9   6   5    8.58    0.67
  14  -9  -5    6.90    0.57
  -5  14  -5    7.33    0.61
  -5  14  -5    6.68    0.59
  -5  14  -5    6.10    0.58
   5 -14   5    6.89    0.59
   5 -14   5    6.72    0.60
   9   5   5    7.12    0.59
   9   5   5    6.04    0.46
   9   5   5    6.95    0.60
   9   5   5    5.87    0.59
  -4  13  -5    2.94    0.44
  13  -9  -5    3.02    0.44
  -4  13  -5    3.37    0.46
  -9  -4  -5    3.38    0.46
  -4  13  -5    2.86    0.45
   9   4   5    3.86    0.51
   9   4   5    4.03    0.37
   9   4   5    4.30    0.52
   4 -13   5    4.42    0.54
   9   4   5    4.43    0.55
   9   4   5    3.67    0.51
   4 -13   5    3.94    0.51
  -9  -3  -5   15.34    0.81
  -3  12  -5   15.45    0.87
  12  -9  -5   15.60    0.87
  -3  12  -5   15.93    0.84
  -3  12  -5   16.02    0.83
  12  -9  -5   14.77    0.79
   9   3   5   14.94    0.85
   9   3   5   14.24    0.88
   9   3   5   14.51    0.64
   3 -12   5   14.44    0.83
   9   3   5   14.68    0.87
   9   3   5   15.29    0.82
   9   3   5   15.08    0.83
  -2  11  -5    7.16    0.59
  -9  -2  -5    8.16    0.58
  -2  11  -5    8.12    0.58
  11  -9  -5    7.68    0.62
  11  -9  -5    7.55    0.57
  -2  11  -5    8.16    0.60
   9   2   5    8.87    0.62
   2 -11   5    8.20    0.63
 -11   9   5    8.61    0.59
   2 -11   5    8.66    0.62
   9   2   5    8.31    0.46
   9   2   5    7.97    0.62
   9   2   5    8.47    0.62
   9   2   5    9.19    0.67
   9   2   5    7.58    0.61
  -9  -1  -5    3.03    0.40
  10  -9  -5    2.93    0.43
  -1  10  -5    3.04    0.41
  -1  10  -5    2.44    0.41
  -1  10  -5    3.08    0.42
  -9  -1  -5    3.66    0.45
  10  -9  -5    2.82    0.39
   1 -10   5    2.78    0.43
   1 -10   5    3.80    0.47
   9   1   5    3.51    0.48
   9   1   5    3.49    0.29
   9   1   5    2.87    0.43
   9   1   5    3.29    0.44
 -10   9   5    2.96    0.41
   9   1   5    3.08    0.45
   9   1   5    3.34    0.46
   0   9  -5   17.65    0.81
   0   9  -5   17.84    0.85
   0   9  -5   16.10    0.87
  -9   0  -5   18.44    0.84
   9  -9  -5   18.67    0.85
  -9   0  -5   18.10    0.84
   9   0   5   15.64    0.85
   9   0   5   16.58    0.85
   9   0   5   16.87    0.64
   0  -9   5   17.16    0.88
   9   0   5   17.03    0.84
   9   0   5   17.92    0.91
  -9   9   5   17.87    0.84
   9   0   5   16.52    0.89
   0  -9   5   17.63    0.87
  -9   1  -5    9.20    0.58
   1   8  -5    9.74    0.61
   1   8  -5    9.81    0.66
  -9   1  -5    9.93    0.62
   8  -9  -5    8.79    0.58
   8  -9  -5    9.40    0.65
   9  -1   5    9.54    0.44
   9  -1   5    9.74    0.63
   9  -1   5    9.58    0.64
  -8   9   5    8.22    0.61
  -8   9   5    8.67    0.59
  -1  -8   5    9.06    0.62
   9  -1   5    9.12    0.63
   9  -1   5    8.74    0.63
  -1  -8   5    8.84    0.60
   9  -1   5    8.80    0.59
   7  -9  -5    2.97    0.41
   7  -9  -5    2.82    0.42
  -9   2  -5    2.63    0.38
   2   7  -5    2.58    0.41
  -9   2  -5    2.67    0.38
   2   7  -5    2.57    0.37
   9  -2   5    4.89    0.47
  -7   9   5    3.96    0.48
   9  -2   5    4.54    0.44
  -2  -7   5    4.23    0.42
  -7   9   5    4.53    0.44
   9  -2   5    4.70    0.30
   9  -2   5    4.50    0.44
   9  -2   5    3.85    0.47
   9  -2   5    5.05    0.47
  -2  -7   5    4.48    0.44
   6  -9  -5   17.14    0.82
  -9   3  -5   16.72    0.82
   3   6  -5   17.11    0.79
  -9   3  -5   16.76    0.79
   6  -9  -5   16.58    0.88
  -3  -6   5   17.12    0.87
   9  -3   5   18.42    0.85
   9  -3   5   18.38    0.61
   9  -3   5   18.04    0.87
   9  -3   5   18.03    0.88
  -6   9   5   19.11    0.84
   9  -3   5   17.06    0.85
  -6   9   5   17.80    0.89
   9  -3   5   19.05    0.82
   9  -3   5   18.33    0.85
  -3  -6   5   17.75    0.86
  -9   4  -5   11.28    0.66
   5  -9  -5   10.85    0.69
  -9   4  -5   11.27    0.63
   4   5  -5   10.97    0.62
   5  -9  -5   11.10    0.64
  -9   4  -5   10.85    0.67
   9  -4   5   10.43    0.62
  -4  -5   5   11.25    0.70
   9  -4   5   11.19    0.65
  -5   9   5   11.10    0.68
   9  -4   5   11.32    0.45
   9  -4   5   10.39    0.66
   9  -4   5   10.32    0.65
  -5   9   5   11.34    0.65
   9  -4   5   10.40    0.64
  -5   9   5   10.37    0.61
  -4  -5   5   11.02    0.67
   9  -4   5   10.36    0.66
   4  -9  -5   12.07    0.68
   4  -9  -5   11.74    0.73
  -9   5  -5   11.86    0.69
  -9   5  -5   11.88    0.64
  -9   5  -5   12.48    0.72
   5   4  -5   12.76    0.65
   9  -5   5   12.23    0.47
   9  -5   5   11.56    0.71
  -4   9   5   12.46    0.68
   9  -5   5   12.03    0.70
  -5  -4   5   11.87    0.72
   9  -5   5   11.78    0.67
   9  -5   5   11.57    0.67
  -4   9   5   12.47    0.68
  -4   9   5   12.26    0.72
  -5  -4   5   11.76    0.69
  -9   6  -5   16.95    0.85
   3  -9  -5   17.00    1.00
   6   3  -5   18.51    0.81
   3  -9  -5   16.69    0.81
   3  -9  -5   15.93    0.87
  -9   6  -5   17.88    0.82
   6   3  -5   16.76    0.76
  -9   6  -5   17.40    0.79
  -9   6  -5   16.69    0.84
  -6  -3   5   18.77    0.86
  -3   9   5   17.86    0.81
  -6  -3   5   17.91    0.89
   9  -6   5   18.38    0.87
   9  -6   5   18.04    0.61
   9  -6   5   18.65    0.87
  -3   9   5   18.12    0.89
  -3   9   5   17.89    0.83
   9  -6   5   18.23    0.84
   9  -6   5   18.07    0.87
   2  -9  -5    2.79    0.47
  -9   7  -5    2.99    0.39
   2  -9  -5    2.66    0.40
   2  -9  -5    2.66    0.42
  -9   7  -5    2.87    0.41
  -9   7  -5    2.58    0.37
   7   2  -5    2.51    0.36
  -9   7  -5    2.63    0.39
   9  -7   5    3.75    0.47
   9  -7   5    3.71    0.45
  -7  -2   5    4.61    0.43
  -2   9   5    4.39    0.44
   9  -7   5    4.21    0.28
   9  -7   5    4.23    0.43
  -2   9   5    4.50    0.44
  -2   9   5    4.29    0.45
  -7  -2   5    4.99    0.48
   9  -7   5    4.23    0.42
   8   1  -5    8.74    0.57
  -9   8  -5   10.18    0.64
   1  -9  -5    9.78    0.63
   1  -9  -5    8.98    0.66
  -9   8  -5    8.50    0.60
  -9   8  -5    9.90    0.60
  -9   8  -5    9.78    0.63
  -1   9   5    9.82    0.66
   9  -8   5    9.16    0.43
  -8  -1   5    9.42    0.66
   9  -8   5    9.30    0.63
   9  -8   5    8.51    0.59
  -1   9   5    8.55    0.59
  -1   9   5    8.48    0.59
  -8  -1   5    9.49    0.60
   9  -8   5    8.09    0.58
   9  -8   5    9.20    0.63
   0  -9  -5   17.01    0.92
   9   0  -5   18.81    0.84
  -9   9  -5   17.82    0.88
  -9   9  -5   18.38    0.83
  -9   9  -5   19.50    0.91
  -9   9  -5   19.40    0.91
  -9   9  -5   19.16    0.90
   0   9   5   17.23    0.85
   9  -9   5   17.75    0.88
   9  -9   5   17.14    0.89
  -9   0   5   17.69    0.92
   0   9   5   17.81    0.88
   9  -9   5   17.33    0.84
   9  -9   5   17.35    0.87
   0   9   5   18.06    0.93
   9  -9   5   17.26    0.65
  -1  -9  -5    2.85    0.45
  -9  10  -5    3.02    0.43
  -9  10  -5    2.61    0.37
  10  -1  -5    3.11    0.41
  -9  10  -5    2.76    0.42
  -9  10  -5    3.40    0.46
  -9  10  -5    2.71    0.42
   1   9   5    2.86    0.43
   1   9   5    2.80    0.41
 -10   1   5    2.88    0.45
   9 -10   5    3.28    0.44
   1   9   5    2.79    0.41
   9 -10   5    2.54    0.41
   9 -10   5    2.78    0.41
   9 -10   5    3.02    0.28
   1   9   5    2.77    0.43
  -9  11  -5    6.72    0.56
  -9  11  -5    7.31    0.58
  -9  11  -5    7.44    0.59
  -9  11  -5    7.49    0.59
  -2  -9  -5    7.18    0.62
  11  -2  -5    7.78    0.56
  -9  11  -5    7.56    0.55
   9 -11   5    7.72    0.45
 -11   2   5    7.72    0.63
   2   9   5    7.59    0.61
   9 -11   5    7.63    0.59
   9 -11   5    8.32    0.61
   9 -11   5    8.35    0.61
   2   9   5    7.15    0.58
   2   9   5    7.14    0.58
   2   9   5    7.69    0.58
  -9  12  -5   15.52    0.87
  -9  12  -5   15.55    0.84
  -9  12  -5   15.84    0.86
  -9  12  -5   14.61    0.85
  -3  -9  -5   14.61    0.89
  12  -3  -5   15.57    0.79
   9 -12   5   15.25    0.67
   3   9   5   15.81    0.85
   3   9   5   16.30    0.92
   3   9   5   15.90    0.89
   9 -12   5   15.04    0.84
 -12   3   5   15.06    0.89
   9 -12   5   14.78    0.84
   9 -12   5   15.91    0.87
   3   9   5   15.96    0.87
  -9  13  -5    3.20    0.47
  -9  13  -5    3.14    0.48
  -9  13  -5    3.17    0.46
  -9  13  -5    3.54    0.49
  -9  13  -5    3.40    0.45
  13  -4  -5    3.38    0.45
   4   9   5    3.70    0.49
   4   9   5    4.15    0.53
   4   9   5    3.80    0.52
   9 -13   5    4.13    0.36
   9 -13   5    4.18    0.53
 -13   4   5    4.59    0.57
   9 -13   5    3.37    0.47
   9 -13   5    4.26    0.52
  -9  14  -5    6.60    0.59
  -9  14  -5    7.04    0.56
  -9  14  -5    6.47    0.60
  -9  14  -5    8.16    0.65
  -9  14  -5    7.07    0.60
  14  -5  -5    5.97    0.53
   9 -14   5    6.82    0.59
   5   9   5    6.43    0.60
   5   9   5    5.64    0.57
 -14   5   5    6.73    0.63
   9 -14   5    6.28    0.46
   5   9   5    6.82    0.59
   9 -14   5    6.92    0.60
  15  -6  -5    7.39    0.60
  -9  15  -5    8.96    0.66
   6   9   5    8.06    0.66
   6   9   5    8.28    0.65
   9 -15   5    8.08    0.65
  14 -10  -5    0.74    0.27
  -4  14  -5    0.70    0.28
  -4  14  -5    0.96    0.31
 -10  -4  -5    0.67    0.27
  -4  14  -5    0.55    0.26
  10   4   5    0.53    0.28
  10   4   5    0.54    0.29
  10   4   5    0.85    0.29
   4 -14   5    0.77    0.31
   4 -14   5    0.79    0.30
  10   4   5    1.27    0.34
 -10  -3  -5    0.24    0.21
  13 -10  -5    0.16    0.20
  -3  13  -5    0.41    0.24
  -3  13  -5    0.09    0.20
  -3  13  -5    0.05    0.19
  10   3   5    0.28    0.25
   3 -13   5    0.39    0.24
  10   3   5    0.33    0.18
  10   3   5    0.70    0.30
  10   3   5    0.46    0.26
   3 -13   5    0.02    0.20
  10   3   5    0.33    0.26
 -10  -2  -5    7.36    0.57
  -2  12  -5    6.43    0.55
  -2  12  -5    6.07    0.55
  -2  12  -5    6.78    0.55
  12 -10  -5    7.61    0.58
  10   2   5    5.91    0.55
  10   2   5    6.16    0.59
  10   2   5    5.82    0.42
  10   2   5    6.49    0.58
   2 -12   5    6.02    0.55
   2 -12   5    6.76    0.58
  10   2   5    6.59    0.56
  -1  11  -5    0.40    0.24
  -1  11  -5    0.49    0.25
  11 -10  -5    0.24    0.23
  -1  11  -5    0.22    0.22
 -10  -1  -5    0.09    0.18
 -10  -1  -5    0.24    0.20
  11 -10  -5    0.26    0.21
  10   1   5    0.28    0.22
   1 -11   5    0.18    0.20
  10   1   5    0.38    0.16
   1 -11   5    0.01    0.19
  10   1   5    0.41    0.25
  10   1   5    0.30    0.23
 -11  10   5   -0.13    0.18
  10   1   5    0.10    0.21
  10   1   5    0.07    0.18
  10 -10  -5    9.12    0.66
   0  10  -5    8.65    0.65
 -10   0  -5    9.71    0.62
  10 -10  -5    9.58    0.63
   0  10  -5    9.44    0.64
 -10   0  -5    9.92    0.63
  10   0   5    8.88    0.62
   0 -10   5    8.54    0.62
 -10  10   5    8.91    0.61
  10   0   5    9.03    0.66
   0 -10   5    8.88    0.65
  10   0   5    8.62    0.47
  10   0   5    8.45    0.65
  10   0   5    8.86    0.63
  10   0   5    9.50    0.66
 -10   1  -5    2.62    0.39
   9 -10  -5    2.77    0.43
   1   9  -5    3.12    0.43
   9 -10  -5    2.87    0.41
   1   9  -5    2.84    0.43
 -10   1  -5    2.66    0.39
  10  -1   5    4.02    0.49
  -1  -9   5    2.88    0.42
  10  -1   5    3.32    0.29
  10  -1   5    3.36    0.44
  10  -1   5    3.20    0.46
  10  -1   5    3.20    0.46
  -1  -9   5    3.32    0.45
  10  -1   5    3.27    0.44
  -9  10   5    3.72    0.46
   2   8  -5    2.39    0.40
   8 -10  -5    2.23    0.37
 -10   2  -5    2.35    0.37
   8 -10  -5    2.25    0.40
 -10   2  -5    2.45    0.37
   2   8  -5    2.53    0.38
  -8  10   5    2.83    0.42
  10  -2   5    1.83    0.34
  10  -2   5    2.02    0.36
  -2  -8   5    2.10    0.37
  10  -2   5    2.14    0.38
  10  -2   5    2.23    0.38
  -8  10   5    1.93    0.34
  10  -2   5    2.03    0.38
  10  -2   5    2.46    0.25
 -10   3  -5    6.78    0.51
 -10   3  -5    6.64    0.52
   3   7  -5    7.65    0.54
   7 -10  -5    5.90    0.54
   3   7  -5    6.80    0.57
   7 -10  -5    6.16    0.51
  10  -3   5    6.92    0.55
  10  -3   5    6.17    0.37
  10  -3   5    7.13    0.57
  -7  10   5    6.86    0.53
  10  -3   5    6.17    0.53
  -7  10   5    7.03    0.57
  -3  -7   5    6.57    0.54
  10  -3   5    7.17    0.58
  10  -3   5    6.39    0.51
   4   6  -5    1.62    0.31
 -10   4  -5    1.46    0.32
 -10   4  -5    1.05    0.27
 -10   4  -5    1.36    0.30
   6 -10  -5    2.09    0.37
   6 -10  -5    1.70    0.32
  -4  -6   5    1.66    0.34
  10  -4   5    2.22    0.38
  10  -4   5    2.00    0.34
  -6  10   5    1.90    0.34
  10  -4   5    1.66    0.32
  10  -4   5    2.24    0.38
  -4  -6   5    1.76    0.35
  -6  10   5    1.79    0.33
  -6  10   5    1.74    0.35
  10  -4   5    1.69    0.23
  10  -4   5    1.98    0.36
  10  -4   5    1.83    0.35
   5 -10  -5    0.52    0.23
   5 -10  -5    0.65    0.25
 -10   5  -5    0.59    0.24
 -10   5  -5    0.82    0.26
   5   5  -5    1.01    0.26
 -10   5  -5    0.67    0.23
  10  -5   5    0.52    0.23
  10  -5   5    0.56    0.23
  -5  -5   5    0.65    0.25
  -5  10   5    0.71    0.25
  10  -5   5    0.86    0.25
  -5  10   5    0.89    0.28
  -5  -5   5    1.21    0.30
  10  -5   5    0.79    0.17
  10  -5   5    1.02    0.29
  -5  10   5    0.61    0.24
  10  -5   5    0.89    0.26
   6   4  -5    1.36    0.29
   4 -10  -5    1.54    0.34
 -10   6  -5    1.49    0.31
   4 -10  -5    1.71    0.32
 -10   6  -5    1.56    0.31
 -10   6  -5    1.26    0.29
   6   4  -5    1.81    0.31
  10  -6   5    1.82    0.23
  -4  10   5    1.64    0.34
  10  -6   5    1.36    0.31
  -4  10   5    1.59    0.32
  10  -6   5    1.78    0.35
  -6  -4   5    1.42    0.31
  10  -6   5    1.72    0.32
  10  -6   5    1.76    0.33
  -4  10   5    1.36    0.31
  -6  -4   5    1.90    0.36
 -10   7  -5    6.39    0.50
 -10   7  -5    6.58    0.52
 -10   7  -5    6.20    0.52
   7   3  -5    6.67    0.50
   3 -10  -5    6.43    0.53
 -10   7  -5    6.31    0.53
   3 -10  -5    6.36    0.57
  10  -7   5    5.97    0.53
  10  -7   5    5.91    0.50
  -7  -3   5    6.38    0.55
  -3  10   5    5.85    0.50
  10  -7   5    6.34    0.37
  10  -7   5    6.24    0.52
  -7  -3   5    6.01    0.52
  -3  10   5    5.97    0.53
  -3  10   5    6.54    0.53
  10  -7   5    6.45    0.53
   2 -10  -5    2.81    0.42
 -10   8  -5    1.99    0.34
 -10   8  -5    2.44    0.39
 -10   8  -5    2.72    0.41
 -10   8  -5    2.40    0.36
   2 -10  -5    2.41    0.41
   8   2  -5    2.46    0.36
  10  -8   5    1.81    0.35
  10  -8   5    2.15    0.26
  -2  10   5    2.24    0.39
  10  -8   5    2.34    0.38
  -2  10   5    2.32    0.37
  -8  -2   5    2.15    0.37
  -2  10   5    2.17    0.37
  -8  -2   5    2.32    0.39
  10  -8   5    2.03    0.37
  10  -8   5    2.36    0.37
   1 -10  -5    3.28    0.48
 -10   9  -5    2.54    0.39
 -10   9  -5    3.01    0.43
   1 -10  -5    2.76    0.42
 -10   9  -5    3.07    0.43
   9   1  -5    3.02    0.40
 -10   9  -5    2.99    0.41
  10  -9   5    3.11    0.43
  -1  10   5    3.49    0.45
  10  -9   5    3.59    0.45
  -9  -1   5    2.64    0.43
  10  -9   5    2.50    0.39
  10  -9   5    2.94    0.28
  -1  10   5    3.22    0.43
  -1  10   5    2.48    0.41
  10  -9   5    3.16    0.45
  -9  -1   5    3.39    0.44
 -10  10  -5    9.49    0.65
  10   0  -5    9.26    0.60
 -10  10  -5    9.45    0.65
 -10  10  -5    9.37    0.65
   0 -10  -5    7.78    0.64
 -10  10  -5    9.41    0.61
 -10  10  -5    9.65    0.65
 -10   0   5    8.53    0.66
  10 -10   5    7.51    0.44
   0  10   5    7.83    0.61
  10 -10   5    8.58    0.62
   0  10   5    8.70    0.61
   0  10   5    8.51    0.65
  10 -10   5    7.94    0.61
  10 -10   5    8.72    0.63
 -10  11  -5    0.39    0.23
 -10  11  -5    0.25    0.23
  11  -1  -5    0.14    0.20
 -10  11  -5    0.31    0.21
  -1 -10  -5    0.27    0.24
 -10  11  -5    0.20    0.20
 -10  11  -5    0.19    0.19
   1  10   5    0.33    0.23
  10 -11   5    0.19    0.15
  10 -11   5    0.20    0.22
   1  10   5    0.46    0.23
   1  10   5    0.56    0.25
  10 -11   5    0.20    0.21
   1  10   5    0.12    0.20
  10 -11   5    0.20    0.20
 -11   1   5    0.41    0.25
 -10  12  -5    6.63    0.57
 -10  12  -5    6.85    0.58
 -10  12  -5    6.18    0.56
 -10  12  -5    6.64    0.54
  12  -2  -5    7.00    0.55
 -10  12  -5    6.68    0.57
  10 -12   5    6.10    0.55
  10 -12   5    6.19    0.43
  10 -12   5    6.64    0.57
   2  10   5    5.33    0.53
   2  10   5    5.77    0.53
 -12   2   5    7.20    0.63
  10 -12   5    7.02    0.59
   2  10   5    6.67    0.58
  13  -3  -5   -0.02    0.19
 -10  13  -5    0.26    0.23
 -10  13  -5    0.35    0.22
 -10  13  -5    0.09    0.21
 -10  13  -5    0.43    0.24
 -10  13  -5    0.41    0.24
   3  10   5    0.46    0.23
  10 -13   5    0.24    0.25
  10 -13   5    0.31    0.23
 -13   3   5    0.46    0.26
   3  10   5    0.27    0.24
   3  10   5    0.56    0.28
  10 -13   5    0.48    0.19
  10 -13   5    0.44    0.26
 -10  14  -5    0.60    0.27
 -10  14  -5    1.04    0.29
 -10  14  -5    0.63    0.27
 -10  14  -5    0.67    0.28
  14  -4  -5    1.12    0.30
   4  10   5    0.97    0.33
   4  10   5    0.71    0.28
  10 -14   5    0.28    0.25
  10 -14   5    0.71    0.29
   4  10   5    0.70    0.29
  14 -11  -5    3.29    0.47
  -3  14  -5    3.57    0.50
  -3  14  -5    3.28    0.48
 -11  -3  -5    3.35    0.48
  11   3   5    3.31    0.48
  11   3   5    4.50    0.55
   3 -14   5    3.77    0.51
  11   3   5    3.67    0.53
  11   3   5    3.67    0.52
  -2  13  -5    1.00    0.30
  -2  13  -5    0.89    0.30
  13 -11  -5    1.06    0.30
 -11  -2  -5    0.68    0.26
  -2  13  -5    0.91    0.29
   2 -13   5    1.06    0.31
  11   2   5    0.70    0.29
  11   2   5    0.89    0.31
  11   2   5    1.04    0.33
  11   2   5    0.87    0.31
   2 -13   5    0.76    0.29
  11   2   5    0.74    0.22
 -11  -1  -5    3.91    0.48
  12 -11  -5    2.65    0.43
  -1  12  -5    3.68    0.50
  -1  12  -5    3.15    0.46
  -1  12  -5    2.80    0.43
 -11  -1  -5    3.32    0.46
  11   1   5    3.18    0.33
   1 -12   5    3.91    0.52
  11   1   5    3.58    0.49
  11   1   5    3.73    0.52
  11   1   5    3.60    0.50
  11   1   5    3.62    0.49
  11 -11  -5    6.28    0.54
   0  11  -5    6.79    0.56
 -11   0  -5    7.39    0.57
   0  11  -5    7.58    0.57
   0  11  -5    6.35    0.58
 -11   0  -5    7.42    0.57
  11   0   5    7.66    0.62
  11   0   5    7.08    0.59
   0 -11   5    7.13    0.61
  11   0   5    7.30    0.59
  11   0   5    7.43    0.63
  11   0   5    7.50    0.63
 -11  11   5    7.31    0.58
  11   0   5    7.30    0.46
 -11   1  -5    0.39    0.21
   1  10  -5    0.15    0.20
 -11   1  -5    0.20    0.21
  10 -11  -5    0.13    0.21
   1  10  -5    0.32    0.22
  10 -11  -5    0.33    0.22
  11  -1   5    0.15    0.20
  11  -1   5    0.32    0.22
  -1 -10   5   -0.13    0.16
  11  -1   5    0.08    0.19
  11  -1   5    0.45    0.26
 -10  11   5    0.19    0.21
  11  -1   5    0.48    0.25
  11  -1   5    0.06    0.14
   2   9  -5    7.68    0.61
   2   9  -5    8.07    0.59
 -11   2  -5    7.51    0.56
   9 -11  -5    7.67    0.62
 -11   2  -5    8.12    0.59
   9 -11  -5    7.52    0.58
  11  -2   5    8.15    0.60
  11  -2   5    8.29    0.46
  11  -2   5    9.17    0.66
  11  -2   5    8.74    0.66
  11  -2   5    8.70    0.64
  11  -2   5    8.60    0.62
  -9  11   5    9.12    0.62
  -2  -9   5    8.35    0.63
   3   8  -5    1.88    0.35
   8 -11  -5    1.16    0.29
   3   8  -5    1.46    0.34
 -11   3  -5    1.70    0.34
 -11   3  -5    1.43    0.30
   8 -11  -5    1.47    0.34
  -3  -8   5    2.27    0.39
  11  -3   5    1.90    0.36
  11  -3   5    2.01    0.38
  11  -3   5    2.02    0.27
  11  -3   5    1.64    0.36
  -8  11   5    1.67    0.36
  11  -3   5    2.27    0.38
  11  -3   5    1.75    0.36
  -8  11   5    2.17    0.38
 -11   4  -5    3.05    0.43
   7 -11  -5    2.59    0.40
   7 -11  -5    2.54    0.42
   4   7  -5    3.59    0.49
 -11   4  -5    3.34    0.42
 -11   4  -5    2.66    0.40
   4   7  -5    3.95    0.46
  -4  -7   5    3.31    0.45
  11  -4   5    3.57    0.48
  11  -4   5    3.96    0.47
  11  -4   5    3.45    0.46
  11  -4   5    3.22    0.45
  -7  11   5    3.03    0.42
  -7  11   5    3.19    0.46
  11  -4   5    3.48    0.30
  -4  -7   5    3.16    0.45
  11  -4   5    3.29    0.43
 -11   5  -5   10.24    0.65
   6 -11  -5    8.77    0.61
   6 -11  -5    8.71    0.66
 -11   5  -5    8.94    0.64
   5   6  -5    9.96    0.62
 -11   5  -5   10.43    0.63
  -6  11   5    9.10    0.61
  11  -5   5    8.09    0.59
  11  -5   5    7.92    0.44
  11  -5   5    8.46    0.61
  11  -5   5    8.67    0.58
  -5  -6   5    7.61    0.61
  11  -5   5    7.58    0.60
  11  -5   5    8.23    0.61
  -6  11   5    8.34    0.59
  -6  11   5    7.64    0.61
  -5  -6   5    8.55    0.62
  11  -5   5    8.31    0.62
   6   5  -5   10.61    0.63
 -11   6  -5   10.19    0.63
 -11   6  -5   10.19    0.67
   5 -11  -5   10.16    0.64
   6   5  -5   11.50    0.65
 -11   6  -5    9.37    0.65
  -5  11   5    8.45    0.60
  -6  -5   5    7.97    0.63
  11  -6   5    8.64    0.64
  -6  -5   5    8.16    0.61
  11  -6   5    9.07    0.62
  11  -6   5    9.51    0.65
  11  -6   5    8.19    0.61
  -5  11   5    8.46    0.60
  11  -6   5    8.55    0.45
  -5  11   5   10.01    0.69
 -11   7  -5    2.84    0.41
   7   4  -5    2.62    0.39
   4 -11  -5    3.63    0.49
 -11   7  -5    2.91    0.42
 -11   7  -5    3.52    0.46
 -11   7  -5    3.12    0.42
   4 -11  -5    3.34    0.44
  11  -7   5    3.08    0.43
  -4  11   5    2.26    0.39
  -7  -4   5    3.20    0.44
  11  -7   5    3.02    0.43
  -4  11   5    3.34    0.47
  11  -7   5    3.28    0.29
  -7  -4   5    3.16    0.46
  -4  11   5    4.03    0.47
  11  -7   5    3.09    0.45
  11  -7   5    3.27    0.43
 -11   8  -5    1.27    0.30
 -11   8  -5    0.93    0.28
   3 -11  -5    1.56    0.34
 -11   8  -5    1.27    0.31
   3 -11  -5    1.40    0.35
   8   3  -5    1.38    0.29
 -11   8  -5    1.29    0.30
  11  -8   5    2.08    0.37
  11  -8   5    1.63    0.33
  -3  11   5    2.12    0.36
  -8  -3   5    1.30    0.33
  -3  11   5    1.93    0.36
  11  -8   5    2.07    0.26
  11  -8   5    1.66    0.35
  -8  -3   5    2.09    0.37
  -3  11   5    1.79    0.35
  11  -8   5    1.52    0.33
   2 -11  -5    6.95    0.56
 -11   9  -5    7.13    0.55
   2 -11  -5    6.82    0.60
 -11   9  -5    6.90    0.57
 -11   9  -5    7.56    0.59
   9   2  -5    6.56    0.52
 -11   9  -5    7.09    0.58
  11  -9   5    7.56    0.44
  -2  11   5    7.79    0.61
  11  -9   5    7.01    0.57
  -2  11   5    7.47    0.60
  11  -9   5    7.65    0.61
  -2  11   5    7.51    0.58
  11  -9   5    8.03    0.61
  -9  -2   5    8.52    0.61
  -9  -2   5    7.69    0.62
  11  -9   5    6.90    0.56
 -11  10  -5    0.38    0.22
   1 -11  -5    0.04    0.21
 -11  10  -5    0.09    0.19
 -11  10  -5    0.35    0.23
 -11  10  -5    0.40    0.23
  10   1  -5    0.31    0.21
   1 -11  -5    0.19    0.22
 -11  10  -5    0.39    0.22
  -1  11   5    0.39    0.24
  11 -10   5    0.24    0.14
  -1  11   5    0.33    0.23
  -1  11   5    0.35    0.22
  11 -10   5    0.20    0.20
 -10  -1   5    0.22    0.20
  11 -10   5    0.02    0.21
  11 -10   5    0.03    0.19
 -11  11  -5    6.97    0.58
 -11  11  -5    6.38    0.57
 -11  11  -5    6.46    0.57
 -11  11  -5    6.40    0.53
 -11  11  -5    6.63    0.58
   0 -11  -5    6.53    0.60
  11   0  -5    6.59    0.53
   0 -11  -5    6.52    0.57
  11 -11   5    6.93    0.59
 -11   0   5    7.30    0.63
  11 -11   5    7.22    0.46
  11 -11   5    7.22    0.59
   0  11   5    7.83    0.63
  11 -11   5    7.05    0.58
   0  11   5    6.43    0.54
 -11  12  -5    3.27    0.48
 -11  12  -5    3.15    0.44
  12  -1  -5    3.35    0.45
 -11  12  -5    3.38    0.48
 -11  12  -5    3.57    0.50
 -11  12  -5    3.34    0.48
  11 -12   5    3.32    0.48
 -12   1   5    3.78    0.53
  11 -12   5    3.99    0.51
   1  11   5    4.07    0.51
   1  11   5    4.01    0.52
   1  11   5    3.58    0.50
  11 -12   5    3.69    0.50
  11 -12   5    4.23    0.37
 -11  13  -5    0.52    0.28
  13  -2  -5    0.86    0.28
 -11  13  -5    0.98    0.30
 -11  13  -5    1.28    0.33
 -11  13  -5    0.96    0.30
 -11  13  -5    0.97    0.30
  11 -13   5    0.96    0.31
  11 -13   5    1.04    0.31
 -13   2   5    0.76    0.31
   2  11   5    1.43    0.35
   2  11   5    1.31    0.33
  11 -13   5    0.79    0.31
  11 -13   5    0.84    0.23
   2  11   5    0.58    0.29
  14  -3  -5    3.38    0.47
 -11  14  -5    3.15    0.48
 -11  14  -5    3.55    0.48
 -11  14  -5    3.44    0.50
  11 -14   5    3.18    0.49
   3  11   5    3.38    0.52
  11 -14   5    3.55    0.50
   3  11   5    3.33    0.49
   3  11   5    3.75    0.50
 -12  -2  -5    5.03    0.50
  -2  14  -5    5.10    0.51
  12   2   5    3.63    0.51
  -1  13  -5    6.08    0.54
  -1  13  -5    5.47    0.55
 -12  -1  -5    5.45    0.52
  13 -12  -5    5.90    0.55
 -12  -1  -5    6.29    0.56
  -1  13  -5    6.39    0.57
  12   1   5    6.13    0.58
  12   1   5    5.37    0.53
  12   1   5    5.25    0.62
  12   1   5    5.34    0.63
   0  12  -5   11.13    0.74
 -12   0  -5   12.02    0.74
   0  12  -5   10.24    0.74
   0  12  -5   12.02    0.73
  12 -12  -5   10.54    0.73
 -12   0  -5   13.09    0.77
  12   0   5   12.79    0.82
  12   0   5   12.16    0.76
  12   0   5   11.90    0.76
   0 -12   5   13.00    0.82
  12   0   5   12.59    0.63
 -12  12   5   12.93    0.78
  12   0   5   13.57    0.85
  11 -12  -5    2.99    0.44
 -12   1  -5    3.03    0.43
   1  11  -5    3.79    0.51
 -12   1  -5    3.18    0.45
   1  11  -5    3.37    0.47
  12  -1   5    4.16    0.53
  -1 -11   5    3.17    0.47
  12  -1   5    3.17    0.46
  12  -1   5    4.05    0.51
  12  -1   5    3.34    0.50
 -11  12   5    3.82    0.48
  12  -1   5    3.31    0.34
  10 -12  -5    6.77    0.57
 -12   2  -5    7.03    0.56
   2  10  -5    6.89    0.58
   2  10  -5    6.59    0.59
 -12   2  -5    6.69    0.54
  -2 -10   5    6.06    0.57
  12  -2   5    7.26    0.61
  12  -2   5    6.97    0.62
  12  -2   5    5.64    0.54
  12  -2   5    6.42    0.44
 -10  12   5    6.30    0.54
  12  -2   5    6.06    0.53
   3   9  -5   15.40    0.82
 -12   3  -5   14.51    0.81
   9 -12  -5   14.66    0.87
   9 -12  -5   14.62    0.81
 -12   3  -5   15.50    0.80
   3   9  -5   14.79    0.87
  12  -3   5   14.26    0.87
  12  -3   5   15.42    0.85
  12  -3   5   15.89    0.89
  12  -3   5   14.65    0.84
  12  -3   5   14.61    0.65
  12  -3   5   15.20    0.83
  -3  -9   5   14.49    0.85
  -9  12   5   14.49    0.80
   4   8  -5   39.39    1.48
   4   8  -5   38.41    1.35
 -12   4  -5   37.08    1.31
   8 -12  -5   40.10    1.38
 -12   4  -5   39.36    1.43
 -12   4  -5   37.08    1.38
  -8  12   5   35.54    1.43
  12  -4   5   35.56    1.31
  12  -4   5   34.27    1.32
  -8  12   5   35.29    1.31
  12  -4   5   35.32    1.41
  12  -4   5   35.96    1.13
  12  -4   5   37.85    1.42
  -4  -8   5   35.47    1.41
  12  -4   5   38.67    1.45
 -12   5  -5    9.11    0.62
   7 -12  -5   10.20    0.72
   7 -12  -5    9.27    0.65
 -12   5  -5    9.78    0.67
   5   7  -5    9.89    0.65
 -12   5  -5    9.13    0.67
  12  -5   5    9.93    0.66
  12  -5   5    9.31    0.68
  -7  12   5   11.07    0.68
  -5  -7   5   11.19    0.73
  12  -5   5   10.53    0.70
  -5  -7   5   10.24    0.72
  12  -5   5    9.47    0.64
  -7  12   5   10.53    0.72
  -7  12   5    9.11    0.63
  12  -5   5   10.53    0.53
  12  -5   5   10.50    0.72
   6   6  -5    8.92    0.61
   6 -12  -5    8.82    0.63
 -12   6  -5    7.75    0.60
 -12   6  -5    7.51    0.57
   6 -12  -5    7.75    0.64
   6   6  -5    8.30    0.59
 -12   6  -5    9.20    0.66
  -6  12   5   10.74    0.68
  12  -6   5   10.36    0.71
  -6  12   5    7.80    0.59
  12  -6   5    8.95    0.49
  12  -6   5    9.20    0.64
  12  -6   5   11.10    0.70
  -6  -6   5    9.69    0.67
  -6  -6   5   10.03    0.71
  -6  12   5    9.66    0.69
 -12   7  -5    9.85    0.68
 -12   7  -5    9.98    0.64
   5 -12  -5    9.50    0.71
   7   5  -5    9.78    0.63
   5 -12  -5    9.83    0.66
 -12   7  -5   10.80    0.72
  -5  12   5   11.02    0.71
  -7  -5   5   11.56    0.75
  12  -7   5   11.43    0.72
  12  -7   5   10.75    0.54
  -7  -5   5   12.10    0.75
  12  -7   5   10.12    0.69
  -5  12   5   11.25    0.73
  12  -7   5   11.26    0.70
  12  -7   5   10.54    0.72
  -5  12   5   10.89    0.68
 -12   8  -5   38.86    1.41
 -12   8  -5   39.21    1.36
 -12   8  -5   39.82    1.41
 -12   8  -5   37.60    1.42
   4 -12  -5   39.05    1.39
   8   4  -5   37.19    1.31
   4 -12  -5   38.37    1.50
  12  -8   5   35.41    1.40
  -4  12   5   36.06    1.43
  12  -8   5   37.02    1.40
  -4  12   5   36.60    1.38
  -8  -4   5   37.29    1.41
  12  -8   5   36.96    1.36
  12  -8   5   35.00    1.12
  -8  -4   5   35.64    1.44
  12  -8   5   37.45    1.40
 -12   9  -5   15.26    0.82
   3 -12  -5   15.75    0.91
   9   3  -5   15.84    0.81
 -12   9  -5   16.11    0.85
 -12   9  -5   17.08    0.90
   3 -12  -5   15.45    0.84
 -12   9  -5   16.61    0.89
  -3  12   5   16.86    0.85
  12  -9   5   15.42    0.86
  -3  12   5   15.44    0.89
  12  -9   5   16.01    0.89
  -9  -3   5   15.29    0.90
  -3  12   5   16.88    0.90
  12  -9   5   16.64    0.87
  12  -9   5   14.58    0.84
  12  -9   5   15.59    0.68
  -9  -3   5   15.75    0.87
 -12  10  -5    7.37    0.59
 -12  10  -5    7.59    0.61
  10   2  -5    6.87    0.54
   2 -12  -5    7.25    0.59
 -12  10  -5    6.94    0.55
 -12  10  -5    6.32    0.56
  12 -10   5    6.15    0.43
  12 -10   5    5.90    0.56
 -10  -2   5    6.47    0.60
  12 -10   5    6.02    0.56
  -2  12   5    6.42    0.57
 -10  -2   5    6.52    0.58
  -2  12   5    6.57    0.55
  12 -10   5    5.95    0.54
 -12  11  -5    3.13    0.46
 -12  11  -5    3.50    0.49
 -12  11  -5    3.33    0.48
 -12  11  -5    2.94    0.43
  11   1  -5    3.43    0.44
   1 -12  -5    3.33    0.48
 -12  11  -5    3.70    0.50
  12 -11   5    3.74    0.50
  -1  12   5    4.01    0.50
  -1  12   5    4.03    0.52
  12 -11   5    4.60    0.55
 -11  -1   5    3.78    0.54
  12 -11   5    3.87    0.52
  12 -11   5    3.60    0.34
 -12  12  -5   10.82    0.75
   0 -12  -5   11.48    0.76
 -12  12  -5   11.30    0.77
 -12  12  -5   10.37    0.71
 -12  12  -5   12.06    0.78
 -12  12  -5   12.60    0.79
   0  12   5   12.60    0.81
   0  12   5   11.88    0.73
  12 -12   5   13.13    0.82
  12 -12   5   12.20    0.77
 -12   0   5   12.45    0.84
  12 -12   5   12.78    0.63
  12 -12   5   12.59    0.79
 -12  13  -5    5.37    0.54
 -12  13  -5    5.35    0.54
 -12  13  -5    6.55    0.60
  -1 -12  -5    6.42    0.58
  13  -1  -5    6.68    0.55
   1  12   5    5.20    0.55
  12 -13   5    5.76    0.56
   1  12   5    5.25    0.61
   1  12   5    4.81    0.55
  12 -13   5    5.98    0.56
 -12  14  -5    5.89    0.56
 -12  14  -5    5.58    0.53
  12 -14   5    4.14    0.55
   2  12   5    3.75    0.53
   2  12   5    4.46    0.58
 -13   0  -5    6.51    0.56
  13 -13  -5    6.10    0.57
  13   0   5    6.15    0.57
  12 -13  -5    6.01    0.56
 -13   1  -5    6.31    0.56
   1  12  -5    6.03    0.56
   1  12  -5    6.39    0.59
 -13   1  -5    7.40    0.60
  13  -1   5    5.02    0.57
  13  -1   5    5.39    0.62
  13  -1   5    5.41    0.56
 -12  13   5    5.47    0.53
  13  -1   5    5.65    0.66
   2  11  -5    1.01    0.31
   2  11  -5    0.66    0.26
  11 -13  -5    0.90    0.29
 -13   2  -5    0.84    0.28
 -13   2  -5    0.92    0.28
  13  -2   5    0.79    0.22
  13  -2   5    0.92    0.30
  13  -2   5    0.77    0.31
  13  -2   5    0.57    0.27
  -2 -11   5    0.56    0.27
  13  -2   5    0.68    0.28
 -11  13   5    0.64    0.26
 -13   3  -5    0.46    0.22
  10 -13  -5    0.02    0.20
   3  10  -5    0.31    0.22
   3  10  -5    0.11    0.22
 -13   3  -5    0.04    0.19
 -10  13   5    0.73    0.27
  13  -3   5    0.32    0.24
  13  -3   5    0.41    0.18
  13  -3   5    0.26    0.23
  13  -3   5    0.15    0.23
  13  -3   5    0.56    0.26
  -3 -10   5    0.33    0.24
   4   9  -5    3.77    0.52
 -13   4  -5    3.29    0.44
 -13   4  -5    3.41    0.49
   9 -13  -5    2.70    0.43
   4   9  -5    3.16    0.46
 -13   4  -5    2.58    0.42
  13  -4   5    4.54    0.55
  -9  13   5    3.90    0.50
  13  -4   5    3.83    0.52
  -4  -9   5    3.72    0.51
  13  -4   5    3.92    0.36
  13  -4   5    3.52    0.48
  13  -4   5    3.88    0.48
 -13   5  -5    1.04    0.31
   5   8  -5    0.50    0.27
   8 -13  -5    0.92    0.29
   5   8  -5    0.61    0.25
 -13   5  -5    0.83    0.26
 -13   5  -5    0.93    0.29
  -5  -8   5    0.74    0.28
  13  -5   5    0.60    0.26
  13  -5   5    0.83    0.29
  13  -5   5    0.97    0.31
  13  -5   5    0.41    0.25
  13  -5   5    1.12    0.24
  13  -5   5    0.84    0.28
  -8  13   5    0.65    0.26
 -13   6  -5    3.21    0.47
   6   7  -5    3.56    0.46
   6   7  -5    2.98    0.41
 -13   6  -5    3.15    0.47
   7 -13  -5    2.59    0.43
 -13   6  -5    2.93    0.42
  13  -6   5    3.08    0.47
  -6  -7   5    3.36    0.48
  -7  13   5    2.93    0.45
  -6  -7   5    3.47    0.49
  13  -6   5    3.28    0.46
  -7  13   5    3.41    0.47
  13  -6   5    3.18    0.45
  13  -6   5    2.80    0.33
  13  -6   5    3.21    0.46
   7   6  -5    3.50    0.46
   7   6  -5    3.29    0.44
 -13   7  -5    3.03    0.45
 -13   7  -5    3.07    0.47
   6 -13  -5    3.59    0.48
 -13   7  -5    2.73    0.41
  -6  13   5    2.93    0.45
  -7  -6   5    3.18    0.47
  13  -7   5    3.17    0.32
  13  -7   5    3.12    0.47
  -6  13   5    3.58    0.48
  13  -7   5    3.84    0.51
  13  -7   5    2.65    0.42
  -7  -6   5    3.77    0.52
 -13   8  -5    0.32    0.22
 -13   8  -5    0.42    0.23
   8   5  -5    0.48    0.24
   8   5  -5    0.53    0.24
   5 -13  -5    0.56    0.26
 -13   8  -5    0.70    0.28
  13  -8   5    0.78    0.21
  13  -8   5    0.61    0.27
  13  -8   5    0.78    0.30
  13  -8   5    0.71    0.28
  -5  13   5    1.19    0.32
  -8  -5   5    1.05    0.32
  -5  13   5    0.82    0.27
  -8  -5   5    0.36    0.24
  13  -8   5    0.82    0.29
   4 -13  -5    3.34    0.47
 -13   9  -5    3.12    0.45
 -13   9  -5    3.80    0.48
   9   4  -5    2.95    0.42
 -13   9  -5    2.84    0.45
 -13   9  -5    3.10    0.47
  -4  13   5    4.30    0.55
  -4  13   5    3.43    0.46
  -9  -4   5    4.45    0.56
  13  -9   5    3.56    0.49
  13  -9   5    3.90    0.36
  -9  -4   5    3.83    0.51
  13  -9   5    3.07    0.46
  13  -9   5    4.23    0.52
  13  -9   5    3.89    0.53
  10   3  -5    0.38    0.23
 -13  10  -5    0.25    0.23
   3 -13  -5    0.09    0.21
 -13  10  -5    0.34    0.25
 -13  10  -5    0.33    0.22
 -13  10  -5    0.05    0.21
 -10  -3   5    0.59    0.26
  13 -10   5    0.35    0.18
  13 -10   5    0.56    0.25
  13 -10   5    0.30    0.23
  -3  13   5    0.39    0.23
 -10  -3   5    0.24    0.23
  13 -10   5    0.67    0.29
  -3  13   5    0.34    0.26
 -13  11  -5    0.68    0.27
   2 -13  -5    1.02    0.31
 -13  11  -5    1.09    0.32
 -13  11  -5    1.06    0.31
  11   2  -5    1.18    0.30
 -13  11  -5    1.05    0.31
 -13  11  -5    1.02    0.31
  13 -11   5    0.67    0.27
  -2  13   5    0.92    0.30
  13 -11   5    1.11    0.24
 -11  -2   5    0.87    0.31
  13 -11   5    0.75    0.29
 -11  -2   5    0.84    0.30
  13 -11   5    1.10    0.33
  -2  13   5    1.14    0.32
 -13  12  -5    6.48    0.58
 -13  12  -5    5.83    0.57
  12   1  -5    5.54    0.53
 -13  12  -5    5.80    0.54
   1 -13  -5    7.05    0.59
  -1  13   5    5.97    0.59
  13 -12   5    5.30    0.62
  13 -12   5    5.66    0.55
  -1  13   5    6.03    0.55
 -13  13  -5    6.78    0.59
  13   0  -5    7.29    0.59
   0 -13  -5    5.97    0.57
 -13  13  -5    7.34    0.62
  13 -13   5    6.28    0.59
   0  13   5    6.74    0.62
   0  13   5    6.64    0.59
  13 -13   5    6.04    0.58
 -14   2  -5    5.38    0.53
  14  -2   5    4.07    0.53
 -14   3  -5    2.97    0.44
  11 -14  -5    2.90    0.45
   3  11  -5    3.10    0.47
 -11  14   5    3.62    0.49
  14  -3   5    3.60    0.51
  14  -3   5    3.76    0.54
  14  -3   5    3.90    0.53
  14  -3   5    3.72    0.50
   4  10  -5    0.65    0.27
 -14   4  -5    0.59    0.27
 -14   4  -5    0.77    0.30
  10 -14  -5    0.97    0.31
   4  10  -5    0.65    0.28
 -10  14   5    0.73    0.28
  14  -4   5    0.61    0.28
  14  -4   5    0.58    0.28
  14  -4   5    0.79    0.30
  14  -4   5    0.78    0.31
 -14   5  -5    6.40    0.58
 -14   5  -5    6.81    0.56
   5   9  -5    5.96    0.59
   5   9  -5    7.02    0.58
   9 -14  -5    7.07    0.59
 -14   5  -5    7.25    0.64
  14  -5   5    6.54    0.59
  -9  14   5    6.01    0.56
  14  -5   5    6.13    0.56
  -5  -9   5    6.89    0.62
  14  -5   5    5.97    0.45
  14  -5   5    6.43    0.59
  14  -5   5    6.40    0.61
   6   8  -5    0.85    0.32
 -14   6  -5    0.91    0.28
   6   8  -5    1.32    0.32
 -14   6  -5    1.01    0.30
   8 -14  -5    0.89    0.29
   6   8  -5    1.09    0.30
 -14   6  -5    1.32    0.35
  -6  -8   5    1.48    0.35
  14  -6   5    1.76    0.37
  14  -6   5    1.81    0.30
  14  -6   5    1.17    0.32
  14  -6   5    1.68    0.38
  14  -6   5    1.42    0.34
  -8  14   5    1.43    0.35
  -6  -8   5    1.98    0.41
  -8  14   5    1.40    0.34
   7   7  -5    0.16    0.21
   7 -14  -5    0.30    0.24
 -14   7  -5    0.15    0.22
 -14   7  -5    0.39    0.24
   7   7  -5    0.40    0.24
 -14   7  -5    0.56    0.26
  -7  -7   5    0.28    0.24
  -7  14   5    0.00    0.21
  14  -7   5    0.15    0.16
  -7  14   5    0.58    0.25
  14  -7   5    0.57    0.28
  -7  -7   5    0.54    0.26
  14  -7   5    0.24    0.22
  14  -7   5    0.17    0.23
   8   6  -5    1.19    0.31
   8   6  -5    1.32    0.32
 -14   8  -5    1.14    0.32
   6 -14  -5    1.43    0.34
 -14   8  -5    1.47    0.36
 -14   8  -5    1.30    0.31
  14  -8   5    1.80    0.38
  -8  -6   5    1.73    0.38
  -6  14   5    1.68    0.36
  14  -8   5    1.56    0.28
  -8  -6   5    1.49    0.37
  14  -8   5    1.69    0.39
  -6  14   5    1.78    0.40
  14  -8   5    1.42    0.35
 -14   9  -5    7.55    0.62
 -14   9  -5    6.60    0.59
   5 -14  -5    7.14    0.60
 -14   9  -5    6.77    0.57
   9   5  -5    7.54    0.58
  -5  14   5    6.87    0.58
  14  -9   5    6.48    0.60
  -5  14   5    7.72    0.65
  -9  -5   5    6.44    0.62
  14  -9   5    6.34    0.57
  14  -9   5    6.80    0.48
  -9  -5   5    6.39    0.61
  14  -9   5    6.72    0.58
 -14  10  -5    0.86    0.28
 -14  10  -5    0.79    0.29
   4 -14  -5    0.55    0.27
 -14  10  -5    1.05    0.31
  10   4  -5    0.59    0.26
  14 -10   5    1.04    0.33
  -4  14   5    0.85    0.29
 -10  -4   5    1.27    0.34
  -4  14   5    0.74    0.30
  14 -10   5    0.75    0.29
 -14  11  -5    3.07    0.48
 -14  11  -5    3.67    0.49
   3 -14  -5    3.65    0.50
  11   3  -5    3.29    0.46
  -3  14   5    3.63    0.52
  14 -11   5    3.58    0.50
  14 -11   5    3.72    0.52
  -3  14   5    3.67    0.49
  12   2  -5    4.51    0.53
 -14  12  -5    6.12    0.57
  -2  14   5    4.31    0.58
  14 -12   5    3.67    0.53
   6   9  -5    8.97    0.64
 -15   6  -5    8.60    0.63
   9 -15  -5    8.00    0.64
  -9  15   5    8.32    0.64
  15  -6   5    8.81    0.68
  15  -6   5    7.98    0.64
  15  -6   5    8.09    0.66
 -15   7  -5    2.47    0.41
   8 -15  -5    2.06    0.40
   7   8  -5    1.86    0.37
   7   8  -5    2.90    0.45
  15  -7   5    2.17    0.41
  -8  15   5    2.00    0.39
  15  -7   5    2.60    0.45
  15  -7   5    2.14    0.41
  -8  15   5    2.30    0.44
 -15   8  -5    2.29    0.41
   8   7  -5    2.56    0.43
   8   7  -5    1.86    0.37
 -15   8  -5    2.35    0.43
   7 -15  -5    2.06    0.40
  -7  15   5    2.06    0.40
  15  -8   5    2.44    0.43
  15  -8   5    2.04    0.41
  -7  15   5    2.16    0.42
   9   6  -5    8.13    0.63
   6 -15  -5    8.30    0.65
   9   6  -5    7.44    0.59
 -15   9  -5    8.74    0.68
 -15   9  -5    8.97    0.66
  15  -9   5    8.70    0.67
  15  -9   5    9.09    0.69
  -6  15   5    8.46    0.64
  -6  15   5    7.69    0.67
  -1  -1  -6    3.35    0.41
  -1   2  -6    2.83    0.37
  -1  -1  -6    2.82    0.35
  -1   2  -6    2.66    0.35
  -1   2  -6    2.63    0.36
   1   1   6    3.35    0.39
   1   1   6    3.13    0.37
   1  -2   6    2.99    0.38
   1  -2   6    2.83    0.38
   1   1   6    2.68    0.38
  -2  -1  -6    1.98    0.34
  -1   3  -6    1.82    0.32
  -1   3  -6    2.35    0.36
  -2  -1  -6    1.76    0.38
  -2  -1  -6    2.33    0.33
  -1   3  -6    2.54    0.35
   1  -3   6    3.07    0.40
   2   1   6    3.38    0.41
   2   1   6    3.08    0.39
   2   1   6    3.51    0.41
   1  -3   6    3.20    0.40
   2   1   6    2.35    0.37
  -2   0  -6    5.17    0.42
  -2   0  -6    5.81    0.46
   0   2  -6    5.66    0.47
  -2   0  -6    5.84    0.59
   0  -2   6    7.52    0.52
   2   0   6    7.07    0.49
   2   0   6    7.14    0.50
   1  -2  -6    2.92    0.40
  -2   1  -6    2.79    0.37
  -2   1  -6    2.82    0.36
   1   1  -6    3.29    0.41
  -2   1  -6    2.87    0.35
   1  -2  -6    2.95    0.37
   2  -1   6    3.55    0.39
  -1   2   6    3.31    0.41
   2  -1   6    3.17    0.38
  -1   2   6    3.58    0.40
   2  -1   6    3.15    0.39
   2   0  -6    5.39    0.46
  -2   2  -6    5.77    0.47
  -2   2  -6    5.87    0.46
   0  -2  -6    5.62    0.48
  -2   2  -6    5.93    0.46
   0   2   6    8.62    0.56
   2  -2   6    7.69    0.52
   0   2   6    7.51    0.50
  -2   0   6    6.58    0.49
   2  -2   6    7.64    0.52
   2  -2   6    6.83    0.49
  -1  -2  -6    2.75    0.40
  -2   3  -6    2.57    0.37
  -2   3  -6    2.15    0.33
  -2   3  -6    2.34    0.34
  -1  -2  -6    2.16    0.41
  -2   3  -6    2.40    0.36
   1   2   6    3.14    0.41
   2  -3   6    3.03    0.39
   2  -3   6    2.95    0.39
   1   2   6    3.86    0.42
   1   2   6    3.61    0.41
   2  -3   6    2.90    0.37
  -2  -2  -6    0.49    0.26
  -2   4  -6    0.40    0.20
  -2   4  -6    0.37    0.20
  -2   4  -6    0.57    0.22
  -2   4  -6    0.49    0.22
  -2  -2  -6    0.36    0.21
   2   2   6    0.20    0.18
   2   2   6    0.30    0.22
   2   2   6    0.44    0.23
   2  -4   6    0.62    0.24
   2  -4   6    0.49    0.22
   2  -4   6    0.41    0.20
   2   2   6    0.50    0.22
  -2   5  -6   11.48    0.69
  -2   5  -6   11.17    0.64
  -3  -2  -6   10.22    0.67
  -2   5  -6   10.46    0.62
   2  -5   6    9.79    0.63
   2  -5   6   10.14    0.60
   3   2   6    9.85    0.63
   2  -5   6    9.59    0.63
   3   2   6    8.98    0.60
   3   2   6    9.40    0.63
   3   2   6   10.78    0.63
  -1   4  -6    7.87    0.56
  -1   4  -6    8.13    0.53
  -3  -1  -6    8.41    0.54
  -3  -1  -6    7.23    0.67
  -3  -1  -6    7.47    0.55
   1  -4   6    6.10    0.50
   3   1   6    6.94    0.54
   3   1   6    6.84    0.51
   3   1   6    6.55    0.52
   3   1   6    7.02    0.52
   1  -4   6    6.49    0.51
   3  -3  -6   20.52    0.91
  -3   0  -6   20.35    0.88
   3  -3  -6   20.43    0.84
   0   3  -6   20.07    0.84
  -3   0  -6   21.04    0.93
  -3   0  -6   21.73    0.86
  -3   0  -6   20.94    1.16
   0   3  -6   20.76    0.93
   3   0   6   21.81    0.86
  -3   3   6   21.67    0.84
  -3   3   6   20.45    0.90
   0  -3   6   21.68    0.91
   3   0   6   20.91    0.91
   0  -3   6   20.76    0.87
   3   0   6   19.37    0.85
   3   0   6   21.56    0.91
  -3   1  -6    2.14    0.34
   2  -3  -6    2.05    0.35
  -3   1  -6    1.56    0.38
  -3   1  -6    2.06    0.32
   1   2  -6    2.02    0.34
   2  -3  -6    2.02    0.33
  -3   1  -6    2.08    0.31
  -2   3   6    2.95    0.40
   3  -1   6    3.50    0.41
   3  -1   6    3.23    0.40
  -1  -2   6    3.04    0.39
   3  -1   6    3.42    0.41
  -2   3   6    3.06    0.37
  -3   2  -6    2.55    0.36
  -3   2  -6    2.57    0.36
  -3   2  -6    2.52    0.36
  -3   2  -6    2.23    0.33
  -3   2  -6    2.11    0.43
   1  -3  -6    2.56    0.38
   2   1  -6    2.72    0.38
   1  -3  -6    2.13    0.34
   3  -2   6    3.33    0.40
   3  -2   6    3.35    0.39
   3  -2   6    3.60    0.42
  -2  -1   6    3.68    0.39
  -1   3   6    3.38    0.42
   3  -2   6    3.14    0.40
  -1   3   6    3.09    0.38
   0  -3  -6   18.90    0.89
  -3   3  -6   19.39    0.85
  -3   3  -6   17.51    0.83
  -3   3  -6   17.94    0.83
   3  -3   6   19.52    0.86
   0   3   6   20.07    0.86
   3  -3   6   19.93    0.86
   0   3   6   19.74    0.84
  -3   0   6   18.90    0.86
   0   3   6   18.64    0.89
   3  -3   6   18.44    0.84
   4  -1  -6    7.96    0.49
  -1  -3  -6    8.43    0.69
  -3   4  -6    8.07    0.54
  -3   4  -6    8.65    0.57
  -3   4  -6    8.13    0.57
  -1  -3  -6    6.77    0.55
  -3   4  -6    6.62    0.51
   1   3   6    6.97    0.54
   1   3   6    7.02    0.52
   3  -4   6    6.76    0.52
   3  -4   6    6.74    0.52
   3  -4   6    6.42    0.51
   1   3   6    6.66    0.51
  -4   1   6    6.65    0.51
  -3   5  -6   11.01    0.64
  -3   5  -6    9.32    0.62
  -2  -3  -6   10.97    0.69
  -2  -3  -6    9.24    0.76
  -3   5  -6   10.49    0.63
  -3   5  -6   10.38    0.64
  -5   2   6   10.26    0.64
   3  -5   6    9.74    0.63
   2   3   6    8.82    0.63
   2   3   6   10.02    0.62
   2   3   6    9.73    0.62
   2   3   6    9.94    0.62
   3  -5   6    9.69    0.61
   3  -5   6    9.76    0.63
  -3   6  -6   13.41    0.74
  -3  -3  -6   13.75    0.81
  -3   6  -6   13.86    0.79
  -3   6  -6   14.68    0.76
  -3   6  -6   14.18    0.78
   3   3   6   13.94    0.75
   3  -6   6   15.72    0.80
   3   3   6   14.27    0.74
   3  -6   6   15.18    0.76
   3   3   6   15.67    0.80
   3   3   6   15.48    0.83
   3  -6   6   13.79    0.76
  -3   7  -6    3.24    0.42
  -3   7  -6    3.54    0.46
  -3   7  -6    3.21    0.43
  -4  -3  -6    3.53    0.49
   4   3   6    4.96    0.47
   4   3   6    4.86    0.48
   3  -7   6    4.44    0.44
   3  -7   6    4.69    0.47
   4   3   6    4.87    0.47
   4   3   6    4.71    0.47
   3  -7   6    4.81    0.47
  -2   6  -6    9.17    0.58
  -2   6  -6    8.73    0.62
  -4  -2  -6    8.56    0.56
  -2   6  -6    8.33    0.57
   4   2   6    8.11    0.59
   2  -6   6    9.20    0.58
   4   2   6    9.01    0.61
   2  -6   6    7.97    0.59
   2  -6   6    7.90    0.59
   4   2   6    8.47    0.58
   4   2   6    8.37    0.61
  -4  -1  -6    3.97    0.44
   5  -4  -6    3.48    0.43
   5  -4  -6    3.51    0.40
  -1   5  -6    3.36    0.42
  -1   5  -6    3.08    0.43
   1  -5   6    3.04    0.41
   4   1   6    3.25    0.44
   4   1   6    2.94    0.39
  -5   4   6    3.04    0.38
   4   1   6    3.60    0.45
  -5   4   6    3.44    0.43
   1  -5   6    3.36    0.44
   4   1   6    3.12    0.41
  -4   0  -6   25.60    0.97
   4  -4  -6   25.16    0.95
   4  -4  -6   26.24    1.05
   0   4  -6   26.16    0.98
   0   4  -6   26.68    1.07
  -4   0  -6   26.29    1.33
  -4   4   6   21.99    0.97
   4   0   6   24.24    0.98
   4   0   6   23.03    0.99
  -4   4   6   24.29    0.92
   0  -4   6   22.60    0.98
   0  -4   6   23.40    0.96
   4   0   6   24.62    0.99
   4   0   6   23.17    0.93
   4   0   6   22.31    0.99
  -4   1  -6    7.47    0.54
   1   3  -6    8.41    0.59
   1   3  -6    7.85    0.52
  -4   1  -6    7.89    0.51
   3  -4  -6    8.16    0.57
  -4   1  -6    7.24    0.68
   3  -4  -6    8.37    0.53
   4  -1   6    6.49    0.50
  -1  -3   6    6.41    0.50
  -1  -3   6    7.19    0.50
  -3   4   6    6.38    0.51
   4  -1   6    6.71    0.50
   4  -1   6    7.08    0.53
  -3   4   6    6.65    0.49
  -4   2  -6    0.26    0.18
  -4   2  -6    0.43    0.19
   2   2  -6    0.42    0.21
   2  -4  -6    0.32    0.19
  -4   2  -6    0.44    0.26
  -4   2  -6    0.57    0.22
   2  -4  -6    0.30    0.20
   4  -2   6    0.45    0.22
   4  -2   6    0.58    0.23
  -2  -2   6    0.31    0.19
  -2   4   6    0.48    0.22
   4  -2   6    0.47    0.21
   4  -2   6    0.40    0.21
  -2   4   6    0.27    0.19
  -4   3  -6    7.87    0.55
  -4   3  -6    7.49    0.53
   1  -4  -6    7.72    0.54
  -4   3  -6    6.90    0.52
  -4   3  -6    8.13    0.70
   1  -4  -6    8.27    0.59
  -4   3  -6    8.27    0.51
   4  -3   6    6.28    0.48
  -1   4   6    6.74    0.53
  -1   4   6    7.20    0.51
  -3  -1   6    6.55    0.52
   4  -3   6    5.84    0.50
   4  -3   6    6.72    0.50
   4  -3   6    6.77    0.52
  -4   4  -6   26.11    1.02
   0  -4  -6   26.15    1.09
  -4   4  -6   26.12    1.03
  -4   4  -6   25.31    1.30
  -4   4  -6   25.20    1.03
  -4   4  -6   25.38    1.02
  -4   4  -6   27.07    0.95
   0   4   6   24.38    1.07
   4  -4   6   24.25    1.00
   0   4   6   25.14    0.99
   0   4   6   24.46    0.99
   4  -4   6   23.13    0.99
  -4   0   6   24.62    1.04
   4  -4   6   24.25    0.95
   4  -4   6   25.12    1.03
  -1  -4  -6    3.34    0.52
   5  -1  -6    3.59    0.40
  -4   5  -6    3.10    0.43
  -1  -4  -6    3.78    0.49
  -4   5  -6    3.53    0.44
  -4   5  -6    3.32    0.42
  -4   5  -6    3.46    0.54
  -4   5  -6    3.88    0.46
   4  -5   6    3.20    0.43
  -5   1   6    3.69    0.45
   1   4   6    3.39    0.42
   1   4   6    3.21    0.44
   4  -5   6    3.10    0.41
   1   4   6    3.86    0.45
   4  -5   6    3.27    0.43
  -4   6  -6    8.59    0.59
  -4   6  -6    7.83    0.58
  -4   6  -6    8.85    0.62
  -2  -4  -6    7.61    0.60
  -4   6  -6    7.99    0.56
   6  -2  -6    8.80    0.54
   2   4   6    8.81    0.60
   4  -6   6    7.98    0.58
  -6   2   6    7.85    0.57
   2   4   6    7.34    0.59
   2   4   6    8.30    0.57
   4  -6   6    8.75    0.61
   4  -6   6    8.00    0.57
   2   4   6    9.20    0.60
  -4   7  -6    3.29    0.44
  -3  -4  -6    3.66    0.50
  -4   7  -6    3.81    0.48
  -4   7  -6    3.15    0.43
   7  -3  -6    3.80    0.42
  -4   7  -6    3.46    0.46
   4  -7   6    5.05    0.46
   3   4   6    5.14    0.50
  -7   3   6    4.95    0.48
   3   4   6    4.77    0.47
   3   4   6    4.90    0.48
   4  -7   6    4.31    0.50
   4  -7   6    4.52    0.47
   3   4   6    5.10    0.48
  -4   8  -6   42.41    1.54
  -4   8  -6   41.23    1.45
  -4   8  -6   42.92    1.54
  -4   8  -6   44.29    1.48
  -4  -4  -6   42.63    1.61
   4   4   6   42.93    1.49
   4  -8   6   44.74    1.53
   4   4   6   42.29    1.44
   4   4   6   42.22    1.49
   4  -8   6   44.59    1.48
   4   4   6   41.24    1.55
   4  -8   6   45.35    1.56
  -4   9  -6    4.81    0.50
  -4   9  -6    4.89    0.49
  -4   9  -6    5.57    0.54
  -4   9  -6    5.15    0.50
   5   4   6    5.42    0.51
   4  -9   6    5.25    0.52
   4  -9   6    6.42    0.55
   5   4   6    5.22    0.53
   5   4   6    5.21    0.32
   5   4   6    5.81    0.53
   5   4   6    5.67    0.52
   4  -9   6    5.79    0.51
  -3   8  -6    5.83    0.53
  -3   8  -6    5.55    0.50
  -3   8  -6    6.78    0.53
   3  -8   6    4.84    0.46
   5   3   6    5.96    0.53
   3  -8   6    5.73    0.51
   5   3   6    5.33    0.51
   5   3   6    5.43    0.50
   3  -8   6    4.64    0.53
   5   3   6    5.68    0.54
  -2   7  -6    1.61    0.31
   7  -5  -6    2.10    0.37
   7  -5  -6    1.88    0.32
  -2   7  -6    1.44    0.32
  -2   7  -6    1.58    0.33
  -5  -2  -6    1.16    0.29
   5   2   6    1.59    0.34
   2  -7   6    1.59    0.34
   2  -7   6    1.66    0.32
   5   2   6    1.68    0.33
  -7   5   6    1.63    0.31
   5   2   6    2.24    0.39
   5   2   6    1.80    0.35
   2  -7   6    1.94    0.37
  -5  -1  -6    9.14    0.59
  -1   6  -6    8.50    0.62
  -1   6  -6    9.04    0.60
   6  -5  -6    9.09    0.57
   1  -6   6    8.28    0.59
  -6   5   6    9.04    0.61
   5   1   6    9.36    0.63
  -6   5   6    8.87    0.57
   1  -6   6    8.87    0.62
   5   1   6    8.04    0.61
   5   1   6    8.69    0.59
   5   1   6    9.22    0.62
   5  -5  -6    5.81    0.47
  -5   0  -6    5.77    0.47
   5  -5  -6    5.16    0.48
   0   5  -6    5.10    0.45
   0   5  -6    6.07    0.52
   5   0   6    6.87    0.52
   5   0   6    6.29    0.51
   5   0   6    5.57    0.50
   5   0   6    6.23    0.49
   0  -5   6    5.78    0.48
  -5   5   6    6.74    0.53
   5   0   6    6.08    0.51
  -5   5   6    6.53    0.50
   0  -5   6    6.31    0.52
   4  -5  -6    2.84    0.38
   4  -5  -6    3.58    0.45
  -5   1  -6    3.57    0.42
   1   4  -6    3.51    0.41
  -5   1  -6    3.88    0.39
  -5   1  -6    3.30    0.43
   1   4  -6    2.98    0.43
   5  -1   6    3.52    0.43
   5  -1   6    3.23    0.42
  -4   5   6    3.63    0.42
   5  -1   6    3.15    0.42
  -1  -4   6    3.43    0.43
  -4   5   6    3.41    0.44
   5  -1   6    3.19    0.40
  -1  -4   6    3.92    0.40
  -5   2  -6   10.43    0.65
   3  -5  -6   11.36    0.69
   3  -5  -6   10.68    0.62
  -5   2  -6   11.06    0.62
   2   3  -6   10.59    0.68
  -5   2  -6   10.93    0.64
   5  -2   6    9.22    0.62
   5  -2   6   10.41    0.63
  -3   5   6   10.47    0.67
  -2  -3   6   10.39    0.64
  -3   5   6    9.95    0.62
   5  -2   6    9.98    0.61
   5  -2   6   10.63    0.65
  -5   3  -6   11.87    0.63
  -5   3  -6   10.74    0.65
  -5   3  -6   10.31    0.62
   2  -5  -6   10.34    0.67
   2  -5  -6   10.69    0.63
   5  -3   6    9.53    0.62
  -3  -2   6    9.15    0.60
   5  -3   6    9.79    0.62
  -2   5   6    9.84    0.62
  -3  -2   6   10.30    0.66
   5  -3   6    9.98    0.63
  -2   5   6    9.26    0.64
   5  -3   6    9.16    0.58
  -5   4  -6    3.02    0.41
  -5   4  -6    3.41    0.44
  -5   4  -6    3.30    0.40
   1  -5  -6    3.29    0.43
   1  -5  -6    3.71    0.47
  -5   4  -6    3.30    0.42
   5  -4   6    3.26    0.44
   5  -4   6    3.50    0.44
  -4  -1   6    2.69    0.41
   5  -4   6    2.78    0.38
   5  -4   6    3.50    0.43
  -1   5   6    3.32    0.41
  -1   5   6    3.14    0.40
  -1   5   6    2.70    0.41
   5   0  -6    4.75    0.43
  -5   5  -6    5.24    0.43
   0  -5  -6    5.09    0.57
   0  -5  -6    4.95    0.49
  -5   5  -6    5.41    0.48
  -5   5  -6    5.28    0.47
  -5   5  -6    4.87    0.47
  -5   5  -6    5.14    0.48
   5  -5   6    5.72    0.48
  -5   0   6    5.66    0.51
   5  -5   6    5.44    0.48
   5  -5   6    5.95    0.51
   0   5   6    5.99    0.49
   0   5   6    5.91    0.53
   0   5   6    5.62    0.49
   5  -5   6    5.50    0.45
  -5   6  -6    9.41    0.64
  -5   6  -6    9.11    0.62
  -5   6  -6    8.65    0.61
  -5   6  -6    9.73    0.63
   6  -1  -6    9.73    0.58
  -1  -5  -6    9.25    0.67
   5  -6   6    8.82    0.61
   1   5   6    8.66    0.64
   5  -6   6    8.61    0.62
  -6   1   6    9.20    0.63
   1   5   6    8.56    0.60
   5  -6   6    9.02    0.61
   1   5   6    8.70    0.60
  -2  -5  -6    2.10    0.39
  -5   7  -6    2.16    0.37
   7  -2  -6    1.71    0.31
  -5   7  -6    1.65    0.34
  -5   7  -6    1.39    0.32
  -5   7  -6    2.12    0.37
   2   5   6    1.64    0.35
   5  -7   6    1.75    0.36
   5  -7   6    1.97    0.35
   2   5   6    1.43    0.32
   2   5   6    2.04    0.35
   2   5   6    2.02    0.35
   5  -7   6    1.50    0.32
  -7   2   6    1.58    0.33
  -5   8  -6    5.43    0.50
  -3  -5  -6    6.41    0.58
  -5   8  -6    5.78    0.54
  -5   8  -6    6.72    0.55
   8  -3  -6    6.30    0.47
  -5   8  -6    5.52    0.51
   3   5   6    5.60    0.54
   3   5   6    5.76    0.53
   3   5   6    5.92    0.52
   5  -8   6    6.04    0.52
  -8   3   6    6.42    0.55
   3   5   6    6.71    0.55
   5  -8   6    4.94    0.50
   5  -8   6    5.40    0.51
  -5   9  -6    5.20    0.52
   9  -4  -6    5.97    0.47
  -5   9  -6    5.31    0.51
  -5   9  -6    4.54    0.53
  -5   9  -6    5.75    0.54
  -4  -5  -6    4.92    0.60
   4   5   6    6.19    0.54
   5  -9   6    5.97    0.54
   5  -9   6    7.04    0.59
  -9   4   6    6.41    0.56
   4   5   6    6.40    0.58
   4   5   6    5.31    0.59
   5  -9   6    6.21    0.53
   4   5   6    6.11    0.34
  -5  10  -6    0.91    0.28
  -5  10  -6    0.43    0.24
  -5  10  -6    0.73    0.27
  -5  10  -6    0.67    0.28
   5   5   6    0.46    0.25
   5 -10   6    0.45    0.25
   5 -10   6    0.70    0.26
   5   5   6    0.81    0.18
   5   5   6    0.58    0.27
 -10   5   6    0.90    0.29
   5   5   6    0.75    0.29
   5 -10   6    0.80    0.28
  -5  11  -6    4.99    0.59
  -5  11  -6    4.62    0.57
  -5  11  -6    4.80    0.56
  -5  11  -6    5.22    0.51
   6   5   6    4.62    0.55
   6   5   6    5.45    0.55
   6   5   6    6.03    0.57
   6   5   6    5.66    0.38
   5 -11   6    4.44    0.55
  -4  10  -6    3.05    0.46
  -4  10  -6    3.52    0.48
  -4  10  -6    2.94    0.46
  -4  10  -6    3.58    0.47
   6   4   6    4.00    0.50
   6   4   6    3.71    0.50
   6   4   6    3.80    0.30
   4 -10   6    4.00    0.51
   4 -10   6    3.61    0.50
   6   4   6    4.14    0.52
   9  -6  -6   16.46    0.79
  -6  -3  -6   15.95    0.81
  -3   9  -6   15.08    0.86
   9  -6  -6   14.78    0.82
  -3   9  -6   16.33    0.84
  -3   9  -6   14.97    0.79
  -9   6   6   13.26    0.73
   6   3   6   13.48    0.79
   6   3   6   14.34    0.56
   3  -9   6   11.80    0.77
   6   3   6   14.34    0.82
   6   3   6   12.10    0.80
   3  -9   6   14.03    0.81
   6   3   6   13.99    0.82
  -6  -2  -6    2.81    0.41
   8  -6  -6    3.61    0.47
  -2   8  -6    3.21    0.44
   8  -6  -6    3.85    0.45
  -2   8  -6    3.51    0.47
  -2   8  -6    3.29    0.43
   2  -8   6    3.04    0.45
   2  -8   6    3.05    0.45
   6   2   6    3.10    0.46
   6   2   6    3.05    0.43
  -8   6   6    3.05    0.41
   2  -8   6    3.05    0.41
   6   2   6    2.91    0.44
   6   2   6    3.19    0.47
  -1   7  -6    1.04    0.28
  -6  -1  -6    1.03    0.27
  -1   7  -6    1.24    0.32
   7  -6  -6    0.90    0.27
   7  -6  -6    1.22    0.28
   6   1   6    2.11    0.38
  -7   6   6    2.10    0.35
   6   1   6    2.07    0.36
   6   1   6    2.00    0.37
   6   1   6    1.15    0.29
   6   1   6    1.37    0.32
   1  -7   6    2.05    0.37
   1  -7   6    2.31    0.38
   6  -6  -6   13.48    0.72
  -6   0  -6   12.88    0.71
   0   6  -6   13.43    0.72
   6  -6  -6   12.39    0.74
   0   6  -6   12.94    0.78
   6   0   6   13.51    0.74
   6   0   6   13.26    0.75
   6   0   6   12.68    0.75
   0  -6   6   12.65    0.72
   0  -6   6   13.60    0.77
  -6   6   6   14.32    0.79
   6   0   6   12.91    0.74
  -6   6   6   13.61    0.73
   6   0   6   14.04    0.80
   5  -6  -6    8.91    0.59
  -6   1  -6    8.40    0.57
  -6   1  -6    8.29    0.57
   1   5  -6    8.50    0.63
   5  -6  -6    9.67    0.65
   1   5  -6    9.49    0.59
   6  -1   6    8.50    0.57
  -1  -5   6    9.14    0.60
   6  -1   6    9.01    0.61
   6  -1   6    8.33    0.61
   6  -1   6    8.25    0.56
  -5   6   6    8.66    0.62
  -5   6   6    8.70    0.58
   6  -1   6    7.72    0.57
  -1  -5   6    8.58    0.61
   6  -1   6    8.85    0.61
   4  -6  -6    8.24    0.57
   2   4  -6    9.02    0.56
  -6   2  -6    8.64    0.57
  -6   2  -6    8.37    0.60
  -6   2  -6    9.04    0.58
   4  -6  -6    8.38    0.62
   2   4  -6    7.92    0.61
   6  -2   6    7.78    0.58
  -4   6   6    7.99    0.60
   6  -2   6    8.09    0.58
   6  -2   6    8.41    0.57
  -2  -4   6    8.30    0.58
  -4   6   6    8.02    0.55
  -2  -4   6    7.86    0.55
   6  -2   6    8.35    0.58
   3  -6  -6   13.92    0.75
  -6   3  -6   15.70    0.79
   3  -6  -6   14.40    0.82
  -6   3  -6   13.94    0.72
  -6   3  -6   14.30    0.78
  -3   6   6   14.62    0.80
  -3  -3   6   14.91    0.82
   6  -3   6   14.90    0.80
   6  -3   6   14.21    0.77
   6  -3   6   15.39    0.77
  -3   6   6   15.66    0.78
   6  -3   6   14.69    0.75
  -3  -3   6   15.74    0.79
  -6   4  -6    8.75    0.59
  -6   4  -6    8.29    0.55
   2  -6  -6    9.57    0.66
   2  -6  -6    9.26    0.61
  -6   4  -6    8.22    0.60
   6  -4   6    8.30    0.59
   6  -4   6    7.81    0.58
  -2   6   6    8.22    0.57
  -2   6   6    7.86    0.57
   6  -4   6    8.46    0.60
   6  -4   6    7.42    0.55
  -4  -2   6    8.37    0.61
  -2   6   6    8.21    0.62
  -6   5  -6    8.61    0.61
   5   1  -6    9.48    0.58
  -6   5  -6    8.67    0.56
   1  -6  -6    9.26    0.63
  -6   5  -6    9.18    0.62
   1  -6  -6    9.15    0.66
  -6   5  -6    9.48    0.63
  -5  -1   6    8.53    0.62
   6  -5   6    9.30    0.62
   6  -5   6    9.60    0.60
   6  -5   6    8.30    0.60
  -1   6   6    9.57    0.66
  -1   6   6    9.55    0.61
  -1   6   6    9.86    0.63
   6  -5   6    9.11    0.64
  -6   6  -6   12.30    0.73
  -6   6  -6   13.27    0.68
   0  -6  -6   11.89    0.76
  -6   6  -6   12.56    0.72
   6   0  -6   13.53    0.69
  -6   6  -6   12.75    0.74
  -6   6  -6   13.97    0.78
   6  -6   6   11.57    0.71
   0   6   6   12.74    0.73
   6  -6   6   12.81    0.69
   6  -6   6   12.42    0.73
   6  -6   6   13.40    0.77
  -6   0   6   14.20    0.79
   0   6   6   11.77    0.76
   0   6   6   12.48    0.73
   7  -1  -6    1.26    0.28
  -6   7  -6    1.02    0.26
  -6   7  -6    1.20    0.30
  -6   7  -6    1.29    0.31
  -6   7  -6    1.17    0.30
  -6   7  -6    1.15    0.29
  -1  -6  -6    1.10    0.31
   1   6   6    1.83    0.35
   6  -7   6    2.21    0.36
   1   6   6    1.85    0.36
   6  -7   6    1.17    0.31
   6  -7   6    1.75    0.35
  -7   1   6    1.93    0.36
   1   6   6    2.08    0.39
   6  -7   6    1.99    0.36
  -6   8  -6    2.92    0.43
  -6   8  -6    3.01    0.43
   8  -2  -6    2.59    0.38
  -6   8  -6    3.19    0.44
  -2  -6  -6    3.87    0.52
  -6   8  -6    3.68    0.48
  -8   2   6    3.27    0.46
   6  -8   6    2.91    0.44
   2   6   6    3.02    0.43
   6  -8   6    2.88    0.42
   2   6   6    3.24    0.47
   2   6   6    3.32    0.45
   6  -8   6    3.06    0.45
  -6   9  -6   16.82    0.90
  -3  -6  -6   16.27    0.93
  -6   9  -6   17.95    0.91
  -6   9  -6   16.40    0.86
   9  -3  -6   16.85    0.79
  -6   9  -6   15.85    0.84
   3   6   6   14.61    0.88
   6  -9   6   13.84    0.83
   6  -9   6   13.95    0.83
   3   6   6   14.46    0.84
   3   6   6   14.74    0.82
  -9   3   6   14.84    0.86
   6  -9   6   14.44    0.81
   3   6   6   14.45    0.56
   3   6   6   13.61    0.81
  -6  10  -6    2.87    0.44
  -6  10  -6    3.59    0.50
  -6  10  -6    2.94    0.45
  -6  10  -6    2.96    0.44
  10  -4  -6    2.74    0.40
   4   6   6    3.27    0.46
   6 -10   6    3.37    0.48
   4   6   6    3.84    0.51
   4   6   6    4.06    0.53
   6 -10   6    3.37    0.46
 -10   4   6    4.04    0.53
   4   6   6    3.41    0.29
   6 -10   6    3.58    0.49
  -6  11  -6    4.44    0.54
  -6  11  -6    4.66    0.58
  -6  11  -6    4.26    0.55
  -6  11  -6    4.78    0.50
  11  -5  -6    4.61    0.46
   6 -11   6    4.66    0.55
   5   6   6    5.47    0.38
   5   6   6    5.75    0.58
   6 -11   6    5.32    0.53
   6 -11   6    4.37    0.55
   5   6   6    5.88    0.56
 -11   5   6    5.38    0.55
  -6  12  -6    3.65    0.50
  -6  12  -6    2.80    0.45
   6   6   6    3.39    0.50
   6 -12   6    4.53    0.56
   6   6   6    4.06    0.56
 -12   6   6    3.92    0.55
  -5  12  -6    3.97    0.52
  -5  12  -6    3.93    0.52
   7   5   6    3.86    0.54
   7   5   6    4.34    0.56
   5 -12   6    4.10    0.54
   7   5   6    3.57    0.49
  -4  11  -6    1.37    0.34
  -4  11  -6    1.45    0.35
  -7  -4  -6    1.69    0.35
  -4  11  -6    1.55    0.34
  11  -7  -6    1.79    0.36
   7   4   6    1.57    0.24
   4 -11   6    1.20    0.33
   7   4   6    2.41    0.43
   7   4   6    1.33    0.34
   4 -11   6    1.73    0.37
   7   4   6    1.82    0.39
  -3  10  -6    0.91    0.29
  -3  10  -6    0.74    0.28
  -7  -3  -6    1.14    0.30
  10  -7  -6    0.97    0.31
  -3  10  -6    1.09    0.31
  10  -7  -6    0.63    0.26
   7   3   6    0.97    0.31
   7   3   6    0.73    0.29
 -10   7   6    0.93    0.28
   7   3   6    0.91    0.19
   3 -10   6    0.89    0.30
   7   3   6    1.01    0.30
   3 -10   6    1.04    0.30
  -2   9  -6    7.89    0.63
   9  -7  -6    8.69    0.59
  -7  -2  -6    8.23    0.60
   9  -7  -6    9.11    0.65
  -2   9  -6    8.87    0.61
  -2   9  -6    8.67    0.62
  -9   7   6    7.37    0.56
   7   2   6    6.88    0.60
   7   2   6    8.34    0.62
   7   2   6    8.71    0.65
   2  -9   6    7.57    0.60
   7   2   6    7.89    0.41
   7   2   6    8.29    0.65
   2  -9   6    7.99    0.64
  -7  -1  -6    4.14    0.48
  -1   8  -6    3.80    0.48
  -1   8  -6    3.78    0.50
   8  -7  -6    3.91    0.46
   8  -7  -6    4.43    0.47
   7   1   6    3.96    0.51
   1  -8   6    3.46    0.47
   7   1   6    4.20    0.51
  -8   7   6    4.94    0.47
   7   1   6    4.06    0.49
   1  -8   6    3.90    0.48
   7   1   6    4.25    0.51
   7   1   6    3.86    0.27
   7   1   6    3.93    0.48
   0   7  -6    3.11    0.46
   7  -7  -6    3.44    0.43
   7  -7  -6    3.29    0.46
   0   7  -6    3.16    0.42
  -7   0  -6    3.22    0.42
   7   0   6    3.15    0.45
  -7   7   6    2.89    0.43
   0  -7   6    2.98    0.44
   7   0   6    3.11    0.42
   7   0   6    2.68    0.41
   7   0   6    3.19    0.45
   0  -7   6    3.19    0.44
  -7   7   6    3.59    0.45
   7   0   6    3.68    0.48
   1   6  -6    0.89    0.28
   1   6  -6    1.48    0.31
  -7   1  -6    0.97    0.26
  -7   1  -6    0.94    0.27
   6  -7  -6    1.33    0.31
   6  -7  -6    1.05    0.27
   7  -1   6    1.31    0.32
  -1  -6   6    1.87    0.34
  -6   7   6    1.75    0.34
   7  -1   6    2.12    0.35
  -6   7   6    2.17    0.38
  -1  -6   6    1.93    0.37
   7  -1   6    2.11    0.35
   7  -1   6    2.13    0.37
   7  -1   6    1.66    0.33
   7  -1   6    1.76    0.34
   5  -7  -6    1.61    0.33
   2   5  -6    1.91    0.34
  -7   2  -6    1.41    0.30
   5  -7  -6    1.69    0.35
   2   5  -6    1.98    0.38
  -7   2  -6    1.28    0.30
  -7   2  -6    1.74    0.35
   7  -2   6    1.60    0.31
  -2  -5   6    1.92    0.35
  -2  -5   6    2.00    0.35
   7  -2   6    1.52    0.31
   7  -2   6    1.46    0.32
   7  -2   6    1.98    0.37
  -5   7   6    1.77    0.33
   7  -2   6    2.16    0.38
  -5   7   6    1.50    0.33
   3   4  -6    2.99    0.45
  -7   3  -6    4.06    0.42
   3   4  -6    3.78    0.44
   4  -7  -6    3.62    0.45
  -7   3  -6    3.10    0.42
  -7   3  -6    3.78    0.48
   4  -7  -6    4.25    0.52
  -3  -4   6    4.11    0.48
   7  -3   6    4.31    0.45
   7  -3   6    4.97    0.46
  -4   7   6    5.02    0.46
  -3  -4   6    5.17    0.50
  -3  -4   6    4.64    0.43
   7  -3   6    4.71    0.47
   7  -3   6    4.94    0.46
  -4   7   6    3.85    0.49
   3  -7  -6    4.10    0.49
  -7   4  -6    4.02    0.48
   3  -7  -6    3.61    0.49
  -7   4  -6    3.97    0.45
  -7   4  -6    3.72    0.47
   7  -4   6    5.36    0.49
  -3   7   6    4.32    0.47
  -3   7   6    4.92    0.47
   7  -4   6    5.38    0.50
  -4  -3   6    4.66    0.48
   7  -4   6    4.94    0.47
  -4  -3   6    4.72    0.46
   7  -4   6    4.97    0.48
  -7   5  -6    1.55    0.31
  -7   5  -6    1.30    0.31
   2  -7  -6    1.66    0.36
  -7   5  -6    1.75    0.34
   2  -7  -6    1.32    0.32
   7  -5   6    2.14    0.38
  -2   7   6    1.97    0.36
  -2   7   6    1.74    0.36
   7  -5   6    1.54    0.32
  -5  -2   6    1.59    0.34
   7  -5   6    1.76    0.34
  -2   7   6    1.52    0.32
   7  -5   6    1.22    0.31
   1  -7  -6    0.79    0.29
  -7   6  -6    1.18    0.29
  -7   6  -6    1.11    0.30
   1  -7  -6    1.33    0.32
  -7   6  -6    1.41    0.32
  -7   6  -6    0.84    0.26
   6   1  -6    0.91    0.26
  -7   6  -6    0.85    0.28
   7  -6   6    2.09    0.35
   7  -6   6    1.74    0.34
   7  -6   6    1.57    0.33
  -6  -1   6    1.82    0.37
   7  -6   6    1.85    0.37
  -1   7   6    2.27    0.38
  -1   7   6    1.86    0.35
  -1   7   6    2.16    0.39
   7   0  -6    3.51    0.43
   0  -7  -6    3.50    0.49
  -7   7  -6    3.64    0.46
  -7   7  -6    3.50    0.46
  -7   7  -6    3.35    0.42
  -7   7  -6    3.25    0.46
  -7   7  -6    3.46    0.45
   0   7   6    2.65    0.41
   7  -7   6    2.81    0.40
   7  -7   6    3.37    0.46
   0   7   6    3.14    0.44
   0   7   6    3.75    0.50
   7  -7   6    3.38    0.47
  -7   0   6    3.54    0.48
   7  -7   6    3.51    0.47
  -7   8  -6    4.16    0.52
  -1  -7  -6    3.60    0.51
  -7   8  -6    4.67    0.45
  -7   8  -6    4.09    0.50
  -7   8  -6    4.16    0.51
   8  -1  -6    4.66    0.44
  -7   8  -6    4.29    0.52
  -8   1   6    4.02    0.51
   1   7   6    3.77    0.52
   7  -8   6    3.78    0.50
   1   7   6    4.24    0.28
   1   7   6    4.29    0.51
   7  -8   6    4.15    0.47
   1   7   6    4.14    0.52
   7  -8   6    4.02    0.50
   7  -8   6    4.53    0.47
  -7   9  -6    7.88    0.61
   9  -2  -6    8.36    0.57
  -7   9  -6    8.08    0.62
  -7   9  -6    7.76    0.61
  -2  -7  -6    8.69    0.70
  -7   9  -6    8.24    0.64
   2   7   6    7.16    0.39
   2   7   6    6.35    0.58
   2   7   6    7.69    0.64
   7  -9   6    7.00    0.58
   7  -9   6    7.80    0.63
   2   7   6    7.92    0.61
  -9   2   6    7.63    0.62
   7  -9   6    6.90    0.58
  -7  10  -6    0.89    0.29
  -7  10  -6    0.83    0.29
  -7  10  -6    0.99    0.30
  10  -3  -6    0.84    0.26
   7 -10   6    0.92    0.30
   3   7   6    0.78    0.19
   7 -10   6    0.82    0.29
   7 -10   6    0.93    0.19
   3   7   6    1.20    0.34
   7 -10   6    0.70    0.28
   3   7   6    0.84    0.28
 -10   3   6    1.15    0.33
   3   7   6    0.60    0.26
  -7  11  -6    1.76    0.37
  -7  11  -6    1.29    0.34
  11  -4  -6    1.88    0.35
  -7  11  -6    1.56    0.35
   7 -11   6    1.18    0.32
   4   7   6    1.53    0.25
   4   7   6    1.69    0.38
   7 -11   6    1.63    0.37
   4   7   6    1.85    0.37
 -11   4   6    1.69    0.38
   4   7   6    1.78    0.38
   7 -11   6    1.70    0.25
   7 -11   6    1.20    0.33
  -7  12  -6    3.86    0.52
  -7  12  -6    4.05    0.52
  12  -5  -6    2.94    0.42
   5   7   6    3.88    0.51
 -12   5   6    4.13    0.57
   5   7   6    4.14    0.55
   5   7   6    4.45    0.56
   7 -12   6    3.83    0.53
  -8  -4  -6    8.96    0.66
  12  -8  -6    8.51    0.62
  -4  12  -6    8.73    0.65
  -4  12  -6    8.93    0.67
   8   4   6    7.90    0.67
   8   4   6    8.49    0.65
   8   4   6    8.81    0.68
   4 -12   6    7.11    0.63
  -3  11  -6    4.12    0.54
  -3  11  -6    3.50    0.49
  11  -8  -6    3.60    0.48
  -3  11  -6    3.67    0.49
  -8  -3  -6    3.47    0.48
   8   3   6    3.51    0.50
   8   3   6    3.95    0.54
   8   3   6    3.59    0.49
   3 -11   6    3.27    0.49
   8   3   6    3.67    0.32
   3 -11   6    3.45    0.50
  -2  10  -6    0.90    0.28
  -8  -2  -6    1.18    0.31
  -2  10  -6    1.29    0.33
  -2  10  -6    1.29    0.33
  10  -8  -6    1.39    0.32
   8   2   6    0.84    0.19
   8   2   6    1.19    0.32
   8   2   6    1.13    0.31
 -10   8   6    0.67    0.28
   2 -10   6    1.16    0.32
   8   2   6    0.85    0.31
   2 -10   6    0.71    0.28
   9  -8  -6    5.87    0.52
  -1   9  -6    5.73    0.56
   9  -8  -6    6.17    0.57
  -8  -1  -6    5.43    0.51
  -1   9  -6    5.88    0.53
   8   1   6    6.28    0.37
   8   1   6    5.90    0.53
   1  -9   6    6.17    0.57
  -9   8   6    6.59    0.55
   8   1   6    5.47    0.54
   8   1   6    6.84    0.58
   8   1   6    6.56    0.59
   1  -9   6    5.78    0.54
   8   1   6    5.76    0.54
   0   8  -6    5.57    0.51
   8  -8  -6    5.48    0.51
   0   8  -6    5.33    0.53
   8  -8  -6    5.75    0.56
  -8   0  -6    5.33    0.50
   8   0   6    7.62    0.39
  -8   8   6    8.06    0.59
   8   0   6    8.29    0.64
   8   0   6    7.73    0.58
   0  -8   6    7.32    0.58
   8   0   6    8.58    0.65
   0  -8   6    8.56    0.64
   8   0   6    7.25    0.60
   8   0   6    8.22    0.61
   1   7  -6    4.34    0.53
   7  -8  -6    3.88    0.51
  -8   1  -6    3.96    0.47
  -8   1  -6    4.20    0.48
   1   7  -6    4.28    0.49
   7  -8  -6    3.99    0.48
  -7   8   6    4.32    0.52
   8  -1   6    3.85    0.49
   8  -1   6    4.06    0.48
   8  -1   6    4.17    0.52
   8  -1   6    4.00    0.28
   8  -1   6    4.03    0.51
  -1  -7   6    3.72    0.49
   8  -1   6    3.62    0.49
  -7   8   6    4.41    0.50
  -1  -7   6    3.99    0.49
   2   6  -6    3.29    0.48
   6  -8  -6    3.08    0.43
   6  -8  -6    3.08    0.46
  -8   2  -6    3.51    0.47
   2   6  -6    3.72    0.46
  -8   2  -6    3.40    0.44
  -8   2  -6    3.22    0.43
  -6   8   6    2.75    0.43
   8  -2   6    2.81    0.41
   8  -2   6    3.47    0.47
   8  -2   6    2.87    0.41
   8  -2   6    3.33    0.46
   8  -2   6    3.06    0.44
  -2  -6   6    3.48    0.45
  -2  -6   6    2.41    0.40
   8  -2   6    3.43    0.47
  -6   8   6    3.44    0.45
  -8   3  -6    5.97    0.53
  -8   3  -6    5.04    0.48
   5  -8  -6    5.23    0.53
   3   5  -6    5.95    0.49
   3   5  -6    5.16    0.52
   5  -8  -6    5.83    0.51
  -8   3  -6    5.38    0.49
   8  -3   6    5.31    0.49
  -5   8   6    5.48    0.50
  -3  -5   6    5.97    0.54
   8  -3   6    5.25    0.52
   8  -3   6    5.05    0.50
  -5   8   6    5.52    0.52
  -3  -5   6    5.15    0.46
   8  -3   6    5.55    0.50
   4  -8  -6   42.04    1.46
   4  -8  -6   43.65    1.60
  -8   4  -6   43.04    1.49
  -8   4  -6   41.92    1.50
  -8   4  -6   43.28    1.42
  -4  -4   6   43.50    1.50
  -4   8   6   43.12    1.56
   8  -4   6   40.60    1.43
   8  -4   6   42.70    1.50
   8  -4   6   42.03    1.51
  -4   8   6   45.68    1.46
  -4  -4   6   42.23    1.56
   8  -4   6   43.42    1.48
  -8   5  -6    5.80    0.51
   3  -8  -6    5.89    0.52
  -8   5  -6    6.06    0.54
   3  -8  -6    6.22    0.58
  -8   5  -6    6.43    0.51
  -3   8   6    6.39    0.56
   8  -5   6    5.22    0.50
  -5  -3   6    5.46    0.53
   8  -5   6    5.79    0.50
  -3   8   6    5.79    0.51
  -5  -3   6    5.43    0.50
   8  -5   6    6.08    0.55
  -3   8   6    6.26    0.53
   8  -5   6    5.78    0.53
   2  -8  -6    3.19    0.48
  -8   6  -6    3.02    0.40
   2  -8  -6    3.80    0.48
  -8   6  -6    2.86    0.43
   6   2  -6    3.39    0.43
  -8   6  -6    2.82    0.43
  -2   8   6    2.60    0.43
   8  -6   6    2.60    0.41
   8  -6   6    3.04    0.45
  -6  -2   6    3.18    0.47
  -2   8   6    2.93    0.44
   8  -6   6    2.90    0.43
   8  -6   6    3.20    0.44
  -2   8   6    2.32    0.39
  -8   7  -6    4.21    0.48
  -8   7  -6    4.34    0.52
  -8   7  -6    3.37    0.46
  -8   7  -6    4.16    0.51
   1  -8  -6    3.66    0.49
   7   1  -6    3.43    0.44
  -8   7  -6    4.72    0.46
   1  -8  -6    4.13    0.54
   8  -7   6    4.00    0.50
   8  -7   6    3.81    0.26
  -7  -1   6    4.11    0.53
   8  -7   6    4.05    0.50
  -1   8   6    3.85    0.51
   8  -7   6    3.43    0.44
   8  -7   6    3.85    0.50
  -1   8   6    3.18    0.44
  -1   8   6    3.98    0.49
   0  -8  -6    5.30    0.53
  -8   8  -6    5.14    0.51
  -8   8  -6    4.90    0.50
  -8   8  -6    4.76    0.49
   0  -8  -6    5.58    0.57
   8   0  -6    5.56    0.49
  -8   8  -6    5.68    0.53
   8  -8   6    7.61    0.60
   8  -8   6    7.87    0.61
   0   8   6    8.13    0.60
   0   8   6    6.68    0.58
  -8   0   6    8.28    0.64
   8  -8   6    8.27    0.59
   0   8   6    6.81    0.37
   0   8   6    7.47    0.62
   8  -8   6    7.70    0.38
   8  -8   6    7.64    0.62
  -8   9  -6    6.13    0.56
  -8   9  -6    6.69    0.53
  -8   9  -6    5.89    0.55
  -8   9  -6    5.85    0.54
   9  -1  -6    5.82    0.51
  -8   9  -6    4.76    0.56
   8  -9   6    6.89    0.60
   8  -9   6    6.14    0.36
   8  -9   6    5.64    0.54
   1   8   6    6.43    0.56
  -9   1   6    5.73    0.56
   8  -9   6    6.36    0.56
   1   8   6    6.03    0.37
   1   8   6    5.97    0.55
  -8  10  -6    0.87    0.30
  -8  10  -6    1.06    0.31
  -8  10  -6    1.04    0.31
  10  -2  -6    1.51    0.31
  -8  10  -6    1.36    0.31
  -8  10  -6    1.05    0.31
   8 -10   6    1.08    0.30
   2   8   6    1.17    0.22
   8 -10   6    1.06    0.32
   8 -10   6    0.94    0.30
 -10   2   6    1.14    0.33
   2   8   6    1.07    0.30
   8 -10   6    1.07    0.20
   2   8   6    0.93    0.31
  -8  11  -6    3.53    0.51
  -8  11  -6    3.08    0.48
  11  -3  -6    3.57    0.46
  -8  11  -6    3.09    0.47
  -8  11  -6    3.51    0.49
 -11   3   6    3.59    0.53
   8 -11   6    3.86    0.33
   3   8   6    3.81    0.52
   3   8   6    3.33    0.32
   3   8   6    3.66    0.51
   8 -11   6    3.46    0.50
   3   8   6    3.36    0.48
   8 -11   6    3.12    0.47
   8 -11   6    3.35    0.49
  -8  12  -6    7.98    0.65
  -8  12  -6    7.38    0.62
  12  -4  -6    7.72    0.59
   8 -12   6    7.77    0.65
   4   8   6    7.04    0.63
   8 -12   6    7.99    0.65
   4   8   6    7.32    0.65
   4   8   6    6.70    0.60
  -3  12  -6    2.99    0.45
  12  -9  -6    2.63    0.43
  -9  -3  -6    2.67    0.44
   9   3   6    3.61    0.51
   9   3   6    3.29    0.49
  11  -9  -6    6.08    0.54
  -9  -2  -6    5.55    0.54
  -2  11  -6    5.64    0.52
  -2  11  -6    5.48    0.53
   9   2   6    6.06    0.41
   9   2   6    6.38    0.59
   2 -11   6    5.68    0.56
   9   2   6    6.24    0.60
   9   2   6    5.14    0.58
 -11   9   6    5.52    0.52
   9   2   6    7.37    0.63
  10  -9  -6    4.95    0.49
  -1  10  -6    4.47    0.56
  -1  10  -6    4.46    0.54
  -9  -1  -6    4.10    0.50
   1 -10   6    3.86    0.52
   9   1   6    4.43    0.54
   9   1   6    4.42    0.56
 -10   9   6    3.98    0.50
   1 -10   6    4.53    0.55
   9   1   6    4.16    0.34
   9   1   6    4.78    0.58
   9   1   6    4.19    0.53
   0   9  -6   12.91    0.84
  -9   0  -6   14.33    0.80
   0   9  -6   14.50    0.81
   9  -9  -6   13.40    0.78
   0  -9   6   12.62    0.81
   0  -9   6   12.57    0.78
   9   0   6   13.13    0.81
   9   0   6   13.15    0.80
  -9   9   6   12.82    0.77
   9   0   6   13.14    0.83
   9   0   6   12.57    0.76
   9   0   6   12.98    0.57
  -9   1  -6    6.14    0.53
   1   8  -6    6.44    0.54
  -9   1  -6    6.23    0.53
   8  -9  -6    5.81    0.57
   8  -9  -6    6.03    0.55
   1   8  -6    5.88    0.57
   9  -1   6    6.65    0.58
  -8   9   6    6.46    0.56
   9  -1   6    5.73    0.56
  -1  -8   6    6.35    0.57
   9  -1   6    6.89    0.56
   9  -1   6    6.39    0.38
   9  -1   6    6.70    0.59
   9  -1   6    6.04    0.55
  -1  -8   6    6.41    0.55
   7  -9  -6    9.32    0.68
   2   7  -6    8.57    0.61
  -9   2  -6    9.05    0.62
  -9   2  -6    8.82    0.66
   2   7  -6    8.61    0.67
  -9   2  -6    8.96    0.62
   7  -9  -6    7.79    0.59
  -2  -7   6    7.64    0.62
   9  -2   6    7.01    0.59
   9  -2   6    7.74    0.63
   9  -2   6    7.46    0.62
  -7   9   6    8.11    0.65
   9  -2   6    8.52    0.61
  -2  -7   6    7.12    0.58
   9  -2   6    7.41    0.62
   9  -2   6    7.63    0.40
  -7   9   6    8.02    0.60
  -9   3  -6   16.29    0.88
   6  -9  -6   15.68    0.89
   3   6  -6   15.52    0.89
   3   6  -6   15.71    0.80
   6  -9  -6   15.67    0.83
  -9   3  -6   15.80    0.82
  -9   3  -6   16.05    0.81
   9  -3   6   14.31    0.84
   9  -3   6   14.43    0.81
  -6   9   6   13.40    0.77
   9  -3   6   13.86    0.55
  -3  -6   6   14.02    0.82
  -6   9   6   12.71    0.81
   9  -3   6   13.99    0.83
   9  -3   6   13.30    0.79
   5  -9  -6    4.95    0.53
  -9   4  -6    3.56    0.47
   5  -9  -6    5.46    0.51
  -9   4  -6    5.42    0.49
   4   5  -6    5.31    0.47
   4   5  -6    4.83    0.58
  -9   4  -6    4.89    0.51
  -4  -5   6    6.26    0.57
   9  -4   6    6.01    0.53
   9  -4   6    5.95    0.34
  -5   9   6    5.38    0.53
   9  -4   6    5.55    0.51
  -4  -5   6    5.41    0.51
   9  -4   6    5.50    0.53
  -5   9   6    4.31    0.51
   9  -4   6    6.15    0.55
  -9   5  -6    5.36    0.52
  -9   5  -6    5.66    0.52
   4  -9  -6    4.99    0.56
  -9   5  -6    5.24    0.49
   4  -9  -6    5.38    0.55
   9  -5   6    6.33    0.56
  -4   9   6    6.27    0.57
  -5  -4   6    7.39    0.61
  -5  -4   6    6.31    0.55
   9  -5   6    6.56    0.55
   9  -5   6    5.96    0.52
   9  -5   6    6.20    0.57
   9  -5   6    6.60    0.35
  -4   9   6    6.80    0.56
  -9   6  -6   16.59    0.87
  -9   6  -6   16.13    0.87
  -9   6  -6   16.97    0.83
   6   3  -6   16.50    0.82
   3  -9  -6   16.73    0.94
   3  -9  -6   15.76    0.85
   9  -6   6   14.67    0.56
  -3   9   6   13.27    0.83
  -3   9   6   13.85    0.80
   9  -6   6   14.20    0.84
   9  -6   6   14.37    0.80
  -6  -3   6   14.14    0.81
   9  -6   6   14.71    0.84
  -6  -3   6   13.34    0.84
   9  -6   6   14.83    0.83
  -3   9   6   14.35    0.80
   2  -9  -6    8.73    0.64
  -9   7  -6    7.37    0.56
   2  -9  -6    8.36    0.68
   7   2  -6    8.06    0.59
  -9   7  -6    8.45    0.63
  -9   7  -6    8.33    0.63
  -2   9   6    7.68    0.64
   9  -7   6    6.87    0.38
   9  -7   6    7.78    0.62
   9  -7   6    6.48    0.58
  -2   9   6    7.11    0.58
  -7  -2   6    6.45    0.59
   9  -7   6    8.21    0.62
   9  -7   6    7.07    0.58
  -2   9   6    6.85    0.57
   8   1  -6    5.37    0.51
  -9   8  -6    5.68    0.54
  -9   8  -6    5.73    0.54
  -9   8  -6    6.00    0.53
  -9   8  -6    6.19    0.51
   1  -9  -6    5.76    0.55
  -9   8  -6    5.23    0.52
   9  -8   6    6.11    0.55
   9  -8   6    5.33    0.50
   9  -8   6    5.16    0.53
   9  -8   6    6.36    0.56
  -1   9   6    5.77    0.55
   9  -8   6    5.69    0.36
  -8  -1   6    6.35    0.59
  -1   9   6    6.16    0.56
  -9   9  -6   14.40    0.84
   9   0  -6   14.41    0.78
  -9   9  -6   13.78    0.82
  -9   9  -6   14.07    0.84
  -9   9  -6   13.31    0.75
  -9   9  -6   14.04    0.82
   0  -9  -6   15.37    0.86
   9  -9   6   13.04    0.81
   0   9   6   13.07    0.81
   9  -9   6   13.29    0.58
  -9   0   6   13.22    0.84
   9  -9   6   14.53    0.84
   9  -9   6   14.54    0.82
   9  -9   6   13.31    0.83
  10  -1  -6    4.68    0.46
  -9  10  -6    4.51    0.56
  -9  10  -6    4.24    0.50
  -9  10  -6    5.34    0.53
  -9  10  -6    3.96    0.51
  -9  10  -6    4.64    0.56
   1   9   6    3.87    0.51
   9 -10   6    3.39    0.49
   9 -10   6    3.86    0.52
   1   9   6    4.85    0.57
 -10   1   6    4.73    0.59
   9 -10   6    4.24    0.53
   9 -10   6    3.82    0.33
  -9  11  -6    5.98    0.58
  11  -2  -6    6.43    0.55
  -9  11  -6    6.29    0.58
  -9  11  -6    6.22    0.57
   9 -11   6    6.34    0.58
   9 -11   6    5.98    0.42
   2   9   6    7.28    0.61
 -11   2   6    6.45    0.63
   2   9   6    6.18    0.60
   9 -11   6    6.52    0.61
  12  -3  -6    3.23    0.45
   3   9   6    4.12    0.55
   3   9   6    3.94    0.54
   3   9   6    4.16    0.54
  11 -10  -6    0.09    0.20
  -1  11  -6    0.26    0.23
 -10  -1  -6    0.05    0.20
  10   1   6    0.01    0.21
  10   1   6    0.23    0.23
 -11  10   6    0.18    0.23
  10   1   6    0.11    0.23
   1 -11   6    0.16    0.22
  10   1   6    0.04    0.23
 -10   0  -6    2.97    0.44
   0  10  -6    2.41    0.41
  10 -10  -6    2.14    0.39
   0  10  -6    1.94    0.41
  10   0   6    2.31    0.41
 -10  10   6    2.41    0.42
   0 -10   6    2.55    0.43
  10   0   6    2.95    0.46
  10   0   6    3.38    0.51
   0 -10   6    2.59    0.45
  10   0   6    2.96    0.48
  10   0   6    2.68    0.31
   1   9  -6    4.56    0.57
 -10   1  -6    4.68    0.47
 -10   1  -6    4.50    0.53
   9 -10  -6    5.03    0.50
   1   9  -6    5.03    0.50
  -1  -9   6    4.76    0.58
  10  -1   6    4.71    0.55
  10  -1   6    4.76    0.36
  10  -1   6    4.34    0.53
  -9  10   6    5.01    0.56
  -1  -9   6    4.32    0.53
  10  -1   6    4.38    0.56
  10  -1   6    3.90    0.53
   2   8  -6    0.94    0.30
   8 -10  -6    1.29    0.32
   2   8  -6    1.18    0.31
 -10   2  -6    1.18    0.33
 -10   2  -6    1.31    0.32
 -10   2  -6    1.16    0.30
  -8  10   6    1.30    0.32
  10  -2   6    0.83    0.28
  10  -2   6    0.90    0.31
  10  -2   6    1.22    0.32
  10  -2   6    1.24    0.34
  10  -2   6    1.02    0.21
  -2  -8   6    1.10    0.32
 -10   3  -6    0.82    0.27
 -10   3  -6    1.06    0.29
   7 -10  -6    0.82    0.29
   3   7  -6    0.65    0.27
 -10   3  -6    1.26    0.33
   3   7  -6    1.03    0.29
  -7  10   6    0.78    0.30
  10  -3   6    0.73    0.29
  10  -3   6    0.95    0.32
  10  -3   6    0.57    0.26
  10  -3   6    1.12    0.20
  -3  -7   6    0.57    0.27
 -10   4  -6    3.53    0.49
 -10   4  -6    3.64    0.47
   4   6  -6    2.82    0.42
   6 -10  -6    2.97    0.45
 -10   4  -6    3.74    0.47
   4   6  -6    2.80    0.46
  10  -4   6    3.68    0.48
  -6  10   6    4.20    0.51
  10  -4   6    3.74    0.51
  -4  -6   6    3.45    0.48
  10  -4   6    4.75    0.49
  10  -4   6    3.36    0.30
  10  -4   6    3.49    0.49
 -10   5  -6    0.77    0.26
   5 -10  -6    0.86    0.28
 -10   5  -6    0.72    0.27
 -10   5  -6    0.56    0.26
  10  -5   6    0.69    0.28
  -5  -5   6    0.92    0.29
  10  -5   6    0.88    0.19
  -5  10   6    1.04    0.30
  10  -5   6    0.70    0.27
  10  -5   6    0.77    0.27
  -5  -5   6    0.84    0.29
  10  -5   6    0.66    0.29
 -10   6  -6    2.79    0.42
   4 -10  -6    3.87    0.50
 -10   6  -6    3.31    0.48
 -10   6  -6    2.93    0.45
   6   4  -6    2.96    0.43
  -6  -4   6    3.08    0.48
  -6  -4   6    4.01    0.51
  10  -6   6    3.82    0.52
  10  -6   6    3.27    0.46
  10  -6   6    3.85    0.50
  -4  10   6    3.88    0.49
  10  -6   6    3.56    0.49
  10  -6   6    3.36    0.29
  -4  10   6    3.22    0.45
   3 -10  -6    1.09    0.32
 -10   7  -6    0.80    0.26
 -10   7  -6    0.76    0.28
   7   3  -6    0.66    0.26
 -10   7  -6    1.55    0.35
  10  -7   6    0.83    0.29
  10  -7   6    1.04    0.30
  -7  -3   6    1.12    0.32
  -3  10   6    1.01    0.30
  -3  10   6    0.49    0.25
  10  -7   6    0.80    0.19
  10  -7   6    1.16    0.32
  10  -7   6    1.05    0.32
  -7  -3   6    0.67    0.28
   8   2  -6    1.35    0.32
 -10   8  -6    0.98    0.28
 -10   8  -6    0.84    0.30
   2 -10  -6    1.31    0.34
 -10   8  -6    1.40    0.34
 -10   8  -6    1.19    0.31
 -10   8  -6    1.13    0.32
  10  -8   6    0.83    0.19
  -2  10   6    0.94    0.29
  -8  -2   6    1.17    0.34
  10  -8   6    0.95    0.30
  10  -8   6    0.83    0.28
  10  -8   6    0.62    0.26
  -2  10   6    0.95    0.31
  10  -8   6    1.37    0.35
 -10   9  -6    4.45    0.54
 -10   9  -6    4.56    0.56
 -10   9  -6    4.79    0.48
 -10   9  -6    4.66    0.49
 -10   9  -6    5.05    0.59
   1 -10  -6    4.96    0.58
   9   1  -6    4.65    0.52
  10  -9   6    4.84    0.55
  -9  -1   6    4.57    0.58
  -1  10   6    3.88    0.51
  10  -9   6    4.33    0.34
  10  -9   6    4.48    0.55
  10  -9   6    3.70    0.51
  10  -9   6    4.09    0.54
  -1  10   6    4.55    0.55
 -10  10  -6    3.03    0.47
 -10  10  -6    2.42    0.40
   0 -10  -6    3.18    0.50
  10   0  -6    2.16    0.39
 -10  10  -6    2.31    0.42
 -10  10  -6    2.66    0.45
 -10  10  -6    2.21    0.41
  10 -10   6    2.54    0.44
   0  10   6    2.30    0.42
 -10   0   6    2.27    0.44
  10 -10   6    2.44    0.30
   0  10   6    2.37    0.41
  10 -10   6    2.69    0.45
  10 -10   6    2.26    0.42
  -1 -10  -6    0.14    0.23
 -10  11  -6    0.23    0.23
  11  -1  -6    0.26    0.22
 -10  11  -6    0.03    0.21
 -10  11  -6    0.10    0.22
   1  10   6   -0.11    0.19
  10 -11   6    0.01    0.21
   1  10   6    0.32    0.25
  10 -11   6   -0.09    0.21
 -11   0  -6    4.39    0.54
  11   0   6    3.89    0.56
  11   0   6    3.86    0.52
 -11  11   6    3.95    0.52
  11   0   6    4.01    0.53
 -11   1  -6    0.34    0.23
   1  10  -6   -0.08    0.19
  10 -11  -6    0.15    0.22
 -11   1  -6    0.10    0.21
  11  -1   6    0.30    0.26
  11  -1   6    0.28    0.25
  11  -1   6    0.12    0.23
  11  -1   6   -0.02    0.22
 -10  11   6    0.29    0.23
 -11   2  -6    5.44    0.52
   9 -11  -6    5.84    0.55
 -11   2  -6    5.80    0.53
   2   9  -6    6.20    0.55
  11  -2   6    6.11    0.58
  -2  -9   6    4.83    0.59
  11  -2   6    5.72    0.58
  11  -2   6    5.81    0.58
  11  -2   6    5.74    0.40
  -9  11   6    5.30    0.53
  11  -2   6    5.28    0.54
 -11   3  -6    3.67    0.53
 -11   3  -6    4.69    0.49
   3   8  -6    3.97    0.50
   3   8  -6    3.52    0.52
 -11   3  -6    3.58    0.48
   8 -11  -6    4.20    0.52
  11  -3   6    3.49    0.49
  11  -3   6    4.76    0.56
  11  -3   6    4.11    0.55
  11  -3   6    3.49    0.32
  11  -3   6    3.48    0.50
  -3  -8   6    3.31    0.49
  -8  11   6    3.85    0.50
 -11   4  -6    1.77    0.39
   4   7  -6    2.05    0.42
   4   7  -6    1.65    0.34
 -11   4  -6    1.76    0.34
 -11   4  -6    1.78    0.36
   7 -11  -6    1.65    0.36
  -4  -7   6    1.88    0.39
  11  -4   6    1.77    0.26
  11  -4   6    1.58    0.36
  11  -4   6    1.24    0.37
  -7  11   6    1.58    0.36
  11  -4   6    1.73    0.37
 -11   5  -6    4.12    0.52
   5   6  -6    4.94    0.48
   6 -11  -6    4.85    0.56
   5   6  -6    4.33    0.58
 -11   5  -6    4.88    0.58
  11  -5   6    5.80    0.39
  11  -5   6    5.88    0.56
  11  -5   6    5.08    0.52
  -5  -6   6    5.87    0.57
  11  -5   6    5.24    0.52
  -6  11   6    5.63    0.53
  11  -5   6    6.15    0.58
  -5  -6   6    5.02    0.60
 -11   6  -6    5.12    0.60
 -11   6  -6    4.42    0.54
 -11   6  -6    4.16    0.51
   6   5  -6    5.59    0.52
   5 -11  -6    4.58    0.56
  11  -6   6    4.94    0.36
  -6  -5   6    4.37    0.56
  11  -6   6    4.33    0.54
  11  -6   6    5.54    0.55
  -5  11   6    5.42    0.53
  -6  -5   6    5.38    0.54
  11  -6   6    5.65    0.58
  11  -6   6    4.67    0.55
 -11   7  -6    1.39    0.34
   7   4  -6    1.96    0.37
 -11   7  -6    1.75    0.35
   4 -11  -6    1.81    0.38
 -11   7  -6    1.60    0.36
  -4  11   6    1.17    0.32
  -4  11   6    1.53    0.37
  -7  -4   6    1.51    0.37
  -7  -4   6    1.46    0.35
  11  -7   6    1.49    0.37
  11  -7   6    1.44    0.35
  11  -7   6    1.32    0.33
  11  -7   6    1.64    0.36
  11  -7   6    1.85    0.26
 -11   8  -6    3.58    0.50
 -11   8  -6    2.90    0.45
   8   3  -6    3.28    0.46
   3 -11  -6    3.97    0.52
 -11   8  -6    3.69    0.48
  11  -8   6    3.61    0.33
  11  -8   6    3.72    0.51
  11  -8   6    3.75    0.49
  -3  11   6    3.48    0.48
  11  -8   6    3.95    0.52
  11  -8   6    3.73    0.52
  -8  -3   6    3.98    0.55
   2 -11  -6    6.71    0.61
 -11   9  -6    6.94    0.58
   9   2  -6    6.42    0.55
 -11   9  -6    6.53    0.60
 -11   9  -6    6.62    0.60
 -11   9  -6    6.87    0.61
  11  -9   6    6.52    0.43
  11  -9   6    6.78    0.58
  -2  11   6    6.82    0.61
  11  -9   6    6.54    0.62
  11  -9   6    7.36    0.62
 -11  10  -6    0.04    0.23
 -11  10  -6   -0.01    0.20
  10   1  -6    0.13    0.20
 -11  10  -6    0.47    0.25
 -11  10  -6    0.12    0.22
   1 -11  -6    0.28    0.23
  11 -10   6    0.08    0.20
  11 -10   6    0.07    0.24
  -1  11   6   -0.02    0.20
  -1  11   6    0.32    0.26
   0  11   6    4.09    0.55
   0  11   6    3.84    0.51
   9 -12  -6    3.40    0.49
   3   9  -6    3.26    0.48
 -12   3  -6    2.94    0.45
  12  -3   6    4.40    0.55
  -9  12   6    3.98    0.53
  12  -3   6    3.42    0.51
 -12   4  -6    8.10    0.67
   8 -12  -6    8.24    0.64
 -12   4  -6    7.53    0.61
   4   8  -6    8.57    0.64
  12  -4   6    8.21    0.67
  12  -4   6    6.94    0.61
  12  -4   6    7.51    0.67
  -8  12   6    7.72    0.63
  12  -4   6    7.11    0.64
 -12   5  -6    3.83    0.49
 -12   5  -6    4.01    0.54
   5   7  -6    4.99    0.50
   7 -12  -6    3.92    0.52
  12  -5   6    3.68    0.51
  12  -5   6    3.91    0.54
  -7  12   6    4.53    0.55
  12  -5   6    3.96    0.55
 -12   6  -6    3.45    0.47
 -12   6  -6    3.24    0.50
   6 -12  -6    3.75    0.51
   6   6  -6    2.77    0.43
  12  -6   6    3.82    0.53
  -6  12   6    4.57    0.55
  12  -6   6    3.58    0.53
  -6  -6   6    3.48    0.51
  12  -6   6    4.21    0.53
   7   5  -6    3.45    0.47
   5 -12  -6    3.35    0.50
 -12   7  -6    4.17    0.54
 -12   7  -6    3.27    0.47
  -5  12   6    3.79    0.52
  12  -7   6    4.37    0.58
  12  -7   6    4.30    0.56
  -7  -5   6    3.80    0.53
  12  -7   6    3.54    0.49
  -5  12   6    4.17    0.53
   8   4  -6    7.85    0.61
 -12   8  -6    7.87    0.65
   4 -12  -6    7.34    0.61
 -12   8  -6    7.86    0.61
  12  -8   6    7.14    0.65
  12  -8   6    7.17    0.62
  -4  12   6    7.18    0.62
  -8  -4   6    7.72    0.66
  12  -8   6    6.47    0.59
   9   3  -6    3.68    0.49
 -12   9  -6    3.02    0.46
   3 -12  -6    3.12    0.48
  -3  12   6    4.58    0.58
  12  -9   6    4.07    0.54
  -3  12   6    4.01    0.52
  -2   4  -7    0.89    0.27
  -2   4  -7    0.76    0.26
   2  -4   7    1.36    0.31
   2   2   7    1.03    0.28
   2  -4   7    1.20    0.31
  -2   5  -7    2.91    0.42
  -3  -2  -7    2.81    0.45
  -3  -2  -7    3.13    0.43
  -2   5  -7    2.90    0.44
  -2   5  -7    2.84    0.43
   2  -5   7    3.25    0.46
   3   2   7    2.74    0.42
   2  -5   7    3.39    0.46
   3   2   7    2.83    0.43
   3   2   7    3.11    0.46
  -1   4  -7    3.17    0.46
  -1   4  -7    3.41    0.46
  -3  -1  -7    2.96    0.40
   1  -4   7    3.40    0.47
   3   1   7    3.15    0.45
   0   3  -7   16.16    0.87
   0  -3  -7   15.68    0.81
   0   3   7   14.92    0.78
  -3   4  -7    3.69    0.49
  -1  -3  -7    3.91    0.51
  -1  -3  -7    3.63    0.47
  -3   4  -7    3.91    0.48
   1   3   7    3.03    0.43
   3  -4   7    2.78    0.43
   1   3   7    2.76    0.44
   3  -4   7    2.64    0.42
  -3   5  -7    3.09    0.44
  -2  -3  -7    2.78    0.41
  -3   5  -7    3.02    0.45
  -2  -3  -7    2.61    0.44
  -3   5  -7    2.60    0.43
   3  -5   7    3.43    0.47
   2   3   7    3.19    0.46
   2   3   7    3.12    0.48
   2   3   7    3.18    0.44
   3  -5   7    3.53    0.47
  -3   6  -7    5.74    0.55
  -3   6  -7    5.09    0.51
  -3  -3  -7    5.53    0.50
  -3   6  -7    6.04    0.56
   3  -6   7    5.58    0.55
   3  -6   7    5.74    0.55
   3   3   7    6.70    0.58
  -4  -3  -7    2.10    0.38
  -3   7  -7    2.31    0.42
  -3   7  -7    2.40    0.41
  -3   7  -7    2.16    0.42
   3  -7   7    2.39    0.42
   4   3   7    1.86    0.38
   3  -7   7    1.89    0.38
   4   3   7    2.43    0.41
  -2   6  -7    1.94    0.38
  -2   6  -7    2.03    0.40
  -4  -2  -7    1.82    0.36
  -2   6  -7    2.18    0.39
   4   2   7    1.87    0.38
   2  -6   7    1.56    0.35
   4   2   7    1.73    0.35
   2  -6   7    1.33    0.35
  -1   5  -7    0.71    0.27
  -4  -1  -7    0.87    0.26
  -4  -1  -7    0.81    0.28
  -1   5  -7    0.85    0.28
  -1   5  -7    0.72    0.25
   4   1   7    0.68    0.26
   1  -5   7    0.91    0.29
   4   1   7    1.09    0.31
   4   1   7    1.21    0.30
   1  -5   7    0.96    0.28
   0   4  -7   11.37    0.73
   0   4  -7   10.33    0.71
  -4   0  -7   10.24    0.65
  -4   0  -7   10.59    0.70
   4   0   7   11.53    0.73
   0  -4   7   12.16    0.74
   4   0   7   11.70    0.72
  -4   1  -7    2.87    0.41
  -4   1  -7    4.07    0.50
   1   3  -7    2.78    0.43
   4  -1   7    2.88    0.43
   4  -1   7    3.37    0.46
   2  -4  -7    1.12    0.30
   2   2  -7    1.23    0.31
  -4   2  -7    1.04    0.30
   4  -2   7    1.03    0.30
  -2   4   7    1.12    0.29
  -4   3  -7    3.55    0.47
  -4   3  -7    3.50    0.46
   3   1  -7    3.48    0.47
   1  -4  -7    3.33    0.49
   1  -4  -7    3.63    0.47
   4  -3   7    3.71    0.48
   4  -3   7    2.31    0.40
  -1   4   7    3.40    0.48
  -1   4   7    3.45    0.45
   0  -4  -7   11.42    0.76
  -4   4  -7   11.04    0.72
  -4   4  -7   11.54    0.73
   0  -4  -7   12.14    0.73
  -4   4  -7   11.52    0.71
   4  -4   7   12.14    0.74
   0   4   7   11.46    0.70
   4  -4   7   12.51    0.76
  -4   5  -7    0.51    0.25
  -1  -4  -7    0.76    0.27
  -4   5  -7    0.85    0.28
  -4   5  -7    0.97    0.29
   1   4   7    1.30    0.32
   4  -5   7    0.90    0.29
   4  -5   7    1.23    0.31
   4  -5   7    1.37    0.33
   1   4   7    0.84    0.28
  -4   6  -7    2.33    0.41
  -4   6  -7    1.78    0.37
  -4   6  -7    1.86    0.38
  -4   6  -7    2.41    0.41
   2   4   7    2.11    0.39
   4  -6   7    1.47    0.36
   2   4   7    1.92    0.39
   4  -6   7    2.01    0.39
   4  -6   7    1.60    0.34
  -3  -4  -7    2.20    0.38
  -4   7  -7    2.24    0.41
  -4   7  -7    2.18    0.39
  -4   7  -7    1.80    0.37
  -4   7  -7    2.37    0.43
   4  -7   7    1.83    0.39
   4  -7   7    1.82    0.38
   3   4   7    2.26    0.42
   4  -7   7    1.88    0.37
   3   4   7    2.18    0.40
  -4   8  -7    0.43    0.26
  -4   8  -7    0.36    0.25
  -4   8  -7    0.77    0.28
  -4  -4  -7    0.45    0.25
   4  -8   7    0.40    0.26
   4   4   7    0.65    0.29
   4  -8   7    0.50    0.26
   4   4   7    0.59    0.27
  -4   9  -7    4.57    0.55
  -5  -4  -7    4.53    0.55
   5   4   7    4.84    0.60
   5   4   7    4.89    0.60
   4  -9   7    4.49    0.54
   5   4   7    4.15    0.54
  -5  -3  -7    4.38    0.53
  -3   8  -7    4.94    0.51
   3  -8   7    4.26    0.55
   5   3   7    4.59    0.56
   5   3   7    4.11    0.54
   5   3   7    3.88    0.53
  -2   7  -7    0.47    0.26
  -2   7  -7    0.14    0.22
  -2   7  -7    0.43    0.25
  -5  -2  -7    0.52    0.25
   2  -7   7    0.09    0.21
   5   2   7    0.03    0.20
   5   2   7    0.43    0.26
   2  -7   7    0.17    0.23
   5   2   7    0.56    0.27
  -1   6  -7    3.33    0.46
  -5  -1  -7    2.84    0.42
  -1   6  -7    3.18    0.47
  -1   6  -7    2.90    0.47
  -5  -1  -7    2.69    0.43
   5   1   7    3.35    0.47
   1  -6   7    3.68    0.49
   5   1   7    2.98    0.44
   1  -6   7    3.24    0.48
   5   1   7    3.83    0.52
  -5   0  -7    0.14    0.20
  -5   0  -7    0.25    0.22
   0   5  -7    0.27    0.23
   5   0   7    0.65    0.27
   0  -5   7    0.69    0.27
   5   0   7    0.94    0.32
  -5   1  -7    0.53    0.24
   4  -5  -7    0.93    0.28
   1   4  -7    0.64    0.27
  -5   1  -7    0.80    0.28
   5  -1   7    0.75    0.28
  -1  -4   7    0.68    0.28
   5  -1   7    1.02    0.29
  -4   5   7    0.70    0.26
  -5   2  -7    2.76    0.43
   2   3  -7    2.81    0.45
  -5   2  -7    2.88    0.41
   3  -5  -7    2.49    0.43
   3  -5  -7    2.67    0.42
  -3   5   7    2.70    0.41
   5  -2   7    2.69    0.42
  -3   5   7    2.46    0.43
   5  -2   7    3.45    0.48
   2  -5  -7    2.99    0.43
   3   2  -7    3.40    0.47
  -5   3  -7    3.37    0.46
   2  -5  -7    2.83    0.46
  -5   3  -7    3.24    0.45
   5  -3   7    2.77    0.44
  -2   5   7    3.35    0.45
   5  -3   7    3.50    0.48
  -2   5   7    3.68    0.50
  -5   4  -7    0.51    0.25
   4   1  -7    0.98    0.31
  -5   4  -7    0.66    0.26
   1  -5  -7    0.80    0.28
  -5   4  -7    0.53    0.25
   4   1  -7    1.05    0.29
  -1   5   7    0.86    0.29
   5  -4   7    0.79    0.28
   5  -4   7    1.07    0.31
   5  -4   7    0.83    0.28
  -5   5  -7    0.40    0.24
   5   0  -7    0.50    0.23
   0  -5  -7    0.42    0.26
  -5   5  -7    0.39    0.24
  -5   5  -7    0.40    0.23
   0   5   7    0.59    0.27
   5  -5   7    0.58    0.27
  -5   0   7    0.85    0.30
   5  -5   7    1.10    0.32
   5  -5   7    0.66    0.27
  -5   6  -7    2.74    0.45
  -5   6  -7    3.30    0.47
  -5   6  -7    2.57    0.42
  -1  -5  -7    2.46    0.42
   5  -6   7    2.91    0.45
   5  -6   7    2.81    0.46
   1   5   7    3.17    0.46
   1   5   7    3.92    0.50
   5  -6   7    3.45    0.47
  -5   7  -7    0.51    0.27
  -5   7  -7    0.30    0.24
  -5   7  -7    0.41    0.24
  -5   7  -7    0.20    0.24
   5  -7   7   -0.04    0.19
   2   5   7    0.50    0.26
   2   5   7    0.17    0.24
   5  -7   7    0.08    0.22
   5  -7   7    0.27    0.24
  -5   8  -7    5.02    0.57
  -5   8  -7    4.52    0.56
  -5   8  -7    5.03    0.51
   5  -8   7    3.82    0.53
   3   5   7    3.92    0.53
   5  -8   7    4.27    0.53
   3   5   7    3.77    0.51
  -5   9  -7    4.35    0.55
   4   5   7    4.96    0.60
   5  -9   7    5.04    0.52
   4   5   7    5.33    0.60
  -6  -2  -7    3.77    0.49
  -2   8  -7    4.12    0.51
   6   2   7    3.56    0.51
   6   2   7    3.66    0.50
   6   2   7    3.51    0.51
   2  -8   7    3.86    0.51
  -1   7  -7    4.73    0.55
  -1   7  -7    3.94    0.54
  -6  -1  -7    4.87    0.55
   6   1   7    3.83    0.53
   6   1   7    4.07    0.51
   6   1   7    4.45    0.55
   1  -7   7    4.56    0.55
   1  -7   7    3.79    0.52
   0   6  -7    7.91    0.59
  -6   0  -7    8.07    0.65
  -6   0  -7    7.04    0.58
   0   6  -7    7.23    0.64
   6  -6  -7    6.99    0.57
   6   0   7    7.11    0.61
   6   0   7    6.67    0.59
   0  -6   7    7.00    0.61
  -6   6   7    8.06    0.61
   0  -6   7    6.91    0.59
  -6   1  -7    2.76    0.46
  -6   1  -7    2.95    0.44
   1   5  -7    2.96    0.47
   5  -6  -7    3.37    0.45
  -1  -5   7    3.76    0.51
   6  -1   7    2.74    0.44
   6  -1   7    2.96    0.46
  -5   6   7    3.32    0.45
   4  -6  -7    2.18    0.39
  -6   2  -7    1.89    0.36
   2   4  -7    2.38    0.43
  -6   2  -7    2.29    0.41
   6  -2   7    1.89    0.39
   6  -2   7    1.96    0.39
  -4   6   7    1.83    0.36
   6  -2   7    1.83    0.36
   3  -6  -7    5.67    0.52
  -6   3  -7    5.46    0.50
  -6   3  -7    5.73    0.53
  -6   3  -7    5.89    0.57
   3   3  -7    4.81    0.58
   6  -3   7    6.12    0.53
   6  -3   7    5.33    0.53
  -3   6   7    5.83    0.52
   6  -3   7    6.26    0.56
   4   2  -7    2.03    0.40
  -6   4  -7    2.36    0.41
  -6   4  -7    2.96    0.45
  -6   4  -7    2.42    0.39
   2  -6  -7    2.34    0.40
   4   2  -7    2.52    0.40
  -6   4  -7    2.28    0.41
   6  -4   7    2.00    0.39
  -2   6   7    1.86    0.37
   6  -4   7    1.64    0.36
   6  -4   7    1.77    0.35
   6  -4   7    2.49    0.43
  -6   5  -7    2.73    0.44
   5   1  -7    2.51    0.39
  -6   5  -7    2.24    0.40
   1  -6  -7    3.27    0.47
  -6   5  -7    2.79    0.45
   6  -5   7    3.80    0.51
  -1   6   7    3.28    0.47
   6  -5   7    3.05    0.46
  -5  -1   7    3.07    0.47
   6  -5   7    3.18    0.47
  -6   6  -7    6.87    0.61
  -6   6  -7    6.32    0.57
   6   0  -7    7.54    0.56
  -6   6  -7    6.54    0.59
  -6   0   7    7.01    0.63
   0   6   7    6.95    0.60
   6  -6   7    6.57    0.58
   0   6   7    6.42    0.58
   6  -6   7    6.58    0.60
  -6   7  -7    5.19    0.54
  -6   7  -7    4.68    0.57
  -1  -6  -7    4.52    0.56
   7  -1  -7    4.71    0.47
  -6   7  -7    5.03    0.59
  -6   7  -7    5.21    0.53
   1   6   7    3.80    0.51
  -7   1   7    3.86    0.54
   6  -7   7    3.69    0.50
   6  -7   7    4.26    0.55
   6  -7   7    4.32    0.57
   1   6   7    4.64    0.55
  -6   8  -7    3.27    0.49
  -6   8  -7    2.74    0.46
  -6   8  -7    3.45    0.50
   2   6   7    3.59    0.50
   6  -8   7    3.41    0.50
   2   6   7    4.20    0.55
   6  -8   7    3.48    0.50
   8  -7  -7    0.35    0.25
  -7  -1  -7    0.27    0.24
  -1   8  -7    0.23    0.22
  -8   7   7    0.54    0.27
   7   1   7    0.53    0.27
   1  -8   7    0.59    0.27
   7   1   7    0.32    0.24
   7   1   7    0.43    0.28
  -7   0  -7    3.44    0.47
  -7   0  -7    3.01    0.48
   7  -7  -7    3.98    0.50
   0   7  -7    3.16    0.46
   0  -7   7    2.64    0.44
   0  -7   7    2.35    0.44
  -7   7   7    3.41    0.46
   7   0   7    2.40    0.44
   7   0   7    2.89    0.46
   7   0   7    3.24    0.48
  -7   1  -7    4.15    0.54
  -7   1  -7    4.92    0.49
   1   6  -7    4.44    0.57
   6  -7  -7    4.23    0.53
   1   6  -7    4.88    0.49
  -1  -6   7    4.24    0.55
  -6   7   7    3.23    0.46
   7  -1   7    3.88    0.53
  -1  -6   7    3.48    0.48
   7  -1   7    4.53    0.55
  -7   2  -7    0.35    0.24
  -7   2  -7    0.18    0.21
   2   5  -7    0.31    0.24
   5  -7  -7    0.36    0.24
   7  -2   7   -0.03    0.21
  -5   7   7    0.46    0.25
   7  -2   7    0.28    0.25
  -2  -5   7    0.24    0.23
   7  -2   7    0.44    0.27
  -7   3  -7    2.05    0.40
   3   4  -7    2.47    0.45
  -7   3  -7    2.64    0.41
   4  -7  -7    2.18    0.39
   7  -3   7    1.54    0.37
  -4   7   7    2.15    0.39
   7  -3   7    2.19    0.39
   7  -3   7    2.47    0.43
   3  -7  -7    2.66    0.44
   4   3  -7    1.82    0.39
  -7   4  -7    1.89    0.37
  -7   4  -7    1.58    0.36
  -7   4  -7    2.09    0.37
  -7   4  -7    2.03    0.39
  -3   7   7    1.83    0.37
   7  -4   7    2.12    0.39
   7  -4   7    2.30    0.40
   7  -4   7    2.60    0.44
  -7   5  -7    0.25    0.22
   5   2  -7    0.09    0.21
   2  -7  -7    0.38    0.26
  -7   5  -7    0.28    0.21
  -7   5  -7    0.40    0.25
  -7   5  -7    0.06    0.20
   5   2  -7    0.37    0.25
   7  -5   7    0.23    0.23
  -5  -2   7    0.07    0.20
   7  -5   7    0.25    0.24
   7  -5   7    0.11    0.22
   7  -5   7    0.47    0.26
  -2   7   7    0.15    0.23
  -7   6  -7    5.32    0.54
   6   1  -7    4.91    0.55
   1  -7  -7    5.45    0.54
  -7   6  -7    4.89    0.58
  -7   6  -7    4.95    0.49
  -7   6  -7    4.76    0.58
   7  -6   7    4.45    0.55
   7  -6   7    4.21    0.55
  -6  -1   7    4.15    0.55
   7  -6   7    3.88    0.49
   7  -6   7    4.93    0.58
  -1   7   7    3.43    0.49
  -7   7  -7    2.90    0.47
   0  -7  -7    2.68    0.46
   7   0  -7    3.27    0.45
  -7   7  -7    3.18    0.47
  -7   0   7    2.77    0.46
   0   7   7    2.79    0.45
   7  -7   7    2.16    0.42
   7  -7   7    2.77    0.45
   0   7   7    2.33    0.43
   8  -1  -7    0.33    0.23
  -1  -7  -7    0.05    0.24
  -7   8  -7    0.42    0.25
  -7   8  -7   -0.01    0.21
   1   7   7    0.51    0.27
   1   7   7    0.10    0.23
   7  -8   7    0.19    0.25
   1   7  -7    0.43    0.25
  -8   1  -7    0.43    0.26
   7  -8  -7    0.42    0.26
  -8   1  -7    0.31    0.25
   8  -1   7    0.12    0.23
  -1  -7   7    0.14    0.23
   8  -1   7    0.23    0.24
  -7   8   7    0.31    0.25
  -8   2  -7    3.69    0.49
  -8   2  -7    4.30    0.56
   6  -8  -7    3.39    0.49
   8  -2   7    3.68    0.51
  -6   8   7    4.09    0.53
   8  -2   7    3.24    0.49
   8  -2   7    3.99    0.54
   5  -8  -7    4.53    0.54
  -8   3  -7    4.63    0.54
  -8   3  -7    4.44    0.57
   8  -3   7    4.06    0.53
  -5   8   7    3.62    0.50
  -3  -5   7    4.52    0.56
   8  -3   7    4.68    0.58
   8  -3   7    3.78    0.54
  -8   4  -7    0.47    0.25
   4  -8  -7    0.44    0.26
  -8   4  -7    0.35    0.26
  -8   4  -7    0.60    0.25
   8  -4   7    0.26    0.25
   8  -4   7    0.35    0.25
  -4   8   7    0.55    0.26
   8  -4   7    0.51    0.26
   8  -4   7    0.58    0.27
   5   3  -7    5.37    0.51
  -8   5  -7    4.46    0.52
  -8   5  -7    4.38    0.54
  -8   5  -7    5.34    0.54
   3  -8  -7    4.67    0.57
  -8   5  -7    4.71    0.57
   8  -5   7    3.90    0.55
  -3   8   7    3.83    0.51
   8  -5   7    4.28    0.53
   8  -5   7    4.02    0.53
   8  -5   7    3.95    0.52
   2  -8  -7    3.25    0.49
   6   2  -7    3.74    0.50
  -8   6  -7    3.54    0.51
  -8   6  -7    4.05    0.54
  -8   6  -7    3.52    0.47
   8  -6   7    4.28    0.57
   8  -6   7    3.63    0.49
  -2   8   7    3.95    0.52
   8  -6   7    3.83    0.53
   7   1  -7    0.25    0.23
  -8   7  -7    0.56    0.28
  -8   7  -7    0.18    0.23
  -8   7  -7    0.31    0.22
   1  -8  -7    0.35    0.27
  -1   8   7    0.30    0.24
  -1   8   7    0.26    0.25
   8  -7   7    0.30    0.24
   8  -7   7    0.35    0.26
   8  -7   7    0.42    0.26
  -9   4  -7    4.33    0.53
   5  -9  -7    4.00    0.54
  -5   9   7    5.11    0.59
   9  -4   7    4.59    0.56
   5   4  -7    4.93    0.57
   4  -9  -7    4.93    0.58
  -4   9   7    5.00    0.57
   9  -5   7    4.97    0.59
   6   3  -7    4.82    0.56
   0   0   0    0.00    0.00
;
loop_
_space_group_symop_operation_xyz
'x, y, z'
'-y, x-y, z'
'-x+y, -x, z'
'-x+y, y, z'
'x, x-y, z'
'-y, -x, z'
loop_
_atom_site_label
_atom_site_fract_x
_atom_site_fract_y
_atom_site_fract_z
_atom_site_U_iso_or_equiv
_atom_site_adp_type
_atom_site_calc_flag
_atom_site_occupancy
_atom_site_type_symbol
Eu1 0.55401(2) 0.10801(2) 0.32409(11) 0.01789(6) Uani d 1 Eu
Eu2 1 0 0.6765(16) 0.0303(11) Uani d 0.1381 Eu
Eu3 1 0 0.8037(8) 0.0721(9) Uani d 0.458 Eu
Li1 0.3333 0.6667 0.836(6) 0.011(3) Uani d 1 Li
Si1 0.58927(8) 0.91989(8) 0.8080(3) 0.00464(13) Uani d 0.6956 Si
Al1 0.58927(8) 0.91989(8) 0.8080(3) 0.00464(13) Uani d 0.3044 Al
Si2 0.50713(13) 0.75357(7) 0.3187(6) 0.0082(2) Uani d 0.6956 Si
Al2 0.50713(13) 0.75357(7) 0.3187(6) 0.0082(2) Uani d 0.3044 Al
Si3 0.75605(9) 0.00212(9) 0.2976(3) 0.00446(15) Uani d 0.6956 Si
Al3 0.75605(9) 0.00212(9) 0.2976(3) 0.00446(15) Uani d 0.3044 Al
Si4 0.81994(6) 0.18006(6) 0.7877(3) 0.0056(2) Uani d 0.6956 Si
Al4 0.81994(6) 0.18006(6) 0.7877(3) 0.0056(2) Uani d 0.3044 Al
Si5 0.6667 0.3333 0.8256(12) 0.0130(4) Uani d 0.6956 Si
Al5 0.6667 0.3333 0.8256(12) 0.0130(4) Uani d 0.3044 Al
Si6 1 0 0.1449(15) 0.0082(6) Uani d 0.2809 Si
Al6 1 0 0.1449(15) 0.0082(6) Uani d 0.1229 Al
Si7 1 0 0.4569(14) 0.0082(6) Uani d 0.2809 Si
Al7 1 0 0.4569(14) 0.0082(6) Uani d 0.1229 Al
N1 0.8541(3) 0.1459(3) 0.4566(10) 0.0146(8) Uani d 0.7681 N
O1 0.8541(3) 0.1459(3) 0.4566(10) 0.0146(8) Uani d 0.2319 O
N2 0.6064(3) 0.9219(3) 0.4552(7) 0.0100(5) Uani d 0.7681 N
O2 0.6064(3) 0.9219(3) 0.4552(7) 0.0100(5) Uani d 0.2319 O
N3 0.8378(4) 0.9189(2) 0.2965(14) 0.0135(8) Uani d 0.7681 N
O3 0.8378(4) 0.9189(2) 0.2965(14) 0.0135(8) Uani d 0.2319 O
N4 0.3333 0.6667 0.3956(15) 0.0120(14) Uani d 0.7681 N
O4 0.3333 0.6667 0.3956(15) 0.0120(14) Uani d 0.2318 O
N5 0.5370(5) 0.7685(2) 0.9431(11) 0.0104(8) Uani d 0.7681 N
O5 0.5370(5) 0.7685(2) 0.9431(11) 0.0104(8) Uani d 0.2319 O
N6 0.4813(2) 0.9625(4) 0.8779(7) 0.0082(7) Uani d 0.7681 N
O6 0.4813(2) 0.9625(4) 0.8779(7) 0.0082(7) Uani d 0.2319 O
N7 0.7279(3) 0.0367(3) 0.9655(6) 0.0138(6) Uani d 0.7681 N
O7 0.7279(3) 0.0367(3) 0.9655(6) 0.0138(6) Uani d 0.2319 O
N8 0.6667 0.3333 0.1609(19) 0.0218(18) Uani d 0.7681 N
O8 0.6667 0.3333 0.1609(19) 0.0218(18) Uani d 0.2318 O
N9 0.7404(3) 0.2596(3) 0.7103(12) 0.0185(9) Uani d 0.7681 N
O9 0.7404(3) 0.2596(3) 0.7103(12) 0.0185(9) Uani d 0.2319 O
N10 1 0 0.8037(8) 0.0721(9) Uani d 0.3102 N
O10 1 0 0.8037(8) 0.0721(9) Uani d 0.0937 O
loop_
_atom_site_aniso_label
_atom_site_aniso_U_11
_atom_site_aniso_U_22
_atom_site_aniso_U_33
_atom_site_aniso_U_12
_atom_site_aniso_U_13
_atom_site_aniso_U_23
Eu1 0.01190(8) 0.01327(10) 0.02897(12) 0.00663(5) -0.00037(8) -0.00073(16)
Eu2 0.0205(14) 0.0205(14) 0.050(4) 0.0103(7) 0 0
Eu3 0.0896(14) 0.0896(14) 0.0371(12) 0.0448(7) 0 0
Li1 0.010(3) 0.010(3) 0.012(7) 0.0050(17) 0 0
Si1 0.0046(3) 0.0050(3) 0.0038(3) 0.0020(2) 0.0006(4) 0.0004(5)
Al1 0.0046(3) 0.0050(3) 0.0038(3) 0.0020(2) 0.0006(4) 0.0004(5)
Si2 0.0077(5) 0.0081(3) 0.0086(6) 0.0038(2) -0.0006(9) -0.0003(4)
Al2 0.0077(5) 0.0081(3) 0.0086(6) 0.0038(2) -0.0006(9) -0.0003(4)
Si3 0.0042(3) 0.0045(3) 0.0040(4) 0.0016(3) -0.0001(4) -0.0002(4)
Al3 0.0042(3) 0.0045(3) 0.0040(4) 0.0016(3) -0.0001(4) -0.0002(4)
Si4 0.0054(3) 0.0054(3) 0.0054(6) 0.0023(4) 0.0005(2) -0.0005(2)
Al4 0.0054(3) 0.0054(3) 0.0054(6) 0.0023(4) 0.0005(2) -0.0005(2)
Si5 0.0097(5) 0.0097(5) 0.0196(11) 0.0048(3) 0 0
Al5 0.0097(5) 0.0097(5) 0.0196(11) 0.0048(3) 0 0
Si6 0.0086(9) 0.0086(9) 0.0075(16) 0.0043(4) 0 0
Al6 0.0086(9) 0.0086(9) 0.0075(16) 0.0043(4) 0 0
Si7 0.0086(9) 0.0086(9) 0.0075(16) 0.0043(4) 0 0
Al7 0.0086(9) 0.0086(9) 0.0075(16) 0.0043(4) 0 0
N1 0.0090(12) 0.0090(12) 0.014(2) -0.0044(14) 0.0028(9) -0.0028(9)
O1 0.0090(12) 0.0090(12) 0.014(2) -0.0044(14) 0.0028(9) -0.0028(9)
N2 0.0095(12) 0.0104(12) 0.0087(12) 0.0040(10) 0.0000(10) -0.0004(9)
O2 0.0095(12) 0.0104(12) 0.0087(12) 0.0040(10) 0.0000(10) -0.0004(9)
N3 0.0123(15) 0.0096(10) 0.019(2) 0.0062(8) 0.000(2) 0.0000(10)
O3 0.0123(15) 0.0096(10) 0.019(2) 0.0062(8) 0.000(2) 0.0000(10)
N4 0.014(2) 0.014(2) 0.009(3) 0.0068(10) 0 0
O4 0.014(2) 0.014(2) 0.009(3) 0.0068(10) 0 0
N5 0.012(2) 0.0107(13) 0.009(2) 0.0058(10) 0.0004(15) 0.0002(7)
O5 0.012(2) 0.0107(13) 0.009(2) 0.0058(10) 0.0004(15) 0.0002(7)
N6 0.0066(10) 0.0110(15) 0.0085(17) 0.0055(8) -0.0015(5) -0.0030(11)
O6 0.0066(10) 0.0110(15) 0.0085(17) 0.0055(8) -0.0015(5) -0.0030(11)
N7 0.0132(14) 0.0123(13) 0.0072(13) 0.0000(11) -0.0034(10) 0.0014(9)
O7 0.0132(14) 0.0123(13) 0.0072(13) 0.0000(11) -0.0034(10) 0.0014(9)
N8 0.027(3) 0.027(3) 0.011(4) 0.0136(15) 0 0
O8 0.027(3) 0.027(3) 0.011(4) 0.0136(15) 0 0
N9 0.0140(16) 0.0140(16) 0.031(3) 0.0093(18) -0.0012(9) 0.0012(9)
O9 0.0140(16) 0.0140(16) 0.031(3) 0.0093(18) -0.0012(9) 0.0012(9)
N10 0.0896(14) 0.0896(14) 0.0371(12) 0.0448(7) 0 0
O10 0.0896(14) 0.0896(14) 0.0371(12) 0.0448(7) 0 0
loop_
_atom_type_symbol
_atom_type_description
_atom_type_scat_dispersion_real
_atom_type_scat_dispersion_imag
_atom_type_scat_source
N N 0.0061 0.0033 'International Tables Vol C Tables 4.2.6.8 and 6.1.1.4'
Si Si 0.0817 0.0704 'International Tables Vol C Tables 4.2.6.8 and 6.1.1.4'
Eu Eu -0.1578 3.6682 'International Tables Vol C Tables 4.2.6.8 and 6.1.1.4'
Li Li -0.0003 0.0001 'International Tables Vol C Tables 4.2.6.8 and 6.1.1.4'
O O 0.0106 0.006 'International Tables Vol C Tables 4.2.6.8 and 6.1.1.4'
Al Al 0.0645 0.0514 'International Tables Vol C Tables 4.2.6.8 and 6.1.1.4'
Ce Ce -0.2486 2.6331 'International Tables Vol C Tables 4.2.6.8 and 6.1.1.4'
loop_
_geom_angle_atom_site_label_1
_geom_angle_atom_site_label_2
_geom_angle_atom_site_label_3
_geom_angle
_geom_angle_site_symmetry_1
_geom_angle_site_symmetry_3
N8 Eu1 O6 106.3(2) . 1_544
N8 Eu1 N6 106.3(2) . 1_544
O6 Eu1 N6 0.0(2) 1_544 1_544
N8 Eu1 O2 139.39(7) . 4_545
O6 Eu1 O2 77.32(10) 1_544 4_545
N6 Eu1 O2 77.32(10) 1_544 4_545
N8 Eu1 N2 139.39(7) . 4_545
O6 Eu1 N2 77.32(10) 1_544 4_545
N6 Eu1 N2 77.32(10) 1_544 4_545
O2 Eu1 N2 0.0(2) 4_545 4_545
N8 Eu1 O2 139.39(7) . 1_545
O6 Eu1 O2 77.32(10) 1_544 1_545
N6 Eu1 O2 77.32(10) 1_544 1_545
O2 Eu1 O2 81.22(14) 4_545 1_545
N2 Eu1 O2 81.22(14) 4_545 1_545
N8 Eu1 N2 139.39(7) . 1_545
O6 Eu1 N2 77.32(10) 1_544 1_545
N6 Eu1 N2 77.32(10) 1_544 1_545
O2 Eu1 N2 81.22(14) 4_545 1_545
N2 Eu1 N2 81.22(14) 4_545 1_545
O2 Eu1 N2 0.00(5) 1_545 1_545
N8 Eu1 O9 71.3(2) . 3_665
O6 Eu1 O9 151.08(11) 1_544 3_665
N6 Eu1 O9 151.08(11) 1_544 3_665
O2 Eu1 O9 86.47(12) 4_545 3_665
N2 Eu1 O9 86.47(12) 4_545 3_665
O2 Eu1 O9 124.03(12) 1_545 3_665
N2 Eu1 O9 124.03(12) 1_545 3_665
N8 Eu1 N9 71.3(2) . 3_665
O6 Eu1 N9 151.08(11) 1_544 3_665
N6 Eu1 N9 151.08(11) 1_544 3_665
O2 Eu1 N9 86.47(12) 4_545 3_665
N2 Eu1 N9 86.47(12) 4_545 3_665
O2 Eu1 N9 124.03(12) 1_545 3_665
N2 Eu1 N9 124.03(12) 1_545 3_665
O9 Eu1 N9 0.0(3) 3_665 3_665
N8 Eu1 N9 71.3(2) . .
O6 Eu1 N9 151.08(11) 1_544 .
N6 Eu1 N9 151.08(11) 1_544 .
O2 Eu1 N9 124.03(12) 4_545 .
N2 Eu1 N9 124.03(12) 4_545 .
O2 Eu1 N9 86.47(12) 1_545 .
N2 Eu1 N9 86.47(12) 1_545 .
O9 Eu1 N9 57.0(2) 3_665 .
N9 Eu1 N9 57.0(2) 3_665 .
O3 Eu2 N3 0.00(18) 2_755 2_755
O3 Eu2 O3 71.6(3) 2_755 1_545
N3 Eu2 O3 71.6(3) 2_755 1_545
O3 Eu2 N3 71.6(3) 2_755 1_545
N3 Eu2 N3 71.6(3) 2_755 1_545
O3 Eu2 N3 0.0(3) 1_545 1_545
O3 Eu2 O3 71.6(3) 2_755 3_665
N3 Eu2 O3 71.6(3) 2_755 3_665
O3 Eu2 O3 71.6(3) 1_545 3_665
N3 Eu2 O3 71.6(3) 1_545 3_665
O3 Eu3 N3 0.00(8) 2_756 2_756
O3 Eu3 O3 59.9(2) 2_756 3_666
N3 Eu3 O3 59.9(2) 2_756 3_666
O3 Eu3 N3 59.9(2) 2_756 3_666
N3 Eu3 N3 59.9(2) 2_756 3_666
O3 Eu3 N3 0.00(19) 3_666 3_666
O3 Eu3 O3 59.9(2) 2_756 1_546
N3 Eu3 O3 59.9(2) 2_756 1_546
O3 Eu3 O3 59.9(2) 3_666 1_546
N3 Eu3 O3 59.9(2) 3_666 1_546
O3 Eu3 N3 59.9(2) 2_756 1_546
N3 Eu3 N3 59.9(2) 2_756 1_546
O3 Eu3 N3 59.9(2) 3_666 1_546
N3 Eu3 N3 59.9(2) 3_666 1_546
O3 Eu3 N3 0.0(3) 1_546 1_546
O3 Eu3 O3 110.33(14) 2_756 2_755
N3 Eu3 O3 110.33(14) 2_756 2_755
O3 Eu3 O3 146.80(6) 3_666 2_755
N3 Eu3 O3 146.80(6) 3_666 2_755
O3 Eu3 O3 146.80(6) 1_546 2_755
N3 Eu3 O3 146.80(6) 1_546 2_755
N4 Li1 O5 103.7(8) . 2_665
N4 Li1 N5 103.7(8) . 2_665
O5 Li1 N5 0.00(8) 2_665 2_665
N4 Li1 N5 103.7(8) . .
O5 Li1 N5 114.5(6) 2_665 .
N5 Li1 N5 114.5(6) 2_665 .
N4 Li1 O5 103.7(8) . 3_565
O5 Li1 O5 114.5(6) 2_665 3_565
N5 Li1 O5 114.5(6) 2_665 3_565
N5 Li1 O5 114.5(6) . 3_565
N4 Li1 N5 103.7(8) . 3_565
O5 Li1 N5 114.5(6) 2_665 3_565
N5 Li1 N5 114.5(6) 2_665 3_565
N5 Li1 N5 114.5(6) . 3_565
O5 Li1 N5 0.00(14) 3_565 3_565
N6 Si1 N2 107.86(17) . .
N6 Si1 O7 104.19(19) . 1_565
N2 Si1 O7 111.58(16) . 1_565
N6 Si1 N7 104.19(19) . 1_565
N2 Si1 N7 111.58(16) . 1_565
O7 Si1 N7 0.0(3) 1_565 1_565
N6 Si1 N5 108.7(2) . .
N2 Si1 N5 111.7(2) . .
O7 Si1 N5 112.5(2) 1_565 .
N7 Si1 N5 112.5(2) 1_565 .
N4 Si2 O5 111.3(3) . 1_554
N4 Si2 N5 111.3(3) . 1_554
O5 Si2 N5 0.00(18) 1_554 1_554
N4 Si2 N2 117.84(16) . .
O5 Si2 N2 104.74(16) 1_554 .
N5 Si2 N2 104.74(16) 1_554 .
N4 Si2 O2 117.84(16) . 5_565
O5 Si2 O2 104.74(16) 1_554 5_565
N5 Si2 O2 104.74(16) 1_554 5_565
N2 Si2 O2 98.6(2) . 5_565
N4 Si2 N2 117.84(16) . 5_565
O5 Si2 N2 104.74(16) 1_554 5_565
N5 Si2 N2 104.74(16) 1_554 5_565
N2 Si2 N2 98.6(2) . 5_565
O2 Si2 N2 0.0(2) 5_565 5_565
N1 Si3 O3 106.5(3) . 1_545
N1 Si3 N3 106.5(3) . 1_545
O3 Si3 N3 0.0(5) 1_545 1_545
N1 Si3 O2 111.17(18) . 1_545
O3 Si3 O2 114.4(2) 1_545 1_545
N3 Si3 O2 114.4(2) 1_545 1_545
N1 Si3 N2 111.17(18) . 1_545
O3 Si3 N2 114.4(2) 1_545 1_545
N3 Si3 N2 114.4(2) 1_545 1_545
O2 Si3 N2 0.0(3) 1_545 1_545
N1 Si3 O7 107.1(2) . 1_554
O3 Si3 O7 111.9(3) 1_545 1_554
N3 Si3 O7 111.9(3) 1_545 1_554
O2 Si3 O7 105.62(17) 1_545 1_554
N2 Si3 O7 105.62(17) 1_545 1_554
N1 Si3 N7 107.1(2) . 1_554
O3 Si3 N7 111.9(3) 1_545 1_554
N3 Si3 N7 111.9(3) 1_545 1_554
O2 Si3 N7 105.62(17) 1_545 1_554
N2 Si3 N7 105.62(17) 1_545 1_554
O7 Si3 N7 0.0(3) 1_554 1_554
N9 Si4 N7 114.13(16) . .
N9 Si4 O7 114.13(16) . 6_665
N7 Si4 O7 108.7(2) . 6_665
N9 Si4 N7 114.13(16) . 6_665
N7 Si4 N7 108.7(2) . 6_665
O7 Si4 N7 0.0(3) 6_665 6_665
N9 Si4 N1 101.1(3) . .
N7 Si4 N1 109.21(16) . .
O7 Si4 N1 109.21(16) 6_665 .
N7 Si4 N1 109.21(16) 6_665 .
O8 Si5 N8 0.000(3) 1_556 1_556
O8 Si5 O9 110.0(3) 1_556 3_665
N8 Si5 O9 110.0(3) 1_556 3_665
O8 Si5 N9 110.0(3) 1_556 3_665
N8 Si5 N9 110.0(3) 1_556 3_665
O9 Si5 N9 0.0(5) 3_665 3_665
O8 Si5 O9 110.0(3) 1_556 2_655
N8 Si5 O9 110.0(3) 1_556 2_655
O9 Si5 O9 108.9(3) 3_665 2_655
N9 Si5 O9 108.9(3) 3_665 2_655
O8 Si5 N9 110.0(3) 1_556 2_655
N8 Si5 N9 110.0(3) 1_556 2_655
O9 Si5 N9 108.9(3) 3_665 2_655
N9 Si5 N9 108.9(3) 3_665 2_655
O9 Si5 N9 0.0(5) 2_655 2_655
O8 Si5 N9 110.0(3) 1_556 .
N8 Si5 N9 110.0(3) 1_556 .
O9 Si5 N9 108.9(3) 3_665 .
N9 Si5 N9 108.9(3) 3_665 .
O9 Si5 N9 108.9(3) 2_655 .
N9 Si5 N9 108.9(3) 2_655 .
O10 Si6 N10 0 1_554 1_554
O10 Si6 O3 113.5(3) 1_554 2_755
N10 Si6 O3 113.5(3) 1_554 2_755
O10 Si6 N3 113.5(3) 1_554 2_755
N10 Si6 N3 113.5(3) 1_554 2_755
O3 Si6 N3 0.00(19) 2_755 2_755
O10 Si6 O3 113.5(3) 1_554 3_665
N10 Si6 O3 113.5(3) 1_554 3_665
O3 Si6 O3 105.1(3) 2_755 3_665
N3 Si6 O3 105.1(3) 2_755 3_665
O10 Si6 N3 113.5(3) 1_554 3_665
N10 Si6 N3 113.5(3) 1_554 3_665
O3 Si6 N3 105.1(3) 2_755 3_665
N3 Si6 N3 105.1(3) 2_755 3_665
O3 Si6 N3 0.0(4) 3_665 3_665
O10 Si6 N3 113.5(3) 1_554 1_545
N10 Si6 N3 113.5(3) 1_554 1_545
O3 Si6 N3 105.1(3) 2_755 1_545
N3 Si6 N3 105.1(3) 2_755 1_545
O3 Si6 N3 105.1(3) 3_665 1_545
N3 Si6 N3 105.1(3) 3_665 1_545
O10 Si6 O3 113.5(3) 1_554 1_545
N10 Si6 O3 113.5(3) 1_554 1_545
O3 Si6 O3 105.1(3) 2_755 1_545
N3 Si6 O3 105.1(3) 2_755 1_545
O3 Si6 O3 105.1(3) 3_665 1_545
N3 Si6 O3 105.1(3) 3_665 1_545
N3 Si6 O3 0.0(3) 1_545 1_545
O3 Si7 N3 0.00(19) 2_755 2_755
O3 Si7 O3 103.7(3) 2_755 1_545
N3 Si7 O3 103.7(3) 2_755 1_545
O3 Si7 N3 103.7(3) 2_755 1_545
N3 Si7 N3 103.7(3) 2_755 1_545
O3 Si7 N3 0.0(3) 1_545 1_545
O3 Si7 O3 103.7(3) 2_755 3_665
N3 Si7 O3 103.7(3) 2_755 3_665
O3 Si7 O3 103.7(3) 1_545 3_665
N3 Si7 O3 103.7(3) 1_545 3_665
O3 Si7 N3 103.7(3) 2_755 3_665
N3 Si7 N3 103.7(3) 2_755 3_665
O3 Si7 N3 103.7(3) 1_545 3_665
N3 Si7 N3 103.7(3) 1_545 3_665
O3 Si7 N3 0.0(4) 3_665 3_665
loop_
_geom_bond_atom_site_label_1
_geom_bond_atom_site_label_2
_geom_bond_site_symmetry_2
_geom_bond_distance
Eu1 N8 . 2.497(3)
Eu1 O6 1_544 2.665(4)
Eu1 N6 1_544 2.665(4)
Eu1 O2 4_545 2.709(3)
Eu1 N2 4_545 2.709(3)
Eu1 O2 1_545 2.709(3)
Eu1 N2 1_545 2.709(3)
Eu1 O9 3_665 2.811(4)
Eu1 N9 3_665 2.811(4)
Eu1 N9 . 2.811(4)
Eu2 Eu3 . 0.622(8)
Eu2 Si7 . 1.075(11)
Eu2 Al6 1_556 2.292(11)
Eu2 Si6 1_556 2.292(11)
Eu2 O3 2_755 2.521(8)
Eu2 N3 2_755 2.521(8)
Eu2 O3 1_545 2.521(9)
Eu2 N3 1_545 2.521(9)
Eu2 O3 3_665 2.521(9)
Eu3 Al6 1_556 1.670(8)
Eu3 Si6 1_556 1.670(8)
Eu3 Si7 . 1.697(8)
Eu3 O3 2_756 2.952(7)
Eu3 N3 2_756 2.952(7)
Eu3 O3 3_666 2.952(7)
Eu3 N3 3_666 2.952(7)
Eu3 O3 1_546 2.952(7)
Eu3 N3 1_546 2.952(7)
Eu3 O3 2_755 3.009(7)
Li1 N4 . 2.16(3)
Li1 O5 2_665 2.201(9)
Li1 N5 2_665 2.201(9)
Li1 N5 . 2.201(9)
Li1 O5 3_565 2.201(9)
Li1 N5 3_565 2.201(9)
Li1 Al2 2_666 2.98(2)
Li1 Si2 2_666 2.98(2)
Li1 Al2 1_556 2.98(2)
Li1 Si2 1_556 2.98(2)
Si1 N6 . 1.6657(17)
Si1 N2 . 1.738(3)
Si1 O7 1_565 1.744(3)
Si1 N7 1_565 1.744(3)
Si1 N5 . 1.745(3)
Si1 Eu1 1_565 3.4590(12)
Si1 Eu1 1_566 3.5685(12)
Si2 N4 . 1.863(2)
Si2 O5 1_554 1.864(6)
Si2 N5 1_554 1.864(6)
Si2 N2 . 1.898(3)
Si2 O2 5_565 1.898(3)
Si2 N2 5_565 1.898(3)
Si2 Li1 1_554 2.98(2)
Si3 N1 . 1.728(3)
Si3 O3 1_545 1.732(2)
Si3 N3 1_545 1.732(2)
Si3 O2 1_545 1.751(3)
Si3 N2 1_545 1.751(3)
Si3 O7 1_554 1.754(3)
Si3 N7 1_554 1.754(3)
Si4 N9 . 1.711(6)
Si4 N7 . 1.756(3)
Si4 O7 6_665 1.756(3)
Si4 N7 6_665 1.756(3)
Si4 N1 . 1.771(5)
Si5 O8 1_556 1.640(12)
Si5 N8 1_556 1.640(12)
Si5 O9 3_665 1.649(6)
Si5 N9 3_665 1.649(6)
Si5 O9 2_655 1.649(6)
Si5 N9 2_655 1.649(6)
Si5 N9 . 1.649(6)
Si5 Eu1 2_656 3.398(4)
Si5 Eu1 1_556 3.398(4)
Si5 Eu1 3_666 3.398(4)
Si5 Eu1 2_655 3.408(4)
Si6 Si7 . 1.527(8)
Si6 O10 1_554 1.670(8)
Si6 N10 1_554 1.670(8)
Si6 Eu3 1_554 1.670(8)
Si6 O3 2_755 1.857(6)
Si6 N3 2_755 1.857(6)
Si6 O3 3_665 1.857(6)
Si6 N3 3_665 1.857(6)
Si6 N3 1_545 1.857(6)
Si6 O3 1_545 1.857(6)
Si6 Eu2 1_554 2.292(11)
Si7 O3 2_755 1.875(6)
Si7 N3 2_755 1.875(6)
Si7 O3 1_545 1.875(6)
Si7 N3 1_545 1.875(6)
Si7 O3 3_665 1.875(6)
Si7 N3 3_665 1.875(6)
N1 Al3 6_665 1.728(3)
N1 Si3 6_665 1.728(3)
N2 Al3 1_565 1.751(3)
N2 Si3 1_565 1.751(3)
N2 Eu1 1_565 2.709(3)
N3 Al3 1_565 1.732(2)
N3 Si3 1_565 1.732(2)
N3 Al3 5 1.732(2)
N3 Si3 5 1.732(2)
N3 Al6 1_565 1.857(6)
N3 Si6 1_565 1.857(6)
N3 Al7 1_565 1.875(6)
N3 Si7 1_565 1.875(6)
N3 Eu2 1_565 2.521(9)
N3 Eu3 1_564 2.952(7)
N3 Eu3 1_565 3.010(8)
N4 Al2 2_665 1.863(2)
N4 Si2 2_665 1.863(2)
N4 Al2 3_565 1.863(2)
N4 Si2 3_565 1.863(2)
N5 Al1 5_565 1.745(3)
N5 Si1 5_565 1.745(3)
N5 Al2 1_556 1.864(6)
N5 Si2 1_556 1.864(6)
N6 Al1 4 1.6657(17)
N6 Si1 4 1.6657(17)
N6 Eu1 1_566 2.665(4)
N6 Eu1 1_565 3.110(4)
N7 Al1 1_545 1.744(3)
N7 Si1 1_545 1.744(3)
N7 Al3 1_556 1.754(3)
N7 Si3 1_556 1.754(3)
N7 Eu1 1_556 3.177(4)
N8 Al5 1_554 1.640(12)
N8 Si5 1_554 1.640(12)
N8 Eu1 2_655 2.497(3)
N8 Eu1 3_665 2.497(3)
N9 Eu1 2_655 2.811(4)
