#------------------------------------------------------------------------------
#$Date: 2019-10-28 11:18:21 +0200 (Mon, 28 Oct 2019) $
#$Revision: 220014 $
#$URL: file:///home/coder/svn-repositories/cod/cif/4/51/48/4514853.cif $
#------------------------------------------------------------------------------
#
# This file is available in the Crystallography Open Database (COD),
# http://www.crystallography.net/
#
# All data on this site have been placed in the public domain by the
# contributors.
#
data_4514853
loop_
_publ_author_name
'Romine, Andrew M.'
'Yang, Kin S.'
'Karunananda, Malkanthi K.'
'Chen, Jason S.'
'Engle, Keary M.'
_publ_section_title
;
 Synthetic and Mechanistic Studies of a Versatile Heteroaryl Thioether
 Directing Group for Pd(II) Catalysis
;
_journal_issue                   9
_journal_name_full               'ACS Catalysis'
_journal_page_first              7626
_journal_paper_doi               10.1021/acscatal.9b01471
_journal_volume                  9
_journal_year                    2019
_chemical_absolute_configuration ad
_chemical_formula_moiety         '2(C12 H16 O5)'
_chemical_formula_sum            'C24 H32 O10'
_chemical_formula_weight         480.49
_space_group_crystal_system      monoclinic
_space_group_IT_number           4
_space_group_name_Hall           'P 2yb'
_space_group_name_H-M_alt        'P 1 21 1'
_symmetry_space_group_name_Hall  'P 2yb'
_symmetry_space_group_name_H-M   'P 1 21 1'
_atom_sites_solution_hydrogens   geom
_atom_sites_solution_primary     dual
_audit_creation_date             2018-02-08
_audit_creation_method
;
Olex2 1.2-beta
(compiled 2017.08.10 svn.r3458 for OlexSys, GUI svn.r5381)
;
_cell_angle_alpha                90
_cell_angle_beta                 115.351(5)
_cell_angle_gamma                90
_cell_formula_units_Z            1
_cell_length_a                   11.200(2)
_cell_length_b                   5.0559(9)
_cell_length_c                   11.554(2)
_cell_measurement_reflns_used    3280
_cell_measurement_temperature    100
_cell_measurement_theta_max      24.563
_cell_measurement_theta_min      3.354
_cell_volume                     591.25(18)
_computing_cell_refinement       'SAINT V8.38A (?, 2016)'
_computing_data_collection       'APEX2 v2013.6-2 (Bruker, 2013)'
_computing_data_reduction        'SAINT V8.38A (?, 2016)'
_computing_molecular_graphics    'Olex2 (Dolomanov et al., 2009)'
_computing_publication_material  'Olex2 (Dolomanov et al., 2009)'
_computing_structure_refinement  'ShelXL (Sheldrick, 2015)'
_computing_structure_solution    'XT (Sheldrick, 2008)'
_diffrn_ambient_temperature      100.0
_diffrn_detector                 'Bruker APEX CCD'
_diffrn_detector_area_resol_mean 8.0
_diffrn_detector_type            'CCD Area Detector'
_diffrn_measured_fraction_theta_full 1.000
_diffrn_measured_fraction_theta_max 0.999
_diffrn_measurement_device       'Kappa Four-Circle Diffractometer'
_diffrn_measurement_device_type  'Bruker APEX-II CCD'
_diffrn_measurement_method       '\f and \w scans'
_diffrn_radiation_monochromator  graphite
_diffrn_radiation_probe          x-ray
_diffrn_radiation_type           MoK\a
_diffrn_radiation_wavelength     0.71073
_diffrn_reflns_av_R_equivalents  0.0543
_diffrn_reflns_av_unetI/netI     0.0479
_diffrn_reflns_Laue_measured_fraction_full 1.000
_diffrn_reflns_Laue_measured_fraction_max 0.999
_diffrn_reflns_limit_h_max       13
_diffrn_reflns_limit_h_min       -13
_diffrn_reflns_limit_k_max       6
_diffrn_reflns_limit_k_min       -6
_diffrn_reflns_limit_l_max       13
_diffrn_reflns_limit_l_min       -13
_diffrn_reflns_number            9807
_diffrn_reflns_point_group_measured_fraction_full 1.000
_diffrn_reflns_point_group_measured_fraction_max 0.997
_diffrn_reflns_theta_full        25.242
_diffrn_reflns_theta_max         25.351
_diffrn_reflns_theta_min         1.950
_diffrn_source                   'sealed tube'
_diffrn_source_type              fine-focus
_diffrn_standards_number         0
_exptl_absorpt_coefficient_mu    0.105
_exptl_absorpt_correction_T_max  0.7452
_exptl_absorpt_correction_T_min  0.5315
_exptl_absorpt_correction_type   multi-scan
_exptl_absorpt_process_details
'SADABS-2016/2 (Bruker,2016/2) was used for absorption correction. wR2(int) was 0.0890 before and 0.0597 after correction. The Ratio of minimum to maximum transmission is 0.7132. The \l/2 correction factor is Not present.'
_exptl_crystal_colour            colourless
_exptl_crystal_colour_primary    colourless
_exptl_crystal_density_diffrn    1.349
_exptl_crystal_description       plate
_exptl_crystal_F_000             256
_exptl_crystal_size_max          0.3
_exptl_crystal_size_mid          0.2
_exptl_crystal_size_min          0.08
_refine_diff_density_max         0.152
_refine_diff_density_min         -0.190
_refine_diff_density_rms         0.039
_refine_ls_abs_structure_details
;
 Flack x determined using 718 quotients [(I+)-(I-)]/[(I+)+(I-)]
 (Parsons, Flack and Wagner, Acta Cryst. B69 (2013) 249-259).
;
_refine_ls_abs_structure_Flack   -0.2(7)
_refine_ls_extinction_method     none
_refine_ls_goodness_of_fit_ref   1.045
_refine_ls_hydrogen_treatment    constr
_refine_ls_matrix_type           full
_refine_ls_number_parameters     158
_refine_ls_number_reflns         2156
_refine_ls_number_restraints     1
_refine_ls_restrained_S_all      1.045
_refine_ls_R_factor_all          0.0439
_refine_ls_R_factor_gt           0.0340
_refine_ls_shift/su_max          0.000
_refine_ls_shift/su_mean         0.000
_refine_ls_structure_factor_coef Fsqd
_refine_ls_weighting_details
'w=1/[\s^2^(Fo^2^)+(0.0358P)^2^+0.0033P] where P=(Fo^2^+2Fc^2^)/3'
_refine_ls_weighting_scheme      calc
_refine_ls_wR_factor_gt          0.0733
_refine_ls_wR_factor_ref         0.0772
_reflns_Friedel_coverage         0.777
_reflns_Friedel_fraction_full    1.000
_reflns_Friedel_fraction_max     0.995
_reflns_number_gt                1858
_reflns_number_total             2156
_reflns_threshold_expression     'I > 2\s(I)'
_cod_data_source_file            cs9b01471_si_011.cif
_cod_data_source_block           engle79_a
_cod_depositor_comments
;
The following automatic conversions were performed:

'_diffrn_radiation_probe' value 'X-ray' changed to 'x-ray' according
to
/home/data/users/saulius/crontab/automatic-downloads/current/ACS/lib/dictionaries/cif_core.dic
dictionary named 'cif_core.dic' version 2.4.2 from 2011-04-26.

Automatic conversion script
Id: cif_fix_values 4973 2017-02-22 13:04:09Z antanas 
;
_cod_original_cell_volume        591.26(19)
_cod_database_code               4514853
_shelx_shelxl_version_number     2016/6
_shelx_space_group_comment
;
The symmetry employed for this shelxl refinement is uniquely defined
by the following loop, which should always be used as a source of
symmetry information in preference to the above space-group names.
They are only intended as comments.
;
_shelx_estimated_absorpt_t_max   0.992
_shelx_estimated_absorpt_t_min   0.969
_olex2_refinement_description
;
1. Fixed Uiso
 At 1.2 times of:
  All C(H) groups, All C(H,H) groups
 At 1.5 times of:
  All C(H,H,H) groups, All O(H) groups
2.a Ternary CH refined with riding coordinates:
 C3(H3A)
2.b Secondary CH2 refined with riding coordinates:
 C4(H4A,H4B)
2.c Aromatic/amide H refined with riding coordinates:
 C6(H6), C9(H9), C10(H10)
2.d Idealised Me refined as rotating group:
 C1(H1A,H1B,H1C), C11(H11A,H11B,H11C), C12(H12A,H12B,H12C)
2.e Idealised tetrahedral OH refined as rotating group:
 O3(H3)
;
_shelx_res_file
;
TITL engle79_a.res in P2(1)
    engle79_a.res
    created by SHELXL-2016/6 at 10:32:25 on 08-Feb-2018
REM Old TITL engle79 in P2(1)
REM SHELXT solution in P2(1)
REM R1 0.102, Rweak 0.018, Alpha 0.002, Orientation as input
REM Flack x = 0.074 ( 1.317 ) from Parsons' quotients
REM Formula found by SHELXT: C12 O5
CELL 0.71073 11.2003 5.0559 11.5539 90 115.351 90
ZERR 1 0.0022 0.0009 0.0022 0 0.005 0
LATT -1
SYMM -X,0.5+Y,-Z
SFAC C H O
UNIT 24 32 10

L.S. 10
PLAN  20
SIZE 0.08 0.2 0.3
TEMP -173.15
BOND $H
LIST 6
fmap 2
ACTA
REM <olex2.extras>
REM <HklSrc "%.\\engle79_0m.hkl">
REM </olex2.extras>

WGHT    0.035800    0.003300
FVAR       0.39704
O1    3   -1.130569   -1.161410   -1.196167    11.00000    0.02301    0.02117 =
         0.02339   -0.00741    0.01442   -0.00578
O2    3   -1.111336   -1.474648   -1.365668    11.00000    0.02422    0.02672 =
         0.02406   -0.00467    0.01708   -0.00246
O3    3   -1.439486   -1.662909   -1.044998    11.00000    0.02088    0.02063 =
         0.01331    0.00139    0.00438   -0.00094
AFIX 147
H3    2   -1.397407   -1.794406   -1.002720    11.00000   -1.50000
AFIX   0
O4    3   -1.701889   -1.612057   -1.079201    11.00000    0.02725    0.01929 =
         0.01999   -0.00193    0.01455   -0.00077
O5    3   -1.745785   -1.971148   -1.205233    11.00000    0.01787    0.02229 =
         0.01718   -0.00260    0.01034   -0.00583
C1    1   -1.864775   -2.013661   -1.185561    11.00000    0.01969    0.02930 =
         0.02514    0.00052    0.01234   -0.00441
AFIX 137
H1A   2   -1.839778   -2.068960   -1.096896    11.00000   -1.50000
H1B   2   -1.918870   -2.151708   -1.244061    11.00000   -1.50000
H1C   2   -1.915512   -1.848839   -1.202526    11.00000   -1.50000
AFIX   0
C2    1   -1.670199   -1.767866   -1.140835    11.00000    0.01897    0.01536 =
         0.01333    0.00430    0.00793    0.00099
C3    1   -1.544889   -1.749960   -1.159400    11.00000    0.01794    0.01394 =
         0.01444   -0.00370    0.00724   -0.00164
AFIX  13
H3A   2   -1.523408   -1.926768   -1.184407    11.00000   -1.20000
AFIX   0
C4    1   -1.564576   -1.546619   -1.264667    11.00000    0.01816    0.01849 =
         0.01532    0.00150    0.00741   -0.00227
AFIX  23
H4A   2   -1.642803   -1.596885   -1.343630    11.00000   -1.20000
H4B   2   -1.582008   -1.370960   -1.237257    11.00000   -1.20000
AFIX   0
C5    1   -1.445287   -1.527879   -1.293742    11.00000    0.01972    0.01556 =
         0.01198    0.00331    0.00764    0.00144
C6    1   -1.344444   -1.345906   -1.229404    11.00000    0.02075    0.01465 =
         0.01323    0.00219    0.00966    0.00264
AFIX  43
H6    2   -1.351530   -1.230681   -1.167694    11.00000   -1.20000
AFIX   0
C7    1   -1.234609   -1.331813   -1.254585    11.00000    0.01937    0.01605 =
         0.01474    0.00177    0.00780   -0.00129
C8    1   -1.224283   -1.501608   -1.346864    11.00000    0.01980    0.01952 =
         0.01468    0.00455    0.00996    0.00297
C9    1   -1.323463   -1.681171   -1.409442    11.00000    0.02476    0.01981 =
         0.01332    0.00018    0.01039    0.00223
AFIX  43
H9    2   -1.316645   -1.797448   -1.470924    11.00000   -1.20000
AFIX   0
C10   1   -1.434035   -1.693877   -1.383319    11.00000    0.02050    0.01758 =
         0.01465    0.00088    0.00625   -0.00167
AFIX  43
H10   2   -1.502119   -1.817912   -1.427614    11.00000   -1.20000
AFIX   0
C11   1   -1.139583   -0.985097   -1.103292    11.00000    0.02603    0.02000 =
         0.01917   -0.00567    0.01130   -0.00443
AFIX 137
H11A  2   -1.142570   -1.087731   -1.032626    11.00000   -1.50000
H11B  2   -1.220064   -0.878459   -1.143468    11.00000   -1.50000
H11C  2   -1.062285   -0.868395   -1.070199    11.00000   -1.50000
AFIX   0
C12   1   -1.098522   -1.650741   -1.455613    11.00000    0.03172    0.03039 =
         0.02117   -0.00192    0.01914    0.00265
AFIX 137
H12A  2   -1.105261   -1.833598   -1.430899    11.00000   -1.50000
H12B  2   -1.012460   -1.624087   -1.456960    11.00000   -1.50000
H12C  2   -1.169013   -1.615931   -1.540987    11.00000   -1.50000
AFIX   0
HKLF 4




REM  engle79_a.res in P2(1)
REM R1 =  0.0340 for    1858 Fo > 4sig(Fo)  and  0.0439 for all    2156 data
REM    158 parameters refined using      1 restraints

END

WGHT      0.0356      0.0033

REM Highest difference peak  0.152,  deepest hole -0.190,  1-sigma level  0.039
Q1    1  -1.4173 -1.6671 -1.3033  11.00000  0.05    0.15
Q2    1  -1.0338 -0.9573 -1.0809  11.00000  0.05    0.14
Q3    1  -1.2889 -1.5285 -1.4038  11.00000  0.05    0.13
Q4    1  -1.5068 -1.8771 -1.5559  11.00000  0.05    0.12
Q5    1  -1.7782 -1.4854 -1.1196  11.00000  0.05    0.12
Q6    1  -1.3775 -1.4963 -1.2286  11.00000  0.05    0.11
Q7    1  -1.2581 -1.6585 -1.3367  11.00000  0.05    0.11
Q8    1  -1.5833 -2.0144 -1.4223  11.00000  0.05    0.11
Q9    1  -1.0557 -1.2816 -1.1661  11.00000  0.05    0.11
Q10   1  -1.3158 -1.1726 -1.4208  11.00000  0.05    0.11
Q11   1  -1.4854 -1.9428 -0.9808  11.00000  0.05    0.11
Q12   1  -1.2364 -1.8461 -1.2924  11.00000  0.05    0.11
Q13   1  -1.4472 -1.4481 -1.0537  11.00000  0.05    0.11
Q14   1  -1.5053 -1.1559 -1.2521  11.00000  0.05    0.11
Q15   1  -1.4718 -1.5311 -1.3844  11.00000  0.05    0.11
Q16   1  -1.4773 -1.5369 -1.2573  11.00000  0.05    0.11
Q17   1  -1.0883 -1.4744 -1.6033  11.00000  0.05    0.11
Q18   1  -1.9952 -1.7994 -1.1611  11.00000  0.05    0.11
Q19   1  -1.2408 -1.3553 -1.3272  11.00000  0.05    0.11
Q20   1  -1.6146 -1.9954 -1.3623  11.00000  0.05    0.11
;
_shelx_res_checksum              2156
_shelx_hkl_file
;
  -1   0   0  113.80    6.30
  -1   0   0  110.79    6.27
  -1   0   0  108.76    6.32
  -1   0   0  105.97    6.33
   1   0   0   98.40    6.31
   1   0   0  120.99    6.34
  -2   0   0   29.32    1.97
  -2   0   0   31.00    2.02
  -2   0   0   29.31    1.85
  -2   0   0   32.83    1.92
   2   0   0   30.32    1.96
   2   0   0   30.34    1.95
   2   0   0   31.24    1.97
   2   0   0   35.55    1.99
   2   0   0   31.64    1.91
  -3   0   0   96.18    5.85
  -3   0   0   92.83    5.68
  -3   0   0   98.22    5.77
  -3   0   0  100.09    5.92
  -3   0   0  101.64    5.85
   3   0   0   98.21    5.84
   3   0   0   94.92    5.80
   3   0   0  101.52    5.81
   3   0   0   94.30    5.75
   3   0   0  108.19    5.88
  -4   0   0   67.50    3.99
  -4   0   0   67.00    4.10
  -4   0   0   68.88    4.10
  -4   0   0   67.57    3.87
  -4   0   0   59.91    4.15
   4   0   0   66.64    4.03
   4   0   0   64.30    3.96
   4   0   0   61.18    4.00
   4   0   0   69.75    4.12
   4   0   0   64.39    4.07
  -5   0   0  116.21    6.86
  -5   0   0  110.39    6.85
  -5   0   0  115.98    6.57
  -5   0   0  112.62    6.74
  -5   0   0  103.92    6.93
   5   0   0  110.39    6.69
   5   0   0  126.33    6.91
   5   0   0  111.57    6.76
   5   0   0  111.19    6.77
   5   0   0  113.39    6.84
  -6   0   0   27.93    2.25
  -6   0   0   25.43    2.35
  -6   0   0   31.56    1.91
  -6   0   0   31.81    2.32
   6   0   0   29.78    2.24
   6   0   0   28.45    2.04
   6   0   0   32.21    2.17
  -7   0   0   70.29    5.17
  -7   0   0   77.78    5.07
   7   0   0   81.26    5.07
   7   0   0   79.37    4.84
   7   0   0   82.06    4.93
  -8   0   0    0.25    0.92
  -8   0   0    0.88    0.91
   8   0   0    1.03    0.66
   8   0   0    1.17    0.60
  -9   0   0  142.76    8.70
  -9   0   0  121.58    8.74
   9   0   0  136.16    8.60
   9   0   0  148.62    8.42
 -10   0   0   23.93    2.85
  10   0   0   26.68    2.54
  10   0   0   31.72    2.36
 -11   0   0    3.54    1.44
  11   0   0    4.11    1.02
  11   0   0    2.06    1.06
 -12   0   0   -0.53    1.33
  12   0   0    1.53    0.94
  12  -1   0    5.36    1.33
 -12   1   0    2.37    1.54
  11  -1   0    2.48    0.97
 -11   1   0    3.59    1.48
 -11   1   0    2.42    1.43
  10  -1   0    3.71    0.96
  10  -1   0    3.70    0.79
 -10   1   0    2.62    1.31
 -10   1   0    4.22    1.50
   9  -1   0   19.53    2.00
   9  -1   0   20.77    1.68
  -9   1   0   17.26    2.34
  -9   1   0   24.24    2.36
   8  -1   0   36.73    2.37
   8  -1   0   36.76    2.69
  -8   1   0   33.02    2.78
  -8   1   0   26.89    2.86
   7  -1   0   14.72    1.21
   7  -1   0   14.75    1.48
  -7   1   0   11.94    1.48
  -7   1   0   12.40    1.75
   6  -1   0    0.35    0.49
   6  -1   0    0.60    0.39
  -6   1   0    0.90    0.82
  -6   1   0    0.45    0.69
   5  -1   0   62.92    3.88
   5  -1   0   68.71    3.96
   5  -1   0   61.22    3.66
   5  -1   0   55.65    3.78
  -5   1   0   57.66    3.91
  -5   1   0   62.10    3.92
  -5   1   0   62.28    3.78
  -5   1   0   53.58    3.98
   4  -1   0   38.88    2.32
   4  -1   0   30.57    2.03
   4  -1   0   32.17    2.17
   4  -1   0   35.36    2.25
  -4   1   0   30.34    2.34
  -4   1   0   34.08    2.28
  -4   1   0   28.96    2.24
  -4   1   0   31.08    2.15
   3  -1   0   59.40    3.41
   3  -1   0   46.37    3.22
   3  -1   0   52.85    3.37
   3  -1   0   62.99    3.46
   3  -1   0   51.43    3.28
  -3   1   0   55.86    3.25
  -3   1   0   58.99    3.19
  -3   1   0   55.37    3.41
  -3   1   0   52.33    3.46
  -3   1   0   54.77    3.44
   2  -1   0    8.80    0.79
   2  -1   0    7.47    0.75
   2  -1   0    7.28    0.70
   2  -1   0    7.50    0.73
  -2   1   0    7.62    0.80
  -2   1   0    5.43    0.57
  -2   1   0    7.83    0.80
  -2   1   0    7.80    0.65
  -2   1   0    8.07    0.81
   1  -1   0  243.06   14.13
   1  -1   0  248.37   14.14
   1  -1   0  242.40   14.16
   1  -1   0  235.76   14.10
   1  -1   0  263.83   14.12
   1  -1   0  235.85   14.16
   1  -1   0  237.91   14.14
  -1   1   0  257.92   14.13
  -1   1   0  223.51   14.13
  -1   1   0  261.98   14.14
  -1   1   0  257.73   14.17
  -1   1   0  249.68   14.13
   0  -1   0   -0.03    0.34
   0  -1   0   -0.30    0.35
   0  -1   0    0.04    0.32
   0  -1   0   -0.31    0.32
   0   1   0   -0.33    0.29
   0   1   0   -0.16    0.32
   0   1   0   -0.20    0.27
   0   1   0    0.00    0.29
   0   1   0   -0.20    0.34
  -1  -1   0  241.23   13.86
  -1  -1   0  249.66   13.87
  -1  -1   0  243.98   13.89
   1   1   0  238.60   13.85
   1   1   0  239.29   13.87
   1   1   0  237.68   13.87
   1   1   0  240.33   13.88
  -2  -1   0    7.22    0.68
  -2  -1   0    8.05    0.75
  -2  -1   0    6.98    0.66
  -2  -1   0    8.05    0.79
  -2  -1   0    9.33    0.74
   2   1   0    9.00    0.72
   2   1   0    7.74    0.80
   2   1   0    7.04    0.71
   2   1   0    8.22    0.72
   2   1   0    6.32    0.68
  -3  -1   0   56.70    3.39
  -3  -1   0   55.31    3.44
  -3  -1   0   57.36    3.40
  -3  -1   0   58.50    3.47
   3   1   0   56.66    3.38
   3   1   0   53.64    3.44
   3   1   0   61.99    3.45
   3   1   0   54.87    3.41
   3   1   0   50.29    3.41
  -4  -1   0   33.52    2.15
  -4  -1   0   30.36    2.07
  -4  -1   0   32.97    2.26
  -4  -1   0   33.06    2.18
   4   1   0   29.94    2.17
   4   1   0   34.58    2.18
   4   1   0   29.41    2.12
   4   1   0   32.10    2.07
   4   1   0   32.31    2.08
  -5  -1   0   64.17    3.90
  -5  -1   0   64.20    3.92
  -5  -1   0   60.91    4.08
  -5  -1   0   65.05    3.98
   5   1   0   60.86    3.94
   5   1   0   62.12    3.88
   5   1   0   70.54    4.07
   5   1   0   59.77    4.00
  -6  -1   0    1.13    0.74
  -6  -1   0    0.50    0.57
  -6  -1   0    1.53    0.64
  -6  -1   0    0.79    0.55
   6   1   0    1.57    0.71
   6   1   0    0.28    0.39
   6   1   0    0.73    0.56
  -7  -1   0   17.79    1.54
  -7  -1   0   16.53    1.80
   7   1   0   16.57    1.42
   7   1   0   18.37    1.82
   7   1   0   16.52    1.66
  -8  -1   0   32.46    3.00
  -8  -1   0   40.09    2.69
   8   1   0   38.49    2.68
   8   1   0   41.50    3.00
   8   1   0   40.70    3.01
  -9  -1   0   16.15    2.13
   9   1   0   18.33    1.98
   9   1   0   16.54    1.67
   9   1   0   24.60    2.11
 -10  -1   0    5.15    1.43
  10   1   0    4.24    1.10
  10   1   0    3.44    1.04
  10   1   0    2.68    0.86
 -11  -1   0    1.68    1.32
  11   1   0    1.49    0.95
  11   1   0    2.88    1.06
  11   1   0    2.20    0.89
 -12  -1   0    5.92    1.68
  12   1   0    2.54    1.13
  12   1   0    7.07    1.44
  11  -2   0    0.18    0.80
 -11   2   0   -1.04    1.25
 -11   2   0    1.39    1.44
  10  -2   0    1.06    0.57
  10  -2   0    0.98    0.80
 -10   2   0   -0.06    1.17
 -10   2   0    2.05    1.36
   9  -2   0    3.18    0.94
   9  -2   0    5.68    0.78
  -9   2   0    4.66    1.28
  -9   2   0    3.15    1.43
   8  -2   0   46.33    3.03
   8  -2   0   40.41    2.51
   8  -2   0   38.76    2.59
  -8   2   0   34.87    3.07
  -8   2   0   32.64    3.25
   7  -2   0   65.84    3.87
   7  -2   0   64.63    3.97
   7  -2   0   67.78    4.27
  -7   2   0   63.33    4.58
  -7   2   0   56.70    4.35
   6  -2   0   16.36    1.56
   6  -2   0   16.33    1.34
  -6   2   0   17.22    1.93
  -6   2   0   17.37    1.70
   5  -2   0   10.74    1.03
   5  -2   0   10.80    1.21
   5  -2   0   11.54    1.19
  -5   2   0    9.29    1.18
  -5   2   0   12.65    1.50
  -5   2   0   10.51    0.91
   4  -2   0   18.07    1.32
   4  -2   0   18.73    1.46
   4  -2   0   17.45    1.38
   4  -2   0   17.13    1.40
  -4   2   0   16.74    1.24
  -4   2   0   17.57    1.49
  -4   2   0   14.25    1.56
  -4   2   0   16.81    1.16
  -4   2   0   14.82    1.45
   3  -2   0   68.49    4.10
   3  -2   0   69.02    4.02
   3  -2   0   65.48    4.00
   3  -2   0   65.81    4.03
   3  -2   0   69.55    4.05
  -3   2   0   59.54    3.91
  -3   2   0   66.81    4.10
  -3   2   0   67.27    4.12
  -3   2   0   61.48    4.02
  -3   2   0   69.06    3.97
  -3   2   0   66.07    4.14
   2  -2   0   35.58    2.58
   2  -2   0   40.81    2.60
   2  -2   0   43.07    2.68
   2  -2   0   44.27    2.70
   2  -2   0   41.07    2.50
   2  -2   0   41.68    2.49
   2  -2   0   42.55    2.66
  -2   2   0   44.98    2.64
  -2   2   0   40.45    2.65
  -2   2   0   37.04    2.61
  -2   2   0   44.55    2.63
  -2   2   0   41.22    2.60
   1  -2   0   89.11    5.32
   1  -2   0   88.58    5.30
   1  -2   0   90.97    5.37
   1  -2   0   91.51    5.31
  -1   2   0   89.72    5.20
  -1   2   0   89.07    5.22
  -1   2   0   89.78    5.32
  -1   2   0   89.57    5.30
  -1   2   0   85.29    5.31
  -1   2   0   86.44    5.33
   0  -2   0  135.93    8.00
   0  -2   0  134.92    8.01
   0  -2   0  137.97    7.97
   0  -2   0  128.41    7.96
   0   2   0  128.82    7.96
   0   2   0  136.55    7.99
   0   2   0  132.45    7.96
   0   2   0  141.51    7.96
   0   2   0  144.98    7.97
   0   2   0  138.02    7.98
  -1  -2   0   88.85    5.39
  -1  -2   0   87.22    5.44
  -1  -2   0   93.39    5.40
   1   2   0   92.94    5.37
   1   2   0   88.72    5.38
   1   2   0   91.80    5.36
   1   2   0   87.58    5.41
   1   2   0   91.85    5.42
  -2  -2   0   43.26    2.70
  -2  -2   0   42.84    2.81
   2   2   0   43.80    2.67
   2   2   0   42.29    2.71
   2   2   0   42.29    2.69
   2   2   0   39.72    2.70
   2   2   0   40.03    2.72
   2   2   0   43.56    2.66
  -3  -2   0   69.17    4.28
  -3  -2   0   68.57    4.19
  -3  -2   0   69.78    4.15
   3   2   0   65.28    4.14
   3   2   0   66.20    4.14
   3   2   0   68.78    4.21
   3   2   0   68.45    4.08
   3   2   0   67.92    4.08
  -4  -2   0   19.57    1.67
  -4  -2   0   17.84    1.41
  -4  -2   0   18.93    1.39
   4   2   0   16.02    1.40
   4   2   0   15.99    1.32
   4   2   0   16.54    1.35
   4   2   0   17.12    1.34
   4   2   0   16.19    1.33
  -5  -2   0   11.28    1.01
  -5  -2   0   13.27    1.16
  -5  -2   0   11.96    1.19
  -5  -2   0   11.08    1.33
  -5  -2   0   10.78    1.10
   5   2   0   12.20    1.07
   5   2   0   12.38    1.23
   5   2   0    9.56    1.11
  -6  -2   0   18.33    1.55
  -6  -2   0   18.33    1.70
  -6  -2   0   18.16    1.62
  -6  -2   0   17.93    1.46
   6   2   0   18.41    1.50
   6   2   0   17.84    1.64
  -7  -2   0   74.51    4.72
  -7  -2   0   71.72    4.56
  -7  -2   0   74.98    4.73
   7   2   0   70.76    5.04
   7   2   0   71.50    4.77
   7   2   0   72.95    4.57
  -8  -2   0   47.20    3.50
  -8  -2   0   49.26    3.45
   8   2   0   48.24    3.53
   8   2   0   50.78    3.84
   8   2   0   48.26    3.28
  -9  -2   0    5.74    1.25
  -9  -2   0    2.95    1.17
   9   2   0    5.43    1.17
   9   2   0    4.94    0.97
   9   2   0    4.50    1.30
 -10  -2   0    1.09    1.05
  10   2   0    0.67    0.70
  10   2   0    0.81    0.86
  10   2   0    0.87    1.11
 -11  -2   0    1.64    1.23
  11   2   0    0.43    1.02
  11   2   0    1.78    0.89
  11   2   0    0.21    0.93
  10  -3   0    1.55    0.96
  10  -3   0    2.06    1.00
 -10   3   0    2.10    1.41
 -10   3   0    1.94    1.49
   9  -3   0    6.03    1.17
   9  -3   0    4.71    0.88
  -9   3   0    3.88    1.33
  -9   3   0    3.68    1.48
   8  -3   0    7.76    0.98
   8  -3   0    5.13    1.11
  -8   3   0    5.66    1.54
  -8   3   0    4.69    1.32
   7  -3   0   23.45    1.93
   7  -3   0   19.18    1.64
  -7   3   0   19.43    2.05
  -7   3   0   16.73    2.16
   6  -3   0    3.48    0.82
   6  -3   0    2.52    0.76
   6  -3   0    2.74    0.68
   6  -3   0    4.27    0.84
  -6   3   0    3.93    1.15
  -6   3   0    4.01    1.00
   5  -3   0    1.31    0.51
   5  -3   0    1.41    0.71
   5  -3   0    1.33    0.57
   5  -3   0    1.41    0.57
   5  -3   0    0.56    0.64
  -5   3   0    1.63    0.77
  -5   3   0    1.65    0.97
   4  -3   0    3.95    0.60
   4  -3   0    4.35    0.60
   4  -3   0    5.83    0.90
   4  -3   0    3.84    0.74
   4  -3   0    4.18    0.83
  -4   3   0    3.31    0.57
  -4   3   0    4.28    0.98
  -4   3   0    3.41    0.83
  -4   3   0    3.61    0.72
   3  -3   0   18.11    1.62
   3  -3   0   17.87    1.53
   3  -3   0   17.65    1.47
   3  -3   0   18.37    1.57
  -3   3   0   17.43    1.49
  -3   3   0   17.36    1.58
  -3   3   0   17.96    1.50
  -3   3   0   17.23    1.55
  -3   3   0   18.19    1.37
   2  -3   0   63.84    4.18
   2  -3   0   64.48    4.09
   2  -3   0   65.59    4.13
   2  -3   0   69.00    4.11
  -2   3   0   67.21    4.13
  -2   3   0   62.28    4.00
  -2   3   0   67.18    4.11
  -2   3   0   64.75    4.06
   1  -3   0   10.41    1.15
   1  -3   0   11.05    1.21
   1  -3   0    9.43    1.09
   1  -3   0   10.86    1.20
  -1   3   0   11.21    0.95
  -1   3   0   12.52    1.20
  -1   3   0   11.53    1.18
  -1   3   0   11.23    0.89
   0  -3   0    0.19    0.60
   0  -3   0    0.02    0.51
   0  -3   0    0.58    0.69
   0   3   0   -0.40    0.47
  -1  -3   0   10.80    1.27
  -1  -3   0   10.54    1.17
  -2  -3   0   70.72    4.39
  -2  -3   0   70.04    4.35
  -2  -3   0   68.34    4.47
   2   3   0   68.24    4.36
  -3  -3   0   20.96    1.58
  -3  -3   0   17.30    1.78
   3   3   0   18.30    1.29
   3   3   0   19.12    1.57
   3   3   0   16.28    1.28
  -4  -3   0    4.39    0.77
  -4  -3   0    3.85    1.06
   4   3   0    3.43    0.63
   4   3   0    3.06    0.59
   4   3   0    3.44    0.70
  -5  -3   0    0.36    0.95
  -5  -3   0    2.14    0.68
   5   3   0    0.92    0.51
   5   3   0    1.65    0.61
  -6  -3   0    2.95    0.76
  -6  -3   0    3.41    1.17
   6   3   0    2.26    0.77
   6   3   0    4.01    0.78
  -7  -3   0   15.65    2.06
  -7  -3   0   24.32    1.98
   7   3   0   23.36    2.07
   7   3   0   26.44    1.94
  -8  -3   0    7.04    1.60
  -8  -3   0    8.26    1.23
   8   3   0    7.14    1.29
   8   3   0    8.06    1.17
   8   3   0   10.08    1.84
  -9  -3   0    9.28    1.38
  -9  -3   0    4.69    1.58
   9   3   0    8.39    1.79
   9   3   0    5.53    1.21
   9   3   0   11.03    1.47
 -10  -3   0    2.80    1.00
  10   3   0    2.00    1.04
  10   3   0    1.91    1.37
  10   3   0    0.85    0.84
   9  -4   0    3.47    0.91
   9  -4   0    5.34    1.37
   9  -4   0    4.07    1.14
  -9   4   0    5.53    1.61
  -9   4   0    2.74    1.56
   8  -4   0    1.21    1.28
   8  -4   0    2.27    0.99
   8  -4   0    2.04    1.12
   8  -4   0    0.69    0.70
  -8   4   0    1.36    1.16
  -8   4   0    0.91    1.35
   7  -4   0    5.71    1.13
   7  -4   0    6.03    1.33
   7  -4   0    6.91    1.32
   7  -4   0    4.95    0.94
  -7   4   0    3.89    1.25
  -7   4   0    3.68    1.41
   6  -4   0    3.84    1.04
   6  -4   0    1.82    0.94
   6  -4   0    4.60    0.90
  -6   4   0    3.34    1.02
  -6   4   0    1.78    1.10
   5  -4   0    4.34    1.01
   5  -4   0    4.17    1.09
   5  -4   0    4.02    0.92
  -5   4   0    3.76    1.06
  -5   4   0    4.70    1.21
   4  -4   0    5.82    1.11
   4  -4   0    4.97    0.92
   4  -4   0    5.66    1.02
  -4   4   0    3.96    1.02
  -4   4   0    5.68    1.11
   3  -4   0   15.56    1.63
   3  -4   0   15.87    1.68
   3  -4   0   19.65    1.80
  -3   4   0   16.19    1.66
  -3   4   0   16.80    1.63
  -3   4   0   15.83    1.49
   2  -4   0    1.44    0.80
   2  -4   0    0.78    0.71
   2  -4   0    2.04    0.82
   2  -4   0    1.09    0.81
  -2   4   0    0.83    0.66
  -2   4   0    1.60    0.55
  -2   4   0    1.47    0.68
   1  -4   0    2.39    0.88
   1  -4   0    3.78    0.97
   1  -4   0    3.07    0.91
  -1   4   0    3.02    0.56
  -1   4   0    3.19    0.82
  -1   4   0    2.78    0.63
   0  -4   0   16.56    1.79
   0  -4   0   16.62    1.71
   0  -4   0   18.33    1.75
   0   4   0   14.88    1.55
  -1  -4   0    2.33    1.09
  -1  -4   0    4.70    1.02
   1   4   0    2.55    0.85
  -2  -4   0    1.60    1.01
  -2  -4   0    1.13    0.91
   2   4   0    0.95    0.76
  -3  -4   0   11.70    1.66
   3   4   0   16.11    1.55
  -4  -4   0    5.13    0.99
  -4  -4   0    2.42    1.22
   4   4   0    5.68    0.97
   4   4   0    4.30    0.69
   4   4   0    3.07    0.66
  -5  -4   0    3.22    0.91
  -5  -4   0    2.85    1.39
   5   4   0    3.67    0.82
   5   4   0    4.10    0.80
  -6  -4   0    5.05    1.01
  -6  -4   0    2.49    1.40
   6   4   0    3.32    0.90
   6   4   0    3.80    0.89
  -7  -4   0    5.68    1.11
  -7  -4   0    4.12    1.51
   7   4   0    4.59    1.21
   7   4   0    5.52    1.01
  -8  -4   0    1.68    0.92
  -8  -4   0    2.65    1.64
   8   4   0    3.27    0.95
   8   4   0    2.50    1.55
  -9  -4   0    7.15    1.29
  -9  -4   0    4.46    1.64
   9   4   0    5.03    1.21
   9   4   0    3.50    1.68
   6  -5   0    4.44    1.13
   6  -5   0    4.65    1.24
   6  -5   0    8.51    1.59
  -6   5   0    5.98    1.34
   5  -5   0   17.39    1.87
   5  -5   0   16.17    1.92
   5  -5   0   16.92    2.19
  -5   5   0   15.33    1.93
   4  -5   0    1.24    1.00
   4  -5   0    0.92    1.01
  -4   5   0    0.03    0.84
   3  -5   0    4.97    1.21
   3  -5   0    5.36    1.29
  -3   5   0    5.23    1.14
   2  -5   0   11.86    1.66
   2  -5   0   13.86    1.80
  -2   5   0   10.70    1.45
   1  -5   0   26.56    2.67
   1  -5   0   31.43    2.74
  -1   5   0   30.30    2.45
   0  -5   0    0.33    0.93
   0  -5   0    0.44    1.14
   0   5   0   -0.44    0.74
  -1  -5   0   33.66    2.77
  -1  -5   0   30.18    2.83
   1   5   0   31.88    2.60
   1   5   0   35.32    2.92
  -2  -5   0    6.89    1.63
   2   5   0   15.05    1.81
   2   5   0   13.58    1.64
  -3  -5   0    6.62    1.60
   3   5   0    6.10    1.24
  -4  -5   0    1.65    1.36
   4   5   0    0.70    0.83
  -5  -5   0   12.58    2.10
   5   5   0   16.79    1.83
  -6  -5   0    3.06    1.63
  -6  -5   0    3.88    1.10
   6   5   0    5.42    1.15
   1  -6   0    9.03    1.75
   0  -6   0   36.28    3.36
   0   6   0   40.95    3.67
   1   6   0   13.66    2.10
   2   6  -1    0.98    1.24
   2   6  -1    3.40    1.51
   1   6  -1   31.29    2.81
   1   6  -1   24.21    2.86
   0   6  -1    4.76    1.25
  -1   6  -1   11.00    1.69
   1  -6   1   17.61    2.30
   1  -6   1   11.98    2.02
   7   5  -1    7.54    1.31
   7   5  -1    7.47    2.11
  -7  -5   1    4.93    1.29
   6   5  -1    1.60    1.57
   6   5  -1    2.31    0.87
  -6  -5   1    0.38    0.91
   5   5  -1    9.41    2.17
   5   5  -1   12.33    1.55
   4   5  -1    0.67    0.78
   3   5  -1    3.02    1.01
   2   5  -1   22.64    2.25
   2   5  -1   20.75    2.27
   1   5  -1   12.21    1.61
   0   5  -1   29.04    2.47
   0  -5   1   28.18    2.52
   0  -5   1   30.25    2.69
  -1   5  -1    6.21    1.21
   1  -5   1    8.96    1.52
   1  -5   1    5.57    1.25
  -2   5  -1    5.54    1.18
   2  -5   1    5.86    1.33
   2  -5   1    4.34    1.25
  -3   5  -1    3.59    1.10
   3  -5   1    6.12    1.33
   3  -5   1    3.26    1.16
   3  -5   1    4.54    1.09
  -4   5  -1   12.53    1.76
   4  -5   1   12.59    1.73
   4  -5   1   14.13    1.83
   4  -5   1   13.01    1.67
  -5   5  -1    7.79    1.47
   5  -5   1    8.37    1.70
   5  -5   1    4.92    1.24
   5  -5   1    6.46    1.25
  -6   5  -1    2.59    1.18
   6  -5   1    4.60    1.35
   6  -5   1    1.24    1.04
   6  -5   1    2.23    0.98
   9   4  -1   14.31    2.48
   9   4  -1   11.14    1.56
  -9  -4   1   14.54    1.83
   8   4  -1    6.80    1.18
   8   4  -1    7.01    1.87
  -8  -4   1    6.65    1.28
   7   4  -1    3.05    0.83
   7   4  -1    2.47    1.50
  -7  -4   1    1.94    1.34
  -7  -4   1    3.25    0.98
   6   4  -1   24.32    2.91
   6   4  -1   23.83    2.05
   6   4  -1   28.34    2.10
  -6  -4   1   22.28    2.59
  -6  -4   1   27.32    2.25
   5   4  -1    0.50    0.59
   5   4  -1    0.93    0.57
  -5  -4   1    0.33    1.13
  -5  -4   1    0.97    0.76
   4   4  -1    3.03    0.80
  -4  -4   1    3.06    1.21
  -4  -4   1    3.87    0.91
   3   4  -1    9.65    1.23
  -3  -4   1    6.69    1.37
   2   4  -1    9.55    1.26
  -2  -4   1    6.92    1.31
   1   4  -1    0.94    0.81
  -1  -4   1    0.85    0.82
  -1  -4   1    1.75    0.94
   0   4  -1    1.50    0.83
   0  -4   1    1.15    0.81
   0  -4   1    1.74    0.80
  -1   4  -1   12.34    1.14
  -1   4  -1   15.50    1.53
  -1   4  -1   12.14    1.11
   1  -4   1   11.31    1.37
   1  -4   1   14.30    1.58
   1  -4   1   15.25    1.52
  -2   4  -1    0.79    0.58
  -2   4  -1    0.30    0.52
  -2   4  -1    0.94    0.74
   2  -4   1    0.76    0.75
   2  -4   1    0.38    0.67
   2  -4   1    0.25    0.74
  -3   4  -1   42.70    2.88
  -3   4  -1   45.38    3.20
  -3   4  -1   43.34    3.09
   3  -4   1   42.30    3.04
   3  -4   1   47.25    3.10
   3  -4   1   43.77    3.21
  -4   4  -1    4.06    1.07
  -4   4  -1    4.79    1.14
   4  -4   1    5.65    1.07
   4  -4   1    5.17    0.98
   4  -4   1    3.86    0.88
  -5   4  -1   14.60    1.85
  -5   4  -1   13.33    1.71
   5  -4   1   12.11    1.40
   5  -4   1   10.49    1.35
   5  -4   1   16.94    1.78
  -6   4  -1    4.64    1.42
  -6   4  -1    6.31    1.30
   6  -4   1    5.95    1.24
   6  -4   1    4.76    0.97
   6  -4   1    6.77    1.22
  -7   4  -1   -1.22    1.08
  -7   4  -1    1.35    1.07
   7  -4   1    0.77    0.71
   7  -4   1    0.88    0.95
   7  -4   1   -0.33    0.76
  -8   4  -1    0.01    1.26
  -8   4  -1    0.60    1.13
   8  -4   1    0.52    0.69
   8  -4   1    0.84    0.87
   8  -4   1    0.70    0.98
  10   3  -1    9.47    1.94
  10   3  -1    5.32    1.28
  10   3  -1   10.35    1.47
 -10  -3   1   10.19    1.58
   9   3  -1    8.56    1.25
   9   3  -1    8.05    1.83
   9   3  -1    7.97    1.39
  -9  -3   1   10.16    1.47
   8   3  -1    7.56    1.69
   8   3  -1    7.44    1.05
   8   3  -1    4.70    1.06
  -8  -3   1    5.94    1.10
  -8  -3   1    6.41    1.36
   7   3  -1    0.61    0.68
   7   3  -1   -0.64    0.46
   7   3  -1    1.33    1.05
  -7  -3   1    0.59    0.63
  -7  -3   1   -0.29    1.04
   6   3  -1    6.61    1.50
   6   3  -1    5.88    0.87
   6   3  -1    5.29    0.92
  -6  -3   1    7.11    1.00
  -6  -3   1    5.82    1.28
   5   3  -1    4.42    0.68
   5   3  -1    3.37    0.69
   5   3  -1    2.09    0.59
  -5  -3   1    3.08    1.03
  -5  -3   1    3.22    0.73
   4   3  -1   63.92    3.87
   4   3  -1   58.10    3.75
   4   3  -1   57.79    3.72
  -4  -3   1   60.22    4.08
  -4  -3   1   68.85    3.96
   3   3  -1   13.70    1.19
  -3  -3   1   11.89    1.22
  -3  -3   1    8.27    1.24
   2   3  -1   29.67    2.21
  -2  -3   1   31.68    2.23
  -2  -3   1   31.89    2.42
  -1  -3   1    1.94    0.81
  -1  -3   1    2.55    0.71
  -1  -3   1    1.54    0.58
  -1  -3   1    2.10    0.63
   0   3  -1    6.40    0.96
   0  -3   1    6.62    0.91
   0  -3   1    6.52    0.86
   0  -3   1    6.82    0.97
   0  -3   1    7.07    0.96
  -1   3  -1   12.16    0.99
  -1   3  -1   12.05    1.29
  -1   3  -1   14.26    1.08
  -1   3  -1   13.62    1.35
   1  -3   1   11.32    1.19
   1  -3   1   13.09    1.30
   1  -3   1   11.48    1.21
  -2   3  -1   21.27    1.76
  -2   3  -1   20.07    1.59
  -2   3  -1   23.18    1.68
  -2   3  -1   21.67    1.71
   2  -3   1   23.01    1.70
   2  -3   1   20.88    1.76
   2  -3   1   22.01    1.71
  -3   3  -1   38.30    2.34
  -3   3  -1   32.91    2.59
  -3   3  -1   33.07    2.59
  -3   3  -1   43.58    2.73
  -3   3  -1   38.78    2.52
   3  -3   1   40.03    2.58
   3  -3   1   34.76    2.53
   3  -3   1   39.25    2.65
  -4   3  -1    3.19    0.87
  -4   3  -1    2.50    0.65
  -4   3  -1    2.56    0.82
   4  -3   1    2.88    0.71
   4  -3   1    3.55    0.72
   4  -3   1    2.70    0.55
   4  -3   1    3.09    0.77
  -5   3  -1    0.63    0.56
  -5   3  -1    2.02    0.92
  -5   3  -1   -0.19    0.78
   5  -3   1    1.51    0.63
   5  -3   1    1.52    0.67
   5  -3   1    0.73    0.49
   5  -3   1    1.43    0.61
  -6   3  -1    5.65    1.35
  -6   3  -1    7.19    1.29
   6  -3   1    6.32    0.95
   6  -3   1    6.00    0.97
   6  -3   1    4.85    0.88
  -7   3  -1    3.41    1.18
  -7   3  -1    3.09    1.34
   7  -3   1    3.35    0.82
   7  -3   1    2.82    0.86
   7  -3   1    4.49    0.87
  -8   3  -1    2.10    1.28
  -8   3  -1    1.51    1.08
   8  -3   1    1.80    0.86
   8  -3   1    2.29    0.75
   8  -3   1    1.55    0.68
  -9   3  -1   -0.67    1.23
  -9   3  -1    1.00    1.31
   9  -3   1    0.40    0.79
   9  -3   1   -0.14    0.59
 -10   3  -1    2.06    1.45
 -10   3  -1    2.59    1.58
  10  -3   1    3.01    1.03
  10  -3   1    3.38    0.93
  11   2  -1    3.06    1.23
  11   2  -1    0.95    0.95
  11   2  -1    2.31    0.85
 -11  -2   1    2.11    1.15
  10   2  -1    1.89    1.15
  10   2  -1    0.18    0.64
  10   2  -1   -0.22    0.74
 -10  -2   1    1.57    1.03
   9   2  -1   15.97    2.10
   9   2  -1   14.69    1.52
   9   2  -1   11.27    1.66
  -9  -2   1   17.78    1.88
   8   2  -1    4.88    1.09
   8   2  -1    4.46    1.26
   8   2  -1    5.67    0.84
  -8  -2   1    5.34    1.08
  -8  -2   1    4.45    1.00
   7   2  -1   29.06    2.27
   7   2  -1   28.05    2.58
   7   2  -1   29.53    2.06
  -7  -2   1   28.51    2.05
  -7  -2   1   29.39    2.18
  -7  -2   1   27.95    2.20
  -7  -2   1   26.77    2.31
   6   2  -1   14.62    1.81
   6   2  -1   11.96    1.14
   6   2  -1   12.12    1.33
  -6  -2   1   12.39    1.20
  -6  -2   1   11.41    1.38
  -6  -2   1   12.76    1.28
  -6  -2   1   12.34    1.20
  -6  -2   1   12.02    1.08
   5   2  -1    3.70    0.57
   5   2  -1    3.76    0.67
   5   2  -1    4.73    0.74
   5   2  -1    4.12    1.05
  -5  -2   1    4.04    0.72
  -5  -2   1    3.78    0.66
  -5  -2   1    4.15    0.57
  -5  -2   1    3.40    0.87
   4   2  -1    3.47    0.60
   4   2  -1    4.06    0.61
   4   2  -1    3.86    0.58
   4   2  -1    3.26    0.67
   4   2  -1    3.00    0.52
   4   2  -1    3.88    0.61
  -4  -2   1    3.63    0.63
  -4  -2   1    3.91    0.63
  -4  -2   1    2.48    0.72
   3   2  -1   22.94    1.47
   3   2  -1   22.67    1.72
   3   2  -1   23.15    1.55
   3   2  -1   23.24    1.57
   3   2  -1   20.15    1.56
   3   2  -1   21.38    1.46
  -3  -2   1   22.07    1.75
  -3  -2   1   22.20    1.61
   2   2  -1    3.85    0.59
   2   2  -1    3.40    0.62
   2   2  -1    3.25    0.51
   2   2  -1    3.59    0.52
   2   2  -1    3.81    0.61
   2   2  -1    4.40    0.60
  -2  -2   1    2.57    0.66
  -2  -2   1    3.62    0.60
   1   2  -1   19.87    1.43
   1   2  -1   19.01    1.45
   1   2  -1   20.38    1.42
   1   2  -1   19.73    1.42
   1   2  -1   19.39    1.38
  -1  -2   1   19.69    1.54
  -1  -2   1   19.72    1.48
  -1  -2   1   18.59    1.47
  -1  -2   1   19.15    1.46
  -1  -2   1   19.66    1.47
   0   2  -1    6.29    0.72
   0   2  -1    5.39    0.78
   0   2  -1    5.63    0.67
   0   2  -1    7.47    0.77
   0   2  -1    6.25    0.72
   0   2  -1    5.75    0.74
   0  -2   1    5.93    0.73
   0  -2   1    6.93    0.77
   0  -2   1    5.24    0.72
  -1   2  -1   38.48    2.39
  -1   2  -1   35.53    2.51
  -1   2  -1   39.91    2.48
  -1   2  -1   37.92    2.45
  -1   2  -1   39.98    2.48
  -1   2  -1   38.26    2.36
   1  -2   1   36.62    2.46
   1  -2   1   39.20    2.52
   1  -2   1   37.80    2.45
   1  -2   1   38.71    2.55
  -2   2  -1   25.24    1.84
  -2   2  -1   26.50    1.81
  -2   2  -1   25.76    1.76
  -2   2  -1   25.91    1.89
   2  -2   1   27.72    1.88
   2  -2   1   26.18    1.67
   2  -2   1   27.16    1.79
   2  -2   1   23.39    1.84
   2  -2   1   25.40    1.78
  -3   2  -1   32.14    2.21
  -3   2  -1   28.20    2.13
  -3   2  -1   28.15    2.09
  -3   2  -1   30.83    1.94
   3  -2   1   25.64    1.97
   3  -2   1   28.43    2.08
   3  -2   1   32.41    2.02
   3  -2   1   29.87    1.99
   3  -2   1   29.22    1.98
  -4   2  -1    9.84    1.19
  -4   2  -1   11.50    1.32
  -4   2  -1    9.39    0.89
   4  -2   1    8.96    1.02
   4  -2   1    8.83    0.95
   4  -2   1   11.23    1.11
  -5   2  -1    1.47    0.76
  -5   2  -1    2.24    0.84
  -5   2  -1    3.06    0.47
   5  -2   1    1.75    0.61
   5  -2   1    2.78    0.69
   5  -2   1    2.42    0.58
  -6   2  -1    5.79    1.15
  -6   2  -1    5.70    1.20
   6  -2   1    7.62    0.90
   6  -2   1    7.49    1.06
  -7   2  -1   11.35    1.52
  -7   2  -1   10.67    1.74
   7  -2   1   13.05    1.23
   7  -2   1    9.97    1.35
  -8   2  -1   12.81    1.83
  -8   2  -1   12.82    2.06
   8  -2   1   14.46    1.32
   8  -2   1   13.61    1.65
  -9   2  -1    2.15    1.25
  -9   2  -1    1.63    1.35
   9  -2   1    2.30    0.67
   9  -2   1    1.71    0.86
 -10   2  -1   -1.40    1.11
 -10   2  -1   -0.05    1.38
  10  -2   1   -0.81    0.53
  10  -2   1    0.84    0.84
 -11   2  -1    9.40    2.05
 -11   2  -1    8.87    2.10
  11  -2   1    5.88    1.33
  12   1  -1    1.85    1.02
  12   1  -1    0.80    0.96
 -12  -1   1    2.84    1.46
  11   1  -1   18.41    2.02
  11   1  -1   16.07    2.09
 -11  -1   1   17.83    2.36
  10   1  -1   10.24    1.51
  10   1  -1    8.37    1.48
  10   1  -1    9.17    1.16
 -10  -1   1    8.48    1.63
   9   1  -1   21.02    2.01
   9   1  -1   18.61    1.94
   9   1  -1   20.09    1.64
  -9  -1   1   15.51    2.06
   8   1  -1  111.24    6.65
   8   1  -1   97.18    6.28
   8   1  -1  105.21    6.60
  -8  -1   1  105.59    6.71
   7   1  -1   21.56    1.71
   7   1  -1   27.31    2.09
   7   1  -1   25.65    2.16
   7   1  -1   26.24    1.81
  -7  -1   1   25.09    2.21
  -7  -1   1   27.89    2.04
   6   1  -1   62.87    3.86
   6   1  -1   62.28    4.15
   6   1  -1   64.65    4.08
   6   1  -1   59.80    3.84
  -6  -1   1   64.75    3.90
  -6  -1   1   60.73    4.13
  -6  -1   1   65.48    4.01
  -6  -1   1   64.50    3.92
   5   1  -1   19.78    1.61
   5   1  -1   20.33    1.53
   5   1  -1   19.65    1.74
   5   1  -1   21.03    1.43
   5   1  -1   21.50    1.59
   5   1  -1   19.27    1.45
  -5  -1   1   21.86    1.73
  -5  -1   1   21.07    1.45
  -5  -1   1   19.54    1.54
  -5  -1   1   19.33    1.56
   4   1  -1  189.28    9.98
   4   1  -1  166.21    9.92
   4   1  -1  174.08   10.07
   4   1  -1  161.35    9.82
   4   1  -1  171.80    9.88
  -4  -1   1  178.94    9.95
  -4  -1   1  165.78    9.89
  -4  -1   1  171.51    9.88
  -4  -1   1  151.60    9.81
   3   1  -1   34.65    2.23
   3   1  -1   31.96    2.14
   3   1  -1   35.41    2.43
   3   1  -1   35.31    2.23
   3   1  -1   39.86    2.25
  -3  -1   1   33.20    2.17
  -3  -1   1   35.79    2.23
  -3  -1   1   36.01    2.31
  -3  -1   1   35.38    2.17
   2   1  -1  154.63    9.14
   2   1  -1  165.56    9.13
   2   1  -1  158.28    9.21
   2   1  -1  162.36    9.15
   2   1  -1  149.55    9.12
   2   1  -1  162.77    9.31
  -2  -1   1  156.32    9.15
  -2  -1   1  159.85    9.19
  -2  -1   1  160.24    9.22
   1   1  -1    6.41    0.58
   1   1  -1    4.84    0.54
   1   1  -1    7.13    0.65
   1   1  -1    4.79    0.56
   1   1  -1    6.11    0.59
  -1  -1   1    5.91    0.60
  -1  -1   1    5.77    0.60
  -1  -1   1    5.69    0.58
   0   1  -1   84.08    5.29
   0   1  -1   91.49    5.29
   0   1  -1   89.33    5.36
   0   1  -1   94.00    5.31
   0   1  -1   92.12    5.31
   0   1  -1   89.73    5.31
   0  -1   1   95.64    5.29
   0  -1   1   93.27    5.32
   0  -1   1   87.68    5.29
  -1   1  -1  940.18   50.25
  -1   1  -1  872.80   50.27
  -1   1  -1  863.44   50.30
   1  -1   1  918.02   50.23
   1  -1   1  865.61   50.24
   1  -1   1  847.84   50.20
   1  -1   1  857.11   50.29
  -2   1  -1   59.44    3.67
  -2   1  -1   58.42    3.64
  -2   1  -1   58.96    3.68
   2  -1   1   59.31    3.60
   2  -1   1   54.86    3.63
   2  -1   1   65.76    3.66
  -3   1  -1    6.75    0.92
  -3   1  -1    7.59    0.89
  -3   1  -1    7.45    0.87
  -3   1  -1    6.41    0.75
   3  -1   1    7.29    0.83
   3  -1   1    9.44    0.94
   3  -1   1    8.98    0.89
  -4   1  -1   12.14    1.26
  -4   1  -1   13.55    1.27
  -4   1  -1   10.89    1.26
  -4   1  -1   14.12    1.14
   4  -1   1   12.75    1.18
   4  -1   1   14.88    1.27
   4  -1   1   11.71    1.10
   4  -1   1   11.25    0.90
  -5   1  -1   18.16    1.80
  -5   1  -1   22.28    1.80
   5  -1   1   22.82    1.77
   5  -1   1   20.02    1.41
   5  -1   1   21.65    1.70
  -6   1  -1    3.71    0.91
  -6   1  -1    4.77    1.07
   6  -1   1    5.19    0.89
   6  -1   1    5.68    0.67
  -7   1  -1   -0.45    0.88
  -7   1  -1    0.46    0.84
   7  -1   1   -0.20    0.54
   7  -1   1    0.44    0.41
  -8   1  -1   28.22    2.96
  -8   1  -1   34.23    2.81
   8  -1   1   36.23    2.71
   8  -1   1   33.42    2.29
  -9   1  -1   23.67    2.91
  -9   1  -1   31.57    2.89
   9  -1   1   33.77    2.72
   9  -1   1   34.10    2.27
 -10   1  -1    0.04    1.22
 -10   1  -1    1.78    1.26
  10  -1   1    0.20    0.77
 -11   1  -1    2.03    1.47
 -11   1  -1    1.25    1.39
  11  -1   1    1.13    0.89
  12   0  -1    1.54    0.87
  12   0  -1    2.37    1.00
 -12   0   1    2.53    1.47
  11   0  -1   -0.02    0.77
  11   0  -1    0.10    0.72
 -11   0   1   -0.30    1.19
  10   0  -1    1.40    0.77
  10   0  -1    0.36    0.78
 -10   0   1    0.19    1.10
   9   0  -1    1.10    0.64
   9   0  -1    1.26    0.76
  -9   0   1    0.92    0.97
   8   0  -1   31.55    2.25
   8   0  -1   29.49    2.37
  -8   0   1   25.69    2.52
   7   0  -1   11.29    1.39
   7   0  -1   11.73    1.24
  -7   0   1   10.27    1.49
   6   0  -1   11.24    1.19
   6   0  -1   10.47    1.14
  -6   0   1   10.81    1.07
  -6   0   1   11.36    1.25
  -6   0   1   12.12    1.34
  -6   0   1   10.70    1.33
   5   0  -1   27.99    1.96
   5   0  -1   29.11    2.04
   5   0  -1   28.38    1.75
   5   0  -1   30.66    2.05
   5   0  -1   29.29    1.88
   5   0  -1   27.73    1.98
  -5   0   1   24.91    2.15
  -5   0   1   27.39    2.05
  -5   0   1   28.61    1.91
  -5   0   1   29.20    2.12
   4   0  -1    2.90    0.36
   4   0  -1    2.76    0.55
   4   0  -1    2.34    0.47
   4   0  -1    3.42    0.48
   4   0  -1    4.09    0.65
   4   0  -1    2.70    0.55
  -4   0   1    2.63    0.57
  -4   0   1    2.03    0.57
  -4   0   1    2.84    0.72
  -4   0   1    2.19    0.44
  -4   0   1    1.94    0.58
   3   0  -1   38.74    2.37
   3   0  -1   35.51    2.51
   3   0  -1   39.30    2.49
   3   0  -1   38.06    2.52
   3   0  -1   46.06    2.58
  -3   0   1   43.77    2.57
  -3   0   1   39.55    2.60
  -3   0   1   41.34    2.43
  -3   0   1   39.61    2.54
   2   0  -1   36.09    1.99
   2   0  -1   29.50    1.92
   2   0  -1   26.72    1.94
   2   0  -1   30.49    1.95
  -2   0   1   29.90    1.96
  -2   0   1   33.08    1.87
  -2   0   1   32.63    1.97
  -2   0   1   32.14    2.01
   1   0  -1    4.19    0.42
   1   0  -1    4.40    0.39
   1   0  -1    4.15    0.39
  -1   0   1    4.21    0.40
  -1   0   1    4.95    0.43
  -1   0   1    3.84    0.41
   0   0  -1   37.99    2.38
   0   0  -1   42.91    2.41
   0   0  -1   41.57    2.37
   0   0   1   40.43    2.38
   0   0   1   42.74    2.39
   0   0   1   44.80    2.42
   0   0   1   35.50    2.36
  -1   0  -1  219.67   12.07
  -1   0  -1  209.60   12.12
  -1   0  -1  214.47   12.05
   1   0   1  191.97   12.07
   1   0   1  207.76   12.05
   1   0   1  217.64   12.07
  -2   0  -1  135.37    7.55
  -2   0  -1  126.02    7.56
  -2   0  -1  122.38    7.59
  -2   0  -1  128.87    7.51
   2   0   1  119.68    7.54
   2   0   1  144.12    7.62
   2   0   1  129.80    7.52
   2   0   1  127.94    7.50
  -3   0  -1   43.20    2.65
  -3   0  -1   41.62    2.72
  -3   0  -1   39.51    2.71
  -3   0  -1   36.36    2.75
   3   0   1   42.21    2.70
   3   0   1   42.15    2.63
   3   0   1   41.37    2.65
   3   0   1   51.72    2.80
  -4   0  -1   12.68    1.22
  -4   0  -1   11.60    1.05
  -4   0  -1   11.41    1.18
  -4   0  -1   11.07    1.26
   4   0   1   11.15    1.02
   4   0   1   12.13    1.05
   4   0   1   13.66    1.18
   4   0   1   10.57    1.13
  -5   0  -1   12.80    1.16
  -5   0  -1   11.79    1.30
  -5   0  -1   11.44    1.31
  -5   0  -1   13.53    1.07
  -5   0  -1   11.03    1.43
   5   0   1   13.13    1.29
   5   0   1   12.46    1.20
   5   0   1   11.71    1.11
   5   0   1   17.18    1.64
   5   0   1   13.00    1.26
  -6   0  -1    3.92    0.94
  -6   0  -1    2.22    0.58
  -6   0  -1    2.85    0.89
   6   0   1    2.71    0.71
   6   0   1    3.10    0.65
   6   0   1    3.53    0.71
  -7   0  -1   49.70    3.57
  -7   0  -1   41.67    3.65
  -7   0  -1   55.40    3.14
   7   0   1   52.89    3.38
   7   0   1   48.19    3.29
   7   0   1   49.89    3.51
  -8   0  -1    7.30    0.83
  -8   0  -1    7.24    1.54
  -8   0  -1    7.79    1.35
   8   0   1    6.86    1.02
   8   0   1    8.19    1.11
   8   0   1    7.34    1.21
  -9   0  -1    5.56    1.49
  -9   0  -1    4.72    1.34
   9   0   1    5.49    1.01
   9   0   1    5.11    1.13
 -10   0  -1   37.58    3.56
 -10   0  -1   41.64    3.49
  10   0   1   40.93    3.30
  10   0   1   39.86    2.97
 -11   0  -1    0.45    1.34
  11   0   1    0.92    0.98
  12  -1  -1    0.70    0.82
 -12   1   1    1.33    1.49
  11  -1  -1   11.33    1.65
 -11   1   1   13.00    2.08
 -11   1   1   20.55    2.43
  10  -1  -1   10.51    0.96
  10  -1  -1    5.83    1.27
  10  -1  -1    9.25    1.18
 -10   1   1    9.19    1.77
 -10   1   1    7.94    1.63
   9  -1  -1   17.76    1.53
   9  -1  -1   16.01    1.76
  -9   1   1   14.72    2.05
  -9   1   1   17.39    2.06
   8  -1  -1   92.43    6.01
   8  -1  -1  102.86    5.81
  -8   1   1   99.26    6.13
  -8   1   1   81.77    6.19
   7  -1  -1   22.45    1.93
   7  -1  -1   22.94    1.73
  -7   1   1   25.47    2.26
  -7   1   1   25.23    2.10
   6  -1  -1   52.64    3.36
   6  -1  -1   59.60    3.70
   6  -1  -1   56.04    3.50
  -6   1   1   58.67    3.58
  -6   1   1   53.56    3.84
   5  -1  -1   18.48    1.44
   5  -1  -1   16.15    1.35
   5  -1  -1   19.09    1.54
   5  -1  -1   21.52    1.58
   5  -1  -1   16.86    1.25
  -5   1   1   21.44    1.46
  -5   1   1   18.53    1.61
  -5   1   1   20.73    1.46
  -5   1   1   18.20    1.58
  -5   1   1   18.92    1.75
   4  -1  -1  146.69    9.09
   4  -1  -1  164.80    9.25
   4  -1  -1  158.58    9.17
   4  -1  -1  143.36    9.03
   4  -1  -1  166.98    9.24
  -4   1   1  149.69    9.31
  -4   1   1  163.82    9.12
  -4   1   1  161.06    9.26
   3  -1  -1   39.54    2.27
   3  -1  -1   32.38    2.15
   3  -1  -1   36.53    2.23
   3  -1  -1   31.74    2.06
   3  -1  -1   28.95    2.10
   3  -1  -1   35.28    2.02
  -3   1   1   35.86    2.26
  -3   1   1   29.99    2.12
  -3   1   1   37.22    2.22
  -3   1   1   35.87    2.35
   2  -1  -1  144.70    9.24
   2  -1  -1  167.34    9.21
   2  -1  -1  158.16    9.27
   2  -1  -1  185.33    9.32
   2  -1  -1  163.55    9.21
   2  -1  -1  152.21    9.23
  -2   1   1  145.08    9.20
  -2   1   1  163.46    9.24
  -2   1   1  163.14    9.28
  -2   1   1  147.97    9.24
  -2   1   1  171.00    9.34
   1  -1  -1    7.17    0.64
   1  -1  -1    6.11    0.59
   1  -1  -1    6.54    0.61
   1  -1  -1    6.35    0.61
   1  -1  -1    5.27    0.54
  -1   1   1    5.01    0.54
  -1   1   1    4.45    0.50
  -1   1   1    5.52    0.61
  -1   1   1    6.31    0.59
  -1   1   1    5.83    0.57
   0  -1  -1   91.47    5.50
   0  -1  -1   96.29    5.53
   0  -1  -1   89.66    5.43
   0  -1  -1   92.19    5.49
   0  -1  -1  103.60    5.44
   0   1   1   91.97    5.49
   0   1   1   94.04    5.46
   0   1   1   94.09    5.50
   0   1   1   93.13    5.46
  -1  -1  -1  838.86   50.54
  -1  -1  -1  846.46   50.61
  -1  -1  -1  968.93   50.57
  -1  -1  -1  874.10   50.58
  -1  -1  -1  888.79   50.62
  -1  -1  -1  866.11   50.55
   1   1   1  841.06   50.60
   1   1   1  886.98   50.54
   1   1   1  885.05   50.57
   1   1   1  857.21   50.57
   1   1   1 1000.00   50.61
  -2  -1  -1   55.35    3.43
  -2  -1  -1   57.15    3.37
  -2  -1  -1   57.17    3.41
  -2  -1  -1   54.82    3.42
  -2  -1  -1   57.86    3.48
   2   1   1   54.06    3.41
   2   1   1   62.95    3.48
   2   1   1   58.16    3.38
   2   1   1   53.98    3.42
   2   1   1   54.08    3.40
  -3  -1  -1    8.40    0.83
  -3  -1  -1    8.73    0.90
  -3  -1  -1    7.97    0.86
  -3  -1  -1    7.92    0.94
   3   1   1    8.49    0.76
   3   1   1   10.48    0.94
   3   1   1    7.55    0.81
   3   1   1    8.40    0.89
   3   1   1    8.35    0.83
  -4  -1  -1   13.78    1.21
  -4  -1  -1   13.52    1.27
  -4  -1  -1   14.41    1.14
  -4  -1  -1   12.00    1.34
   4   1   1   12.37    1.23
   4   1   1   13.11    1.15
   4   1   1   11.97    1.12
   4   1   1   16.90    1.29
  -5  -1  -1   20.22    1.93
  -5  -1  -1   25.14    1.77
  -5  -1  -1   24.37    1.78
  -5  -1  -1   22.29    1.77
   5   1   1   25.25    1.86
   5   1   1   22.11    1.67
   5   1   1   20.37    1.72
  -6  -1  -1    5.43    0.92
  -6  -1  -1    4.88    1.08
  -6  -1  -1    6.74    0.94
   6   1   1    5.98    1.01
   6   1   1    4.20    0.75
  -7  -1  -1   -0.13    0.71
  -7  -1  -1    0.49    0.87
   7   1   1    0.08    0.50
   7   1   1    1.26    0.77
   7   1   1    0.35    0.64
  -8  -1  -1   39.29    2.65
  -8  -1  -1   32.19    3.00
   8   1   1   36.66    2.88
   8   1   1   36.72    2.62
   8   1   1   38.01    2.93
  -9  -1  -1   31.42    3.08
  -9  -1  -1   39.48    2.61
   9   1   1   34.54    2.65
   9   1   1   35.04    2.96
   9   1   1   36.99    2.99
 -10  -1  -1    1.05    1.20
  10   1   1    1.61    0.81
  10   1   1    0.28    0.86
  10   1   1    1.26    0.90
 -11  -1  -1    2.15    1.37
  11   1   1    0.40    0.92
  11   1   1    3.05    1.11
  11   1   1    1.51    0.89
  11  -2  -1    1.02    0.83
 -11   2   1    0.30    1.24
 -11   2   1    0.57    1.26
  10  -2  -1    0.90    0.50
  10  -2  -1    1.65    0.82
 -10   2   1    0.26    1.19
 -10   2   1    1.81    1.23
   9  -2  -1   12.14    1.58
   9  -2  -1   12.62    1.17
   9  -2  -1   13.34    1.21
  -9   2   1   13.97    2.12
  -9   2   1   10.71    1.70
   8  -2  -1    3.79    0.66
   8  -2  -1    3.89    0.91
   8  -2  -1    4.28    0.68
  -8   2   1    5.07    1.19
  -8   2   1    4.93    1.36
   7  -2  -1   26.01    2.10
   7  -2  -1   27.32    1.80
   7  -2  -1   24.44    1.76
  -7   2   1   26.16    1.90
  -7   2   1   21.66    2.36
  -7   2   1   24.24    2.19
   6  -2  -1    9.45    0.93
   6  -2  -1   10.31    1.31
   6  -2  -1   10.04    1.21
   6  -2  -1   11.21    1.01
  -6   2   1   10.79    1.53
  -6   2   1   11.86    1.37
  -6   2   1   11.48    1.06
   5  -2  -1    3.96    0.59
   5  -2  -1    3.93    0.73
   5  -2  -1    4.02    0.66
   5  -2  -1    3.57    0.71
  -5   2   1    3.21    0.76
  -5   2   1    3.94    0.97
  -5   2   1    3.72    0.59
   4  -2  -1    3.01    0.56
   4  -2  -1    3.84    0.63
   4  -2  -1    4.32    0.70
   4  -2  -1    3.43    0.62
   4  -2  -1    3.67    0.48
  -4   2   1    4.02    0.66
  -4   2   1    2.16    0.63
  -4   2   1    3.85    0.57
  -4   2   1    4.02    0.85
  -4   2   1    3.41    0.64
   3  -2  -1   22.18    1.55
   3  -2  -1   23.68    1.59
   3  -2  -1   23.90    1.67
   3  -2  -1   20.21    1.55
   3  -2  -1   22.70    1.59
   3  -2  -1   21.72    1.54
  -3   2   1   21.58    1.56
  -3   2   1   23.96    1.78
  -3   2   1   23.70    1.62
  -3   2   1   19.17    1.54
  -3   2   1   22.47    1.63
   2  -2  -1    3.11    0.68
   2  -2  -1    4.03    0.62
   2  -2  -1    3.88    0.50
   2  -2  -1    3.65    0.56
   2  -2  -1    3.71    0.59
   2  -2  -1    4.17    0.47
   2  -2  -1    3.31    0.59
  -2   2   1    3.60    0.54
  -2   2   1    3.40    0.55
  -2   2   1    3.87    0.59
  -2   2   1    4.14    0.66
   1  -2  -1   18.66    1.46
   1  -2  -1   20.66    1.48
   1  -2  -1   18.97    1.48
  -1   2   1   20.16    1.31
  -1   2   1   17.74    1.44
  -1   2   1   18.86    1.41
  -1   2   1   20.29    1.37
  -1   2   1   17.82    1.33
  -1   2   1   19.06    1.42
   0  -2  -1    5.70    0.74
   0  -2  -1    5.98    0.75
   0  -2  -1    5.87    0.82
   0   2   1    5.92    0.72
   0   2   1    6.03    0.74
   0   2   1    6.03    0.70
   0   2   1    6.77    0.67
   0   2   1    6.24    0.77
   0   2   1    5.92    0.67
  -1  -2  -1   38.72    2.52
  -1  -2  -1   36.06    2.56
   1   2   1   37.55    2.34
   1   2   1   38.90    2.47
   1   2   1   36.61    2.50
   1   2   1   40.42    2.36
   1   2   1   38.12    2.53
   1   2   1   38.36    2.49
   1   2   1   38.85    2.41
  -2  -2  -1   28.06    1.88
  -2  -2  -1   25.27    1.97
  -2  -2  -1   27.50    1.82
   2   2   1   24.17    1.85
   2   2   1   24.02    1.72
   2   2   1   25.90    1.82
   2   2   1   29.40    1.78
   2   2   1   26.55    1.76
   2   2   1   26.23    1.88
  -3  -2  -1   29.28    2.10
  -3  -2  -1   31.35    2.30
  -3  -2  -1   30.72    2.03
   3   2   1   29.33    2.03
   3   2   1   30.24    2.06
   3   2   1   30.42    2.04
   3   2   1   30.23    2.08
  -4  -2  -1   10.65    1.04
  -4  -2  -1    9.62    0.91
  -4  -2  -1    9.07    1.40
  -4  -2  -1    8.76    1.13
  -4  -2  -1   10.33    1.01
   4   2   1    8.59    0.98
   4   2   1    9.49    1.02
   4   2   1   10.54    1.06
   4   2   1    8.87    0.95
   4   2   1    9.82    1.07
  -5  -2  -1    2.74    0.60
  -5  -2  -1    2.69    0.63
  -5  -2  -1    2.54    0.93
  -5  -2  -1    2.10    0.69
   5   2   1    2.31    0.69
   5   2   1    3.12    0.63
  -6  -2  -1    7.67    1.27
  -6  -2  -1    9.98    1.07
  -6  -2  -1    8.62    1.04
  -6  -2  -1    8.19    1.16
   6   2   1    7.96    1.02
   6   2   1    7.29    1.15
  -7  -2  -1   13.69    1.61
  -7  -2  -1   11.83    1.37
  -7  -2  -1   11.29    1.46
  -7  -2  -1   14.82    1.41
   7   2   1   12.08    1.36
   7   2   1   13.21    1.57
  -8  -2  -1   14.26    1.77
  -8  -2  -1   17.61    1.80
   8   2   1   15.16    1.57
   8   2   1   17.79    2.23
   8   2   1   14.93    1.88
  -9  -2  -1    2.86    1.14
  -9  -2  -1    2.47    1.17
   9   2   1    2.75    1.20
   9   2   1    2.52    1.01
   9   2   1    2.89    0.90
 -10  -2  -1    0.82    1.12
 -10  -2  -1    0.06    1.08
  10   2   1    0.09    0.76
  10   2   1    0.45    1.08
  10   2   1   -0.44    0.76
 -11  -2  -1    9.16    1.78
  11   2   1    9.72    1.88
  11   2   1    8.81    1.46
  11   2   1    8.28    1.69
  10  -3  -1    7.46    1.41
 -10   3   1   10.11    1.75
 -10   3   1    7.91    1.94
   9  -3  -1    7.62    1.31
   9  -3  -1    6.83    0.91
  -9   3   1    4.75    1.34
  -9   3   1    7.86    1.72
   8  -3  -1    6.02    0.86
   8  -3  -1    5.04    1.05
  -8   3   1    4.39    1.37
  -8   3   1    4.62    1.28
   7  -3  -1   -0.97    0.59
   7  -3  -1    0.39    0.51
  -7   3   1    0.86    1.05
  -7   3   1    0.39    0.82
   6  -3  -1    6.04    0.94
   6  -3  -1    3.95    0.78
   6  -3  -1    4.85    0.90
  -6   3   1    6.74    1.16
  -6   3   1    5.01    0.73
  -6   3   1    6.26    1.30
   5  -3  -1    2.95    0.66
   5  -3  -1    4.64    0.87
   5  -3  -1    3.72    0.67
   5  -3  -1    3.01    0.72
   5  -3  -1    3.77    0.82
  -5   3   1    2.91    0.80
  -5   3   1    2.79    0.97
  -5   3   1    3.11    0.61
   4  -3  -1   62.45    3.77
   4  -3  -1   62.11    3.81
   4  -3  -1   60.21    3.99
   4  -3  -1   60.28    3.88
   4  -3  -1   64.15    3.86
   4  -3  -1   65.71    4.01
   4  -3  -1   61.22    3.98
  -4   3   1   59.02    3.84
  -4   3   1   60.27    4.10
  -4   3   1   64.26    3.98
   3  -3  -1   11.36    1.19
   3  -3  -1   13.55    1.21
   3  -3  -1   12.38    1.23
   3  -3  -1   13.05    1.31
   3  -3  -1   13.35    1.31
  -3   3   1   10.44    1.16
  -3   3   1   14.68    1.23
  -3   3   1   11.84    1.34
  -3   3   1   11.02    1.13
   2  -3  -1   30.78    2.24
   2  -3  -1   31.73    2.24
   2  -3  -1   29.26    2.21
  -2   3   1   30.27    2.16
  -2   3   1   29.85    2.14
  -2   3   1   31.99    2.10
  -2   3   1   30.15    2.06
   1  -3  -1    2.50    0.72
   1  -3  -1    3.08    0.68
   1  -3  -1    2.60    0.84
  -1   3   1    2.59    0.48
  -1   3   1    3.06    0.57
  -1   3   1    2.76    0.57
   0  -3  -1    6.72    0.91
   0  -3  -1    6.06    0.89
   0  -3  -1    7.46    1.07
   0   3   1    7.98    0.88
  -1  -3  -1   12.60    1.30
  -1  -3  -1   12.30    1.37
   1   3   1   13.35    1.34
   1   3   1   11.77    0.96
  -2  -3  -1   20.73    1.93
  -2  -3  -1   25.04    1.88
   2   3   1   21.24    1.52
   2   3   1   23.87    1.82
   2   3   1   21.80    1.55
  -3  -3  -1   39.93    2.63
  -3  -3  -1   33.83    2.82
   3   3   1   36.79    2.65
   3   3   1   39.43    2.55
   3   3   1   39.75    2.50
  -4  -3  -1    2.25    1.02
  -4  -3  -1    4.00    0.74
   4   3   1    3.59    0.74
   4   3   1    2.86    0.64
   4   3   1    3.25    0.71
  -5  -3  -1    1.41    0.67
  -5  -3  -1    1.53    1.03
   5   3   1    2.01    0.66
   5   3   1    1.51    0.63
  -6  -3  -1    6.03    1.03
  -6  -3  -1    7.82    1.39
   6   3   1    7.58    1.17
   6   3   1    7.21    1.04
  -7  -3  -1    3.14    0.89
  -7  -3  -1    5.60    1.48
   7   3   1    3.21    0.99
   7   3   1    4.10    0.93
  -8  -3  -1    2.20    0.84
  -8  -3  -1    1.47    1.40
   8   3   1    1.17    0.85
   8   3   1    1.10    0.79
  -9  -3  -1    0.73    0.85
  -9  -3  -1    0.52    1.37
   9   3   1    0.53    0.75
   9   3   1    0.47    1.22
   9   3   1    0.27    0.88
 -10  -3  -1    3.61    1.61
 -10  -3  -1    4.98    1.18
  10   3   1    3.54    1.12
  10   3   1    2.57    1.52
  10   3   1    2.71    1.14
   9  -4  -1    7.63    1.17
   9  -4  -1   11.11    1.72
   9  -4  -1   15.12    1.94
   9  -4  -1   14.24    1.68
  -9   4   1    8.98    1.68
  -9   4   1    9.09    1.86
   8  -4  -1    7.52    1.30
   8  -4  -1    6.81    1.16
   8  -4  -1    9.66    1.51
   8  -4  -1    5.30    1.01
  -8   4   1    6.27    1.66
  -8   4   1    7.89    1.49
   7  -4  -1    4.20    0.89
   7  -4  -1    2.40    0.75
   7  -4  -1    2.30    1.01
   7  -4  -1    3.85    1.09
  -7   4   1    4.02    1.17
  -7   4   1    3.85    1.35
   6  -4  -1   22.54    2.15
   6  -4  -1   19.73    1.88
   6  -4  -1   25.51    1.81
   6  -4  -1   23.76    2.16
  -6   4   1   22.40    2.13
  -6   4   1   24.20    2.41
   5  -4  -1    0.31    0.64
   5  -4  -1    0.84    0.78
   5  -4  -1    0.54    0.83
  -5   4   1    0.95    0.75
  -5   4   1    0.50    0.93
   4  -4  -1    3.31    0.92
   4  -4  -1    3.11    0.97
   4  -4  -1    3.57    0.87
  -4   4   1    2.94    0.85
  -4   4   1    3.15    0.93
  -4   4   1    1.63    0.71
   3  -4  -1   10.07    1.31
   3  -4  -1    8.52    1.23
   3  -4  -1    7.33    1.17
  -3   4   1    7.18    1.10
  -3   4   1    6.31    1.04
  -3   4   1    7.50    1.08
   2  -4  -1    7.93    1.26
   2  -4  -1    7.85    1.17
   2  -4  -1    9.21    1.25
  -2   4   1    9.84    1.11
  -2   4   1    8.80    1.15
  -2   4   1    7.71    0.97
   1  -4  -1    1.06    0.72
   1  -4  -1    1.92    0.85
   1  -4  -1    0.71    0.87
  -1   4   1    2.06    0.60
  -1   4   1    0.99    0.48
  -1   4   1    0.57    0.57
   0  -4  -1    2.79    1.02
   0  -4  -1    1.29    0.76
   0  -4  -1    1.08    0.84
   0   4   1    1.63    0.51
   0   4   1    2.45    0.70
  -1  -4  -1   17.87    1.69
  -1  -4  -1   12.91    1.68
   1   4   1   16.52    1.76
   1   4   1   14.15    1.44
   1   4   1   14.10    1.18
  -2  -4  -1   -1.11    0.93
  -2  -4  -1   -0.40    0.89
   2   4   1    1.14    0.76
  -3  -4  -1   39.24    3.34
   3   4   1   46.05    2.87
   3   4   1   48.63    3.21
   3   4   1   42.92    2.90
  -4  -4  -1    4.64    0.98
  -4  -4  -1    6.46    1.54
   4   4   1    5.30    0.84
   4   4   1    4.81    0.98
  -5  -4  -1   14.05    1.60
  -5  -4  -1   14.86    2.01
   5   4   1   16.09    1.58
   5   4   1   15.79    1.67
  -6  -4  -1    3.49    1.50
  -6  -4  -1    7.04    1.11
   6   4   1    4.43    1.04
   6   4   1    4.57    0.98
  -7  -4  -1   -1.28    1.42
  -7  -4  -1   -0.50    0.72
   7   4   1    0.28    0.82
   7   4   1   -0.25    0.64
  -8  -4  -1    0.02    0.84
  -8  -4  -1    1.48    1.45
   8   4   1    1.10    0.88
   7  -5  -1    7.62    1.57
   7  -5  -1    6.82    1.45
  -7   5   1    6.08    1.70
  -7   5   1    6.91    1.41
   6  -5  -1    4.27    1.17
   6  -5  -1    2.62    1.16
  -6   5   1    1.44    0.99
  -6   5   1   -0.85    1.21
   5  -5  -1   12.43    1.72
   5  -5  -1   10.15    1.60
  -5   5   1   10.27    1.48
   4  -5  -1    2.24    1.05
   4  -5  -1    1.87    1.08
  -4   5   1    3.07    0.97
   3  -5  -1    1.75    1.03
   3  -5  -1   -1.52    0.90
  -3   5   1    1.87    0.87
   2  -5  -1   18.30    2.01
   2  -5  -1   13.85    1.88
   2  -5  -1   18.49    2.06
  -2   5   1   16.69    1.68
   1  -5  -1   15.39    1.85
   1  -5  -1   13.10    1.74
   1  -5  -1   11.03    1.67
  -1   5   1   14.63    1.55
   0  -5  -1   26.87    2.60
   0  -5  -1   30.52    2.60
   0   5   1   29.45    2.79
   0   5   1   29.61    2.33
  -1  -5  -1    6.05    1.50
  -1  -5  -1    8.40    1.50
   1   5   1    7.76    1.45
   1   5   1    9.06    1.27
  -2  -5  -1    5.35    1.45
   2   5   1    7.09    1.18
   2   5   1    6.92    1.36
  -3  -5  -1    4.40    1.45
   3   5   1    3.57    1.10
  -4  -5  -1   11.98    1.95
   4   5   1   13.69    1.74
  -5  -5  -1    7.61    1.88
   5   5   1    8.08    1.38
  -6  -5  -1    3.95    1.71
   6   5   1    1.63    0.92
   2  -6  -1    5.31    1.49
   2  -6  -1    4.75    1.60
   1  -6  -1   27.67    2.93
  -1   6   1   31.53    3.15
   0  -6  -1    5.00    1.57
   0  -6  -1    5.32    1.59
   0   6   1    6.06    1.70
  -1  -6  -1   10.15    1.96
  -1  -6  -1   12.54    1.99
   1   6   1   16.41    2.28
   2   6  -2    3.45    1.55
   1   6  -2    2.59    1.48
   1   6  -2    6.18    1.34
   7   5  -2    7.94    2.21
   7   5  -2    9.72    1.44
  -7  -5   2    8.43    1.46
   6   5  -2   -2.02    1.27
   6   5  -2    0.08    0.68
  -6  -5   2   -0.09    0.88
   5   5  -2   22.78    2.05
   5   5  -2   18.97    2.80
   4   5  -2    2.00    1.31
   4   5  -2    3.50    1.03
   3   5  -2    1.58    1.25
   3   5  -2    1.15    1.06
   3   5  -2    2.72    1.05
   2   5  -2   16.90    1.91
   2   5  -2    9.39    1.77
   2   5  -2   13.04    1.74
   1   5  -2    7.76    1.51
   1   5  -2    7.61    1.42
   0   5  -2   53.74    3.86
   0  -5   2   50.20    4.07
   0  -5   2   54.28    3.78
  -1   5  -2    2.65    1.10
  -1   5  -2    3.30    1.06
   1  -5   2    3.04    1.03
   1  -5   2    3.48    1.06
  -2   5  -2    2.30    1.05
   2  -5   2    3.51    1.24
   2  -5   2    1.39    0.90
   2  -5   2    2.29    1.06
  -3   5  -2    3.41    1.12
   3  -5   2    2.59    1.04
   3  -5   2    2.77    1.18
   3  -5   2    4.26    1.13
  -4   5  -2    5.70    1.41
   4  -5   2    6.94    1.37
   4  -5   2    3.81    1.10
   4  -5   2    3.90    1.11
  -5   5  -2    2.68    1.29
   5  -5   2    1.25    1.04
   5  -5   2    0.61    0.89
   5  -5   2    0.55    0.96
   9   4  -2   27.87    2.34
   9   4  -2   28.73    3.31
  -9  -4   2   29.43    2.59
   8   4  -2   26.44    3.29
   8   4  -2   25.82    2.19
  -8  -4   2   30.11    2.51
   7   4  -2    6.74    1.03
   7   4  -2    5.51    1.63
  -7  -4   2    7.49    1.21
   6   4  -2   11.54    2.05
   6   4  -2   12.51    1.53
   6   4  -2   12.25    1.34
  -6  -4   2   12.81    1.54
   5   4  -2    0.37    1.09
   5   4  -2   -0.36    0.50
  -5  -4   2   -0.73    0.66
   4   4  -2    1.37    0.67
   4   4  -2    0.02    1.02
  -4  -4   2    1.17    0.71
   3   4  -2    1.14    0.99
   3   4  -2    1.02    0.69
   2   4  -2    9.90    1.57
   1   4  -2   19.26    1.91
  -1  -4   2   13.28    1.51
  -1  -4   2   19.59    1.76
   0   4  -2   32.45    2.54
   0  -4   2   33.10    2.51
   0  -4   2   30.72    2.38
   0  -4   2   28.91    2.37
  -1   4  -2   29.42    2.42
  -1   4  -2   32.08    2.37
  -1   4  -2   28.26    2.09
  -1   4  -2   30.17    2.16
   1  -4   2   37.52    2.56
   1  -4   2   32.28    2.37
   1  -4   2   27.93    2.34
  -2   4  -2    0.55    0.65
  -2   4  -2   -0.03    0.77
  -2   4  -2    1.70    0.66
   2  -4   2    2.23    0.82
   2  -4   2    0.77    0.74
   2  -4   2    1.61    0.76
  -3   4  -2    5.66    1.15
  -3   4  -2    4.88    1.04
   3  -4   2    4.32    0.91
   3  -4   2    8.34    1.23
   3  -4   2    7.04    1.03
  -4   4  -2   17.47    1.96
  -4   4  -2   15.47    1.73
   4  -4   2   13.69    1.50
   4  -4   2   17.13    1.72
   4  -4   2   15.72    1.64
  -5   4  -2    8.71    1.46
  -5   4  -2    6.16    1.34
   5  -4   2    8.45    1.21
   5  -4   2    9.31    1.40
   5  -4   2    6.08    1.04
  -6   4  -2    2.55    1.27
  -6   4  -2    2.88    1.18
   6  -4   2    1.22    0.74
   6  -4   2    1.40    0.78
   6  -4   2    2.08    1.02
  -7   4  -2    4.41    1.55
  -7   4  -2    1.24    1.19
   7  -4   2    2.70    0.92
   7  -4   2    4.12    1.20
   7  -4   2    2.08    0.85
  -8   4  -2    9.09    1.81
  -8   4  -2    9.94    2.07
   8  -4   2   11.44    1.46
   8  -4   2   13.12    1.85
  11   3  -2    1.12    0.86
  11   3  -2    0.28    0.83
  11   3  -2    3.25    1.40
 -11  -3   2    0.11    1.05
  10   3  -2    5.73    1.26
  10   3  -2    6.50    1.11
  10   3  -2    5.99    1.62
 -10  -3   2    7.51    1.34
   9   3  -2    5.38    1.58
   9   3  -2    4.68    1.15
   9   3  -2    4.86    0.93
  -9  -3   2    6.00    1.17
   8   3  -2    2.75    1.28
   8   3  -2    3.02    0.93
   8   3  -2    3.61    0.74
  -8  -3   2    2.17    0.85
   7   3  -2   20.45    1.61
   7   3  -2   20.48    2.45
   7   3  -2   18.61    1.80
  -7  -3   2   20.88    1.81
   6   3  -2   16.75    1.46
   6   3  -2   19.09    2.29
   6   3  -2   19.25    1.60
  -6  -3   2   18.66    1.68
   5   3  -2    5.58    1.31
   5   3  -2    7.91    0.89
   5   3  -2    7.55    0.90
   5   3  -2    7.46    0.90
  -5  -3   2    8.03    1.05
   4   3  -2   21.56    1.61
   4   3  -2   20.74    1.44
   4   3  -2   22.60    2.19
  -4  -3   2   19.13    1.71
   3   3  -2   77.25    4.97
   3   3  -2   74.30    4.60
  -3  -3   2   72.55    4.67
   2   3  -2   55.40    3.73
  -2  -3   2   53.33    3.50
  -2  -3   2   54.24    3.53
   1   3  -2    9.91    1.25
  -1  -3   2    9.02    1.05
  -1  -3   2    8.62    1.07
   0   3  -2   30.98    2.40
   0  -3   2   31.40    2.29
   0  -3   2   34.48    2.32
   0  -3   2   34.04    2.39
  -1   3  -2   19.85    1.55
  -1   3  -2   21.91    1.67
  -1   3  -2   22.72    1.88
  -1   3  -2   22.20    1.61
   1  -3   2   22.24    1.78
   1  -3   2   23.13    1.72
   1  -3   2   22.01    1.72
  -2   3  -2    4.42    0.81
  -2   3  -2    5.56    0.80
  -2   3  -2    6.07    0.91
  -2   3  -2    5.36    0.67
  -2   3  -2    5.18    0.97
   2  -3   2    5.73    0.90
   2  -3   2    4.95    0.77
   2  -3   2    5.72    0.81
  -3   3  -2    0.39    0.65
  -3   3  -2    0.52    0.58
  -3   3  -2    1.37    0.75
   3  -3   2    0.98    0.56
   3  -3   2    1.10    0.60
   3  -3   2    0.40    0.54
  -4   3  -2    2.04    0.66
  -4   3  -2    3.31    0.96
  -4   3  -2    5.65    1.12
   4  -3   2    4.78    0.84
   4  -3   2    4.65    0.75
   4  -3   2    5.19    0.96
   4  -3   2    5.01    0.73
  -5   3  -2    1.30    0.85
  -5   3  -2    1.25    0.60
  -5   3  -2    0.55    0.88
   5  -3   2    0.00    0.58
   5  -3   2    0.49    0.56
   5  -3   2    0.88    0.57
  -6   3  -2   28.33    2.82
  -6   3  -2   29.74    2.72
   6  -3   2   34.56    2.32
   6  -3   2   33.56    2.43
   6  -3   2   35.81    2.52
  -7   3  -2    0.23    1.08
  -7   3  -2    0.78    1.11
   7  -3   2   -0.57    0.65
   7  -3   2   -0.70    0.63
   7  -3   2    0.03    0.55
  -8   3  -2    3.20    1.42
  -8   3  -2    6.28    1.41
   8  -3   2    3.09    0.99
   8  -3   2    5.50    0.99
  -9   3  -2    1.58    1.41
  -9   3  -2    2.49    1.44
   9  -3   2    1.91    0.80
   9  -3   2    2.10    0.93
  12   2  -2    3.62    1.31
  12   2  -2    5.05    1.07
  12   2  -2    3.50    1.14
 -12  -2   2    5.74    1.42
  11   2  -2    9.05    1.69
  11   2  -2    8.88    1.22
  11   2  -2    7.14    1.46
 -11  -2   2    6.06    1.31
  10   2  -2    1.33    0.81
  10   2  -2    1.84    1.07
  10   2  -2    2.02    0.70
 -10  -2   2    1.48    0.94
   9   2  -2   32.32    2.55
   9   2  -2   28.15    2.75
   9   2  -2   28.79    2.15
  -9  -2   2   28.99    2.42
   8   2  -2    4.18    0.97
   8   2  -2    4.24    0.71
   8   2  -2    4.49    0.69
   8   2  -2    6.36    1.31
  -8  -2   2    3.37    0.79
  -8  -2   2    4.85    0.97
   7   2  -2   33.89    2.44
   7   2  -2   31.87    2.74
   7   2  -2   34.50    2.19
   7   2  -2   28.65    2.11
  -7  -2   2   30.71    2.33
  -7  -2   2   32.25    2.29
  -7  -2   2   32.50    2.23
  -7  -2   2   31.16    2.17
   6   2  -2   19.59    1.53
   6   2  -2   22.43    2.08
   6   2  -2   21.03    1.75
   6   2  -2   21.88    1.56
  -6  -2   2   23.54    1.59
  -6  -2   2   22.85    1.63
  -6  -2   2   24.45    1.77
  -6  -2   2   20.15    1.51
   5   2  -2    7.98    0.92
   5   2  -2    7.92    0.91
   5   2  -2    7.71    0.83
   5   2  -2    7.65    0.78
   5   2  -2    7.26    1.19
  -5  -2   2    7.44    0.94
  -5  -2   2    7.62    0.83
   4   2  -2    3.13    0.52
   4   2  -2    2.75    0.63
   4   2  -2    2.66    0.52
   4   2  -2    3.22    0.54
   4   2  -2    2.86    0.81
   4   2  -2    3.36    0.49
  -4  -2   2    2.82    0.60
   3   2  -2   70.38    4.23
   3   2  -2   69.15    4.32
   3   2  -2   65.14    4.24
   3   2  -2   68.67    4.20
   3   2  -2   73.57    4.29
   3   2  -2   69.25    4.12
   3   2  -2   75.15    4.53
   3   2  -2   72.46    4.27
  -3  -2   2   68.94    4.29
   2   2  -2   92.55    5.36
   2   2  -2   90.58    5.51
   2   2  -2   89.91    5.42
   2   2  -2   84.53    5.33
   2   2  -2   95.22    5.34
   2   2  -2   90.43    5.38
  -2  -2   2   86.65    5.37
  -2  -2   2   86.99    5.34
   1   2  -2   33.68    2.23
   1   2  -2   39.13    2.27
   1   2  -2   34.44    2.22
   1   2  -2   34.25    2.19
   1   2  -2   34.07    2.32
   1   2  -2   34.72    2.27
  -1  -2   2   34.02    2.26
  -1  -2   2   32.72    2.27
  -1  -2   2   30.39    2.23
   0   2  -2  130.80    7.69
   0   2  -2  127.98    7.81
   0   2  -2  134.40    7.58
   0   2  -2  133.27    7.68
   0   2  -2  128.77    7.71
   0   2  -2  134.92    7.71
   0   2  -2  133.54    7.74
   0   2  -2  134.87    7.74
   0  -2   2  132.54    7.68
   0  -2   2  119.97    7.68
   0  -2   2  129.81    7.74
  -1   2  -2   49.64    3.06
  -1   2  -2   50.85    3.02
  -1   2  -2   47.76    2.95
  -1   2  -2   50.53    3.02
  -1   2  -2   48.16    3.05
  -1   2  -2   46.34    3.17
   1  -2   2   48.16    3.10
   1  -2   2   45.70    3.15
   1  -2   2   49.01    3.08
   1  -2   2   49.60    3.02
  -2   2  -2   87.51    5.43
  -2   2  -2   92.22    5.38
  -2   2  -2   92.91    5.52
  -2   2  -2   92.29    5.55
   2  -2   2   91.37    5.34
   2  -2   2   87.59    5.52
   2  -2   2   86.69    5.40
   2  -2   2   89.87    5.34
  -3   2  -2    2.53    0.53
  -3   2  -2    1.03    0.67
  -3   2  -2    2.66    0.67
  -3   2  -2    1.35    0.69
   3  -2   2    2.60    0.52
   3  -2   2    2.38    0.54
   3  -2   2    2.43    0.60
   3  -2   2    2.64    0.55
  -4   2  -2   39.36    2.73
  -4   2  -2   36.56    2.35
  -4   2  -2   31.47    2.68
   4  -2   2   41.02    2.58
   4  -2   2   33.44    2.48
   4  -2   2   38.95    2.39
   4  -2   2   38.26    2.57
  -5   2  -2    0.93    0.81
  -5   2  -2    0.68    0.80
  -5   2  -2    0.46    0.44
   5  -2   2    1.62    0.63
   5  -2   2    1.35    0.61
   5  -2   2    1.06    0.57
   5  -2   2    1.12    0.46
  -6   2  -2   16.00    1.87
  -6   2  -2   13.87    1.83
  -6   2  -2   16.46    1.18
   6  -2   2   17.27    1.52
   6  -2   2   17.14    1.64
  -7   2  -2   40.58    3.57
  -7   2  -2   44.90    3.46
   7  -2   2   46.37    3.06
   7  -2   2   47.45    3.29
  -8   2  -2    0.86    1.15
  -8   2  -2    0.91    1.14
   8  -2   2    0.94    0.65
   8  -2   2    0.90    0.71
  -9   2  -2    0.59    1.27
  -9   2  -2   -0.22    1.24
   9  -2   2   -1.60    0.56
   9  -2   2   -0.39    0.71
 -10   2  -2    0.60    1.35
 -10   2  -2    0.86    1.33
  10  -2   2    0.57    0.85
  10  -2   2    1.75    0.75
  12   1  -2    4.29    1.19
  12   1  -2    2.31    1.06
 -12  -1   2    3.50    1.39
  11   1  -2   12.39    1.70
  11   1  -2    8.54    1.45
 -11  -1   2   11.97    1.89
  10   1  -2   17.46    1.91
  10   1  -2   11.75    1.71
 -10  -1   2   13.73    1.94
   9   1  -2    6.80    0.93
   9   1  -2    6.25    1.19
   9   1  -2    6.37    1.19
  -9  -1   2    7.84    1.40
   8   1  -2   38.70    2.51
   8   1  -2   38.47    2.82
   8   1  -2   34.72    2.45
   8   1  -2   41.29    2.91
  -8  -1   2   37.21    2.96
   7   1  -2   14.13    1.15
   7   1  -2   16.31    1.47
   7   1  -2   13.33    1.48
   7   1  -2   12.68    1.15
  -7  -1   2   16.46    1.66
  -7  -1   2   13.71    1.21
  -7  -1   2   13.56    1.38
   6   1  -2   21.19    1.65
   6   1  -2   18.88    1.71
   6   1  -2   19.29    1.43
   6   1  -2   17.25    1.82
   6   1  -2   20.18    1.39
  -6  -1   2   19.25    1.58
  -6  -1   2   20.95    1.42
  -6  -1   2   19.02    1.76
   5   1  -2   21.72    1.60
   5   1  -2   20.24    1.74
   5   1  -2   20.25    1.60
   5   1  -2   19.25    1.47
   5   1  -2   20.50    1.36
   5   1  -2   21.71    1.40
  -5  -1   2   20.74    1.39
  -5  -1   2   21.07    1.56
  -5  -1   2   20.71    1.69
   4   1  -2  164.09    9.81
   4   1  -2  159.77    9.95
   4   1  -2  170.69    9.72
   4   1  -2  174.90    9.86
   4   1  -2  180.28    9.88
   4   1  -2  163.27    9.71
  -4  -1   2  172.79    9.81
  -4  -1   2  160.10    9.72
  -4  -1   2  172.97    9.84
   3   1  -2   37.97    2.31
   3   1  -2   37.57    2.33
   3   1  -2   37.94    2.30
   3   1  -2   35.98    2.45
   3   1  -2   34.09    2.18
   3   1  -2   38.47    2.23
  -3  -1   2   36.02    2.27
  -3  -1   2   37.92    2.25
  -3  -1   2   35.22    2.21
  -3  -1   2   35.59    2.46
   2   1  -2    8.05    0.97
   2   1  -2   10.19    0.76
   2   1  -2   10.11    0.75
   2   1  -2    8.31    0.75
  -2  -1   2    8.96    0.98
  -2  -1   2    9.44    0.83
  -2  -1   2    9.06    0.85
   1   1  -2  275.38   16.60
   1   1  -2  293.60   16.60
   1   1  -2  284.28   16.65
   1   1  -2  310.94   16.70
   1   1  -2  283.97   16.64
  -1  -1   2  289.45   16.65
  -1  -1   2  296.05   16.64
  -1  -1   2  285.37   16.65
  -1  -1   2  293.34   16.69
   0   1  -2  428.42   25.14
   0   1  -2  440.06   25.19
   0   1  -2  432.99   25.15
   0   1  -2  434.99   25.19
   0   1  -2  435.48   25.27
   0   1  -2  466.55   25.18
   0  -1   2  424.77   25.18
   0  -1   2  438.71   25.16
   0  -1   2  437.62   25.15
   0  -1   2  461.60   25.14
  -1   1  -2  351.08   20.29
  -1   1  -2  359.33   20.24
  -1   1  -2  369.20   20.21
  -1   1  -2  352.58   20.26
  -1   1  -2  342.66   20.12
  -1   1  -2  335.28   20.10
   1  -1   2  350.40   20.12
   1  -1   2  348.14   20.28
   1  -1   2  361.44   20.21
  -2   1  -2    6.31    0.71
  -2   1  -2    5.88    0.79
  -2   1  -2    4.74    0.79
  -2   1  -2    5.97    0.80
   2  -1   2    7.56    0.82
   2  -1   2    6.46    0.80
   2  -1   2    5.71    0.57
   2  -1   2    6.65    0.74
  -3   1  -2  289.80   17.48
  -3   1  -2  295.70   17.55
  -3   1  -2  294.13   17.39
  -3   1  -2  301.99   17.48
   3  -1   2  307.08   17.44
   3  -1   2  336.21   17.54
   3  -1   2  283.20   17.44
  -4   1  -2    9.53    1.79
  -4   1  -2    6.66    1.10
  -4   1  -2    7.19    1.01
   4  -1   2   10.49    1.19
   4  -1   2    8.61    1.00
   4  -1   2    7.44    0.67
  -5   1  -2    0.98    0.73
  -5   1  -2   -0.44    0.62
   5  -1   2    0.68    0.55
   5  -1   2    0.39    0.32
  -6   1  -2    7.70    1.32
  -6   1  -2    6.96    1.17
   6  -1   2    7.53    0.78
   6  -1   2    7.22    1.10
  -7   1  -2    0.13    0.91
  -7   1  -2   -0.46    0.38
  -7   1  -2   -0.84    0.83
   7  -1   2   -0.93    0.50
   7  -1   2    0.22    0.40
  -8   1  -2   22.14    2.61
  -8   1  -2   27.60    2.53
   8  -1   2   26.55    1.89
   8  -1   2   28.35    2.38
  -9   1  -2   27.34    3.13
  -9   1  -2   35.98    3.02
   9  -1   2   32.58    2.75
 -10   1  -2    7.14    1.75
 -10   1  -2    3.67    1.57
  10  -1   2    8.55    1.48
 -11   1  -2    2.75    1.53
 -11   1  -2    3.54    1.61
  11  -1   2    2.61    1.06
  12   0  -2   -0.17    0.76
  12   0  -2   -1.05    0.69
 -12   0   2    1.85    1.40
  11   0  -2   -0.82    0.64
  11   0  -2   -0.74    0.65
 -11   0   2    1.49    1.22
  10   0  -2    9.32    1.33
  10   0  -2    8.47    1.40
 -10   0   2   10.42    1.78
   9   0  -2    0.80    0.67
   9   0  -2    1.15    0.65
  -9   0   2    1.24    1.11
   8   0  -2    0.06    0.52
   8   0  -2    0.46    0.58
  -8   0   2    1.06    0.89
   7   0  -2    0.18    0.51
   7   0  -2    0.30    0.24
   7   0  -2   -0.21    0.44
  -7   0   2    0.76    0.43
  -7   0   2   -0.49    0.71
   6   0  -2  110.67    6.79
   6   0  -2  129.40    7.17
   6   0  -2  112.47    6.53
   6   0  -2  114.02    6.84
   6   0  -2  118.37    6.88
  -6   0   2  112.19    6.84
  -6   0   2   99.12    6.92
  -6   0   2  110.00    6.85
  -6   0   2  110.30    6.66
   5   0  -2   79.69    4.76
   5   0  -2   75.98    4.50
   5   0  -2   72.60    4.70
   5   0  -2   87.32    4.81
   5   0  -2   73.50    4.66
  -5   0   2   74.00    4.85
  -5   0   2   77.69    4.76
  -5   0   2   78.58    4.59
  -5   0   2   73.57    4.75
   4   0  -2   65.96    3.79
   4   0  -2   60.91    3.76
   4   0  -2   56.81    3.73
   4   0  -2   59.09    3.68
  -4   0   2   60.27    3.86
  -4   0   2   64.39    3.61
  -4   0   2   57.51    3.75
  -4   0   2   59.58    3.76
   3   0  -2   53.23    2.95
   3   0  -2   42.44    2.90
   3   0  -2   47.98    2.92
  -3   0   2   45.95    2.92
  -3   0   2   46.08    2.91
  -3   0   2   45.06    2.99
   2   0  -2  159.02    8.64
   2   0  -2  136.82    8.62
   2   0  -2  156.17    8.63
  -2   0   2  145.44    8.64
  -2   0   2  145.91    8.62
  -2   0   2  148.74    8.64
   1   0  -2  313.06   17.11
   1   0  -2  316.08   17.20
   1   0  -2  298.87   17.19
   1   0  -2  271.06   17.17
  -1   0   2  285.19   17.18
  -1   0   2  295.99   17.18
  -1   0   2  316.69   17.10
   0   0  -2  253.46   14.60
   0   0  -2  254.22   14.64
   0   0  -2  242.65   14.57
   0   0   2  257.79   14.65
   0   0   2  255.46   14.62
   0   0   2  259.55   14.58
   0   0   2  262.56   14.61
   0   0   2  251.55   14.63
  -1   0  -2  406.15   24.38
  -1   0  -2  402.09   24.33
  -1   0  -2  432.77   24.31
  -1   0  -2  421.60   24.29
   1   0   2  450.19   24.39
   1   0   2  436.16   24.31
   1   0   2  422.72   24.29
  -2   0  -2    0.42    0.44
  -2   0  -2    0.35    0.46
  -2   0  -2    0.55    0.34
  -2   0  -2    0.02    0.41
   2   0   2    0.33    0.40
   2   0   2    0.12    0.32
   2   0   2   -0.04    0.32
   2   0   2    0.37    0.33
  -3   0  -2   11.67    1.18
  -3   0  -2   12.33    1.25
  -3   0  -2   11.92    1.23
  -3   0  -2   13.43    1.10
   3   0   2   16.16    1.27
   3   0   2   13.71    1.10
   3   0   2   12.05    1.08
   3   0   2   12.75    1.17
  -4   0  -2    7.20    1.07
  -4   0  -2    8.06    1.05
  -4   0  -2    8.50    1.06
  -4   0  -2    6.82    0.84
   4   0   2    9.11    0.91
   4   0   2    9.70    1.04
   4   0   2    7.08    0.85
   4   0   2    6.99    0.96
  -5   0  -2    6.87    1.04
  -5   0  -2    4.49    0.91
   5   0   2    7.00    0.93
   5   0   2    6.13    0.80
  -6   0  -2    5.26    0.79
  -6   0  -2    4.71    0.96
  -6   0  -2    3.03    0.97
   6   0   2    3.91    0.74
   6   0   2    4.02    0.88
  -7   0  -2    2.24    0.65
  -7   0  -2    0.78    0.86
  -7   0  -2    2.23    1.00
   7   0   2    2.33    0.75
   7   0   2    2.25    0.79
   7   0   2    0.80    0.60
  -8   0  -2   56.28    3.93
  -8   0  -2   55.91    3.36
  -8   0  -2   47.34    4.03
   8   0   2   52.16    3.83
   8   0   2   50.89    3.58
   8   0   2   53.11    3.58
  -9   0  -2   24.07    2.38
  -9   0  -2   17.17    2.33
   9   0   2   21.36    2.22
   9   0   2   18.49    1.87
   9   0   2   20.50    1.87
 -10   0  -2   43.53    3.55
 -10   0  -2   36.01    3.60
  10   0   2   40.66    3.11
  10   0   2   39.66    3.33
 -11   0  -2    2.40    1.49
  11   0   2    1.98    1.06
  12  -1  -2    2.28    0.96
 -12   1   2    4.62    1.65
  11  -1  -2    9.34    1.44
  11  -1  -2   12.97    1.47
 -11   1   2   10.83    1.94
  10  -1  -2   13.11    1.44
  10  -1  -2   16.49    1.10
  10  -1  -2   10.37    1.53
 -10   1   2    9.60    1.80
   9  -1  -2    4.59    1.01
   9  -1  -2    6.72    0.99
   9  -1  -2    6.33    0.64
  -9   1   2    5.74    1.33
  -9   1   2    3.65    1.20
   8  -1  -2   37.12    2.45
   8  -1  -2   32.94    2.57
   8  -1  -2   34.24    2.12
  -8   1   2   31.87    2.71
  -8   1   2   34.81    2.57
  -8   1   2   31.19    2.86
   7  -1  -2   13.46    0.96
   7  -1  -2   12.78    1.22
   7  -1  -2   14.17    1.39
  -7   1   2   13.96    1.38
  -7   1   2   10.02    1.44
  -7   1   2   13.80    1.55
   6  -1  -2   16.55    1.46
   6  -1  -2   18.43    1.58
   6  -1  -2   17.70    1.69
   6  -1  -2   17.18    1.44
   6  -1  -2   19.14    1.21
  -6   1   2   17.96    1.43
  -6   1   2   19.02    1.66
  -6   1   2   20.63    1.54
  -6   1   2   16.79    1.77
   5  -1  -2   20.73    1.60
   5  -1  -2   18.10    1.46
   5  -1  -2   19.24    1.57
   5  -1  -2   21.22    1.26
   5  -1  -2   17.66    1.43
  -5   1   2   17.83    1.60
  -5   1   2   21.65    1.53
  -5   1   2   18.34    1.76
  -5   1   2   20.60    1.67
   4  -1  -2  148.97    9.62
   4  -1  -2  171.93    9.49
   4  -1  -2  183.38    9.77
   4  -1  -2  163.40    9.69
   4  -1  -2  165.74    9.61
  -4   1   2  163.45    9.80
  -4   1   2  160.57    9.63
  -4   1   2  163.57    9.72
   3  -1  -2   36.85    2.46
   3  -1  -2   39.86    2.36
   3  -1  -2   42.23    2.52
   3  -1  -2   34.52    2.42
  -3   1   2   40.41    2.42
  -3   1   2   36.80    2.31
  -3   1   2   38.50    2.48
  -3   1   2   37.39    2.44
   2  -1  -2    9.71    0.71
   2  -1  -2    8.13    0.81
   2  -1  -2    8.49    0.91
   2  -1  -2   10.06    0.90
   2  -1  -2    9.09    0.91
  -2   1   2    9.47    1.05
  -2   1   2    8.94    0.91
  -2   1   2    8.92    0.91
  -2   1   2   10.70    0.76
   1  -1  -2  293.52   17.18
   1  -1  -2  310.38   17.18
   1  -1  -2  286.58   17.14
  -1   1   2  290.47   17.18
  -1   1   2  286.06   17.13
  -1   1   2  304.56   17.20
  -1   1   2  322.54   17.25
   0  -1  -2  387.06   24.52
   0  -1  -2  418.43   24.54
   0  -1  -2  435.61   24.50
   0  -1  -2  448.82   24.52
   0   1   2  465.05   24.40
   0   1   2  428.10   24.49
   0   1   2  410.76   24.53
   0   1   2  441.69   24.53
   0   1   2  416.23   24.43
  -1  -1  -2  324.49   19.72
  -1  -1  -2  341.99   19.68
  -1  -1  -2  342.40   19.61
  -1  -1  -2  334.75   19.58
  -1  -1  -2  342.62   19.63
  -1  -1  -2  337.37   19.70
   1   1   2  358.40   19.61
   1   1   2  383.36   19.75
   1   1   2  322.86   19.68
   1   1   2  334.07   19.68
   1   1   2  347.46   19.63
  -2  -1  -2    4.79    0.74
  -2  -1  -2    5.84    0.72
  -2  -1  -2    6.04    0.69
  -2  -1  -2    6.31    0.74
  -2  -1  -2    6.07    0.57
   2   1   2    5.21    0.67
   2   1   2    8.88    0.88
   2   1   2    7.14    0.68
   2   1   2    4.77    0.68
   2   1   2    7.32    0.65
  -3  -1  -2  301.35   17.18
  -3  -1  -2  282.00   17.23
  -3  -1  -2  318.96   17.17
  -3  -1  -2  295.91   17.16
  -3  -1  -2  312.27   17.17
   3   1   2  297.44   17.14
   3   1   2  278.00   17.20
   3   1   2  299.96   17.05
   3   1   2  285.81   17.13
  -4  -1  -2    7.58    1.03
  -4  -1  -2    7.62    0.94
  -4  -1  -2    8.25    0.97
  -4  -1  -2    7.40    1.00
  -4  -1  -2    6.26    0.83
   4   1   2    8.51    0.91
   4   1   2    8.49    1.09
   4   1   2    7.74    0.87
   4   1   2    7.32    0.71
   4   1   2    7.09    0.97
  -5  -1  -2    0.72    0.68
  -5  -1  -2    1.12    0.72
  -5  -1  -2    0.64    0.58
  -5  -1  -2    1.97    0.74
   5   1   2    1.02    0.51
   5   1   2    0.42    0.54
   5   1   2    1.24    0.35
  -6  -1  -2    6.87    1.22
  -6  -1  -2    7.76    1.15
  -6  -1  -2    7.58    1.05
   6   1   2    6.52    1.07
   6   1   2    6.30    0.71
   6   1   2    5.59    0.88
  -7  -1  -2   -0.67    0.80
  -7  -1  -2   -0.23    0.93
   7   1   2   -0.69    0.49
   7   1   2   -0.30    0.58
  -8  -1  -2   24.39    2.69
  -8  -1  -2   32.35    2.37
   8   1   2   30.55    2.60
   8   1   2   31.72    2.65
   8   1   2   29.26    2.31
  -9  -1  -2   37.64    3.35
  -9  -1  -2   40.58    2.79
   9   1   2   38.12    3.12
   9   1   2   37.69    2.82
   9   1   2   34.94    3.09
 -10  -1  -2    7.13    1.67
  10   1   2    8.69    1.52
  10   1   2    7.67    1.49
  10   1   2    8.11    1.37
 -11  -1  -2    4.37    1.62
  11   1   2    3.06    1.25
  11   1   2    3.91    1.19
  11   1   2    4.49    1.18
  12  -2  -2    3.57    1.09
 -12   2   2    2.92    1.67
  11  -2  -2    5.52    1.24
 -11   2   2    4.20    1.52
 -11   2   2    7.37    1.70
  10  -2  -2    1.18    0.79
  10  -2  -2    1.35    0.77
 -10   2   2    0.76    1.13
 -10   2   2    0.57    1.16
   9  -2  -2   26.55    2.31
   9  -2  -2   25.23    1.96
   9  -2  -2   30.29    1.82
  -9   2   2   21.20    2.61
  -9   2   2   23.36    2.46
   8  -2  -2    4.14    0.92
   8  -2  -2    3.86    0.75
   8  -2  -2    4.93    0.65
  -8   2   2    4.16    1.31
  -8   2   2    4.27    1.16
  -8   2   2    5.15    0.90
   7  -2  -2   31.18    1.93
   7  -2  -2   27.31    2.04
   7  -2  -2   29.14    2.28
  -7   2   2   26.44    2.52
  -7   2   2   31.01    2.13
  -7   2   2   26.32    2.29
   6  -2  -2   20.56    1.58
   6  -2  -2   20.28    1.75
   6  -2  -2   22.40    1.50
   6  -2  -2   20.96    1.76
  -6   2   2   21.93    1.63
  -6   2   2   21.63    1.83
  -6   2   2   18.27    1.96
   5  -2  -2    6.71    0.92
   5  -2  -2    7.49    0.86
   5  -2  -2    6.53    0.85
   5  -2  -2    7.78    0.74
   5  -2  -2    7.80    0.98
   5  -2  -2    9.08    0.84
  -5   2   2    8.24    0.85
  -5   2   2    7.39    1.18
  -5   2   2    6.35    0.96
  -5   2   2    8.42    0.94
   4  -2  -2    3.34    0.60
   4  -2  -2    2.94    0.52
   4  -2  -2    2.95    0.60
   4  -2  -2    3.87    0.57
   4  -2  -2    2.80    0.51
  -4   2   2    3.18    0.61
  -4   2   2    2.61    0.64
  -4   2   2    2.38    0.80
  -4   2   2    3.91    0.60
  -4   2   2    2.82    0.60
   3  -2  -2   71.39    4.33
   3  -2  -2   68.66    4.35
   3  -2  -2   73.81    4.31
   3  -2  -2   69.84    4.31
   3  -2  -2   68.38    4.27
  -3   2   2   66.60    4.36
  -3   2   2   75.77    4.40
  -3   2   2   67.25    4.27
  -3   2   2   75.73    4.29
  -3   2   2   76.17    4.51
   2  -2  -2   93.09    5.42
   2  -2  -2   90.84    5.50
   2  -2  -2   90.61    5.48
   2  -2  -2   85.55    5.38
   2  -2  -2   92.92    5.42
   2  -2  -2   90.32    5.50
  -2   2   2   87.97    5.43
  -2   2   2   94.07    5.37
  -2   2   2   96.58    5.55
  -2   2   2   92.43    5.47
  -2   2   2   94.10    5.56
   1  -2  -2   35.41    2.15
   1  -2  -2   34.19    2.30
   1  -2  -2   35.39    2.34
   1  -2  -2   32.98    2.32
  -1   2   2   33.01    2.27
  -1   2   2   36.70    2.26
  -1   2   2   36.81    2.29
  -1   2   2   32.95    2.11
  -1   2   2   35.27    2.23
   0  -2  -2  126.86    7.65
   0  -2  -2  132.76    7.72
   0   2   2  133.64    7.67
   0   2   2  124.49    7.71
   0   2   2  130.19    7.64
   0   2   2  130.33    7.60
   0   2   2  130.74    7.58
  -1  -2  -2   48.37    3.07
  -1  -2  -2   47.18    3.16
   1   2   2   49.52    3.15
   1   2   2   48.62    2.96
   1   2   2   49.61    3.04
   1   2   2   47.37    3.04
   1   2   2   47.99    3.06
   1   2   2   49.75    3.02
  -2  -2  -2   95.51    5.46
  -2  -2  -2   89.68    5.60
  -2  -2  -2   92.05    5.41
  -2  -2  -2   91.02    5.63
  -2  -2  -2   95.01    5.54
  -2  -2  -2   94.22    5.48
   2   2   2   90.84    5.50
   2   2   2   88.92    5.57
   2   2   2  100.03    5.58
   2   2   2   86.25    5.50
   2   2   2   89.35    5.44
  -3  -2  -2    1.51    0.72
  -3  -2  -2    2.82    0.62
  -3  -2  -2    2.48    0.52
  -3  -2  -2    2.27    0.51
   3   2   2    1.70    0.52
   3   2   2    2.73    0.62
   3   2   2    1.91    0.47
   3   2   2    2.48    0.57
   3   2   2    1.79    0.56
  -4  -2  -2   38.94    2.44
  -4  -2  -2   40.43    2.70
  -4  -2  -2   34.25    2.59
  -4  -2  -2   40.27    2.50
   4   2   2   37.53    2.61
   4   2   2   39.43    2.58
   4   2   2   34.47    2.44
   4   2   2   34.68    2.48
  -5  -2  -2    0.56    0.57
  -5  -2  -2    1.27    0.56
  -5  -2  -2    0.41    0.81
  -5  -2  -2    0.67    0.71
   5   2   2    0.23    0.54
   5   2   2    0.83    0.56
  -6  -2  -2   15.30    1.76
  -6  -2  -2   18.14    1.53
  -6  -2  -2   16.21    1.77
  -6  -2  -2   19.11    1.64
   6   2   2   17.45    1.60
   6   2   2   16.75    1.77
  -7  -2  -2   54.93    3.44
  -7  -2  -2   45.57    3.66
  -7  -2  -2   56.73    3.67
   7   2   2   51.06    3.72
   7   2   2   48.43    3.47
  -8  -2  -2    0.33    1.11
  -8  -2  -2   -1.19    0.84
   8   2   2    1.55    0.79
   8   2   2   -0.13    0.77
  -9  -2  -2    1.20    1.06
  -9  -2  -2    2.67    1.25
   9   2   2   -1.77    0.66
   9   2   2    0.70    1.05
   9   2   2    0.97    0.96
 -10  -2  -2    2.88    1.25
  10   2   2    1.19    0.95
  10   2   2    1.81    0.96
  10   2   2    1.12    1.14
  11  -3  -2    0.47    0.92
 -11   3   2    0.49    1.43
 -11   3   2    0.81    1.31
  10  -3  -2    5.68    1.21
 -10   3   2    7.40    1.64
 -10   3   2    7.99    1.85
   9  -3  -2    3.29    0.69
   9  -3  -2    3.68    1.03
  -9   3   2    2.54    1.43
  -9   3   2    2.42    1.14
   8  -3  -2    2.42    0.66
   8  -3  -2    3.58    0.97
  -8   3   2    3.98    1.14
  -8   3   2    2.06    1.22
   7  -3  -2   15.35    1.44
   7  -3  -2   15.75    1.64
  -7   3   2   17.59    1.77
  -7   3   2   17.07    2.06
  -7   3   2   16.73    1.51
   6  -3  -2   16.43    1.52
   6  -3  -2   19.06    1.66
   6  -3  -2   13.44    1.50
   6  -3  -2   16.44    1.27
   6  -3  -2   15.38    1.38
  -6   3   2   16.86    1.46
  -6   3   2   15.88    1.88
  -6   3   2   15.15    1.65
   5  -3  -2    8.03    0.92
   5  -3  -2    7.63    0.87
   5  -3  -2    6.54    0.92
   5  -3  -2    7.49    1.03
  -5   3   2    6.76    0.97
  -5   3   2    8.78    1.35
  -5   3   2    6.80    1.00
   4  -3  -2   23.53    1.83
   4  -3  -2   18.27    1.53
   4  -3  -2   21.22    1.73
   4  -3  -2   21.44    1.52
   4  -3  -2   21.47    1.64
   4  -3  -2   19.81    1.61
  -4   3   2   23.20    1.65
  -4   3   2   21.19    1.92
  -4   3   2   19.33    1.65
   3  -3  -2   71.76    4.38
   3  -3  -2   70.95    4.51
   3  -3  -2   71.33    4.51
   3  -3  -2   72.53    4.44
  -3   3   2   65.29    4.47
  -3   3   2   71.80    4.45
  -3   3   2   72.55    4.36
  -3   3   2   74.01    4.57
   2  -3  -2   52.70    3.48
   2  -3  -2   50.81    3.44
   2  -3  -2   54.53    3.45
  -2   3   2   51.03    3.41
  -2   3   2   53.84    3.26
  -2   3   2   52.96    3.32
   1  -3  -2    7.71    1.01
   1  -3  -2    8.10    1.15
   1  -3  -2    8.76    1.05
  -1   3   2    9.19    1.01
  -1   3   2    8.08    0.84
  -1   3   2    9.88    0.90
   0  -3  -2   32.78    2.48
   0  -3  -2   29.97    2.40
   0   3   2   31.77    2.18
   0   3   2   34.19    2.48
   0   3   2   34.81    2.27
   0   3   2   35.08    2.21
   0   3   2   34.44    2.22
  -1  -3  -2   23.53    1.87
  -1  -3  -2   21.00    1.94
   1   3   2   21.33    1.62
   1   3   2   22.64    1.62
   1   3   2   23.84    1.89
  -2  -3  -2    4.09    1.02
  -2  -3  -2    4.96    0.89
   2   3   2    5.38    0.75
   2   3   2    5.45    0.71
   2   3   2    4.73    0.88
   2   3   2    5.99    0.75
  -3  -3  -2    1.34    0.98
  -3  -3  -2    0.41    0.52
   3   3   2    1.06    0.61
   3   3   2    0.83    0.54
   3   3   2    1.44    0.52
   3   3   2    0.39    0.40
  -4  -3  -2    4.20    0.79
  -4  -3  -2    2.64    1.09
   4   3   2    4.18    0.77
   4   3   2    2.52    0.71
   4   3   2    3.71    0.81
  -5  -3  -2    0.42    1.11
  -5  -3  -2    0.96    0.61
   5   3   2    0.05    0.59
   5   3   2    0.81    0.66
  -6  -3  -2   31.30    2.48
  -6  -3  -2   30.82    2.82
   6   3   2   35.99    2.69
   6   3   2   38.28    2.65
  -7  -3  -2   -0.05    1.30
  -7  -3  -2    0.75    0.78
  -7  -3  -2    0.14    0.66
   7   3   2    1.16    0.80
   7   3   2   -0.34    0.71
  -8  -3  -2    7.73    1.68
  -8  -3  -2    5.26    1.02
   8   3   2    7.07    1.28
   8   3   2    5.38    1.25
  -9  -3  -2    0.24    1.27
  -9  -3  -2    3.15    0.96
   9   3   2    3.50    1.18
   9   3   2    2.94    1.06
   9  -4  -2   24.27    2.25
   9  -4  -2   24.69    2.45
   9  -4  -2   26.24    2.18
  -9   4   2   18.83    2.34
  -9   4   2   22.39    2.85
   8  -4  -2   26.37    2.14
   8  -4  -2   29.59    2.41
   8  -4  -2   28.58    2.46
  -8   4   2   18.40    2.58
  -8   4   2   26.25    2.52
   7  -4  -2    6.10    1.26
   7  -4  -2    6.65    1.29
   7  -4  -2    4.94    0.85
  -7   4   2    6.03    1.19
  -7   4   2    5.84    1.51
   6  -4  -2   13.56    1.63
   6  -4  -2   11.23    1.10
   6  -4  -2   12.71    1.57
  -6   4   2   10.13    1.38
  -6   4   2   11.52    1.71
   5  -4  -2   -0.97    0.68
   5  -4  -2   -0.69    0.65
   5  -4  -2    0.24    0.87
  -5   4   2    1.22    0.66
  -5   4   2   -0.29    0.89
   4  -4  -2    0.53    0.74
   4  -4  -2    0.88    0.79
   4  -4  -2    2.56    0.98
  -4   4   2    2.84    0.97
  -4   4   2    2.40    0.72
   3  -4  -2    0.83    0.73
   3  -4  -2    1.13    0.90
   3  -4  -2    0.09    0.74
  -3   4   2    1.45    0.79
  -3   4   2    0.03    0.54
   2  -4  -2   10.08    1.34
   2  -4  -2    6.68    1.13
   2  -4  -2    8.37    1.27
  -2   4   2    8.19    0.98
  -2   4   2    8.51    1.14
   1  -4  -2   18.82    1.79
   1  -4  -2   17.87    1.84
   1  -4  -2   18.66    1.77
  -1   4   2   15.94    1.46
  -1   4   2   16.78    1.53
  -1   4   2   18.64    1.47
   0  -4  -2   28.79    2.67
   0  -4  -2   31.62    2.50
   0   4   2   31.27    2.23
   0   4   2   32.61    2.21
   0   4   2   32.08    2.18
   0   4   2   32.18    2.60
  -1  -4  -2   31.15    2.66
  -1  -4  -2   30.04    2.51
   1   4   2   33.81    2.21
   1   4   2   29.18    2.20
   1   4   2   33.79    2.30
   1   4   2   33.18    2.63
  -2  -4  -2   -1.04    0.87
  -2  -4  -2   -0.82    1.03
   2   4   2    1.14    0.79
   2   4   2    1.24    0.53
  -3  -4  -2    5.37    1.39
   3   4   2    7.77    1.00
   3   4   2    6.86    1.14
  -4  -4  -2   14.83    2.09
   4   4   2   18.17    1.72
   4   4   2   14.91    1.53
  -5  -4  -2    8.27    1.24
  -5  -4  -2    7.89    1.67
   5   4   2    9.32    1.33
   5   4   2    9.45    1.29
  -6  -4  -2    1.88    1.55
  -6  -4  -2    1.70    0.86
   6   4   2    2.03    0.88
   6   4   2    1.26    0.81
  -7  -4  -2    2.82    1.01
  -7  -4  -2    4.08    1.59
   7   4   2    4.07    1.07
   7   4   2    4.12    1.13
  -8  -4  -2   11.21    2.25
  -8  -4  -2   10.19    1.50
   8   4   2   13.23    1.78
   7  -5  -2   11.88    1.81
   7  -5  -2    8.80    1.62
  -7   5   2    8.30    1.48
  -7   5   2    7.85    1.79
   6  -5  -2    0.59    1.08
   6  -5  -2    0.60    0.97
  -6   5   2    1.27    0.95
  -6   5   2    1.05    1.20
   5  -5  -2   23.58    2.39
   5  -5  -2   17.95    2.07
  -5   5   2   17.73    2.48
  -5   5   2   18.25    1.85
   4  -5  -2    0.64    1.07
   4  -5  -2    1.49    1.03
   4  -5  -2    2.04    1.04
  -4   5   2    2.69    0.90
   3  -5  -2    4.17    1.27
   3  -5  -2    0.68    1.04
   3  -5  -2    3.65    1.19
  -3   5   2    1.47    0.75
   2  -5  -2   13.43    1.69
   2  -5  -2    8.85    1.59
   2  -5  -2   10.49    1.56
  -2   5   2    9.77    1.24
   1  -5  -2    8.63    1.55
   1  -5  -2    9.54    1.52
  -1   5   2    6.69    1.06
  -1   5   2    8.91    1.63
   0  -5  -2   49.68    4.01
   0  -5  -2   53.60    4.13
   0   5   2   56.79    3.64
   0   5   2   61.94    4.22
  -1  -5  -2    1.44    1.25
  -1  -5  -2    2.66    1.27
   1   5   2    5.70    1.35
   1   5   2    5.20    1.03
  -2  -5  -2    2.98    1.37
  -2  -5  -2    3.43    1.34
   2   5   2    4.03    1.25
  -3  -5  -2    4.03    1.48
   3   5   2    6.55    1.38
  -4  -5  -2    6.13    1.63
   4   5   2    5.28    1.27
  -5  -5  -2    0.00    1.50
   5   5   2    2.54    1.07
   1  -6  -2    5.01    1.66
   1  -6  -2    6.10    1.70
  -1   6   2    5.29    1.66
   0  -6  -2    6.80    1.78
   0  -6  -2    5.62    1.67
   7   5  -3    0.95    1.46
  -7  -5   3    3.04    1.07
   6   5  -3    3.13    1.60
   6   5  -3    2.24    0.83
  -6  -5   3    3.58    1.14
   5   5  -3    3.64    0.92
   5   5  -3    1.35    1.33
   4   5  -3    1.63    1.30
   4   5  -3    2.20    0.96
   3   5  -3    7.55    1.69
   3   5  -3    7.32    1.36
   3   5  -3    7.03    1.44
   2   5  -3    4.31    1.29
   2   5  -3    2.39    1.14
   1   5  -3    3.32    1.21
   1   5  -3    3.13    1.19
  -1  -5   3    2.97    1.04
  -1  -5   3    5.72    1.20
   0   5  -3   40.08    3.01
   0   5  -3   41.37    3.20
   0  -5   3   37.55    3.21
   0  -5   3   34.24    2.95
  -1   5  -3    3.67    1.17
   1  -5   3    4.36    1.14
   1  -5   3    2.42    1.02
  -2   5  -3    3.98    1.17
   2  -5   3    6.30    1.35
   2  -5   3    2.90    1.08
   2  -5   3    3.81    1.09
  -3   5  -3    1.08    1.08
   3  -5   3    0.96    0.89
   3  -5   3    1.61    0.96
   3  -5   3    0.14    0.91
  -4   5  -3    4.55    1.49
   4  -5   3    2.67    0.99
   4  -5   3    3.58    1.13
   4  -5   3    3.17    1.20
  -5   5  -3    5.92    1.52
   5  -5   3    6.91    1.31
   5  -5   3   13.55    1.90
   5  -5   3    8.69    1.45
  10   4  -3   17.29    2.67
 -10  -4   3   18.86    2.15
   9   4  -3    6.79    1.88
  -9  -4   3    6.33    1.34
   8   4  -3   21.97    1.83
   8   4  -3   17.74    2.58
  -8  -4   3   21.47    2.21
   7   4  -3    9.87    1.96
   7   4  -3   11.67    1.30
  -7  -4   3   13.01    1.61
   6   4  -3    7.67    1.74
   6   4  -3    9.07    1.08
  -6  -4   3   10.05    1.34
   5   4  -3    5.91    1.48
   5   4  -3    4.00    0.81
  -5  -4   3    4.34    1.04
   4   4  -3    1.08    0.61
   4   4  -3   -0.46    0.96
  -4  -4   3    0.51    0.64
   3   4  -3   15.95    1.56
   2   4  -3    4.24    1.16
   2   4  -3    7.23    1.28
  -2  -4   3    4.07    0.91
   1   4  -3   59.95    4.31
   1   4  -3   69.21    4.49
  -1  -4   3   60.45    4.19
  -1  -4   3   71.50    4.36
   0   4  -3   -1.21    0.77
   0   4  -3   -0.34    0.42
   0   4  -3   -0.51    0.63
   0  -4   3    1.65    0.80
   0  -4   3    0.35    0.76
  -1   4  -3   41.40    3.07
  -1   4  -3   42.76    2.82
  -1   4  -3   41.39    3.11
  -1   4  -3   37.34    2.76
   1  -4   3   45.54    3.07
   1  -4   3   38.76    2.86
   1  -4   3   39.26    2.92
  -2   4  -3    9.61    1.30
  -2   4  -3    8.57    0.96
  -2   4  -3   10.07    1.48
   2  -4   3   13.34    1.39
   2  -4   3    8.56    1.26
   2  -4   3   11.54    1.49
  -3   4  -3    2.70    0.94
  -3   4  -3    1.93    1.01
   3  -4   3    2.89    0.87
   3  -4   3    3.82    0.88
   3  -4   3    2.86    0.91
  -4   4  -3    4.32    1.16
  -4   4  -3    3.25    1.22
   4  -4   3    4.08    0.90
   4  -4   3    4.91    1.06
   4  -4   3    7.19    1.25
  -5   4  -3    3.27    1.20
  -5   4  -3    3.16    1.10
   5  -4   3    3.79    0.94
   5  -4   3    3.25    1.02
   5  -4   3    2.70    0.77
  -6   4  -3    3.88    1.38
  -6   4  -3    3.72    1.34
   6  -4   3    3.12    0.96
   6  -4   3    4.73    1.15
  -7   4  -3    1.48    1.37
  -7   4  -3   -0.33    1.21
   7  -4   3    0.29    0.91
   7  -4   3    1.07    0.86
  11   3  -3    2.94    1.10
  11   3  -3    2.81    1.38
 -11  -3   3    4.35    1.29
  10   3  -3    7.76    1.74
  10   3  -3   10.10    1.26
  10   3  -3    6.92    1.32
 -10  -3   3   11.30    1.62
   9   3  -3    9.20    1.10
   9   3  -3    9.10    1.79
   9   3  -3    7.75    1.30
  -9  -3   3   10.02    1.49
   8   3  -3   78.81    5.25
   8   3  -3   82.40    5.05
   8   3  -3   77.16    5.71
  -8  -3   3   88.26    5.32
   7   3  -3   47.17    3.78
   7   3  -3   44.18    3.18
   7   3  -3   46.20    3.03
  -7  -3   3   50.18    3.28
   6   3  -3   10.15    1.13
   6   3  -3    8.45    0.94
   6   3  -3    8.64    1.57
  -6  -3   3   11.85    1.30
   5   3  -3   13.93    1.21
   5   3  -3   14.30    1.20
   5   3  -3   15.73    1.90
   5   3  -3   12.85    1.18
  -5  -3   3   15.24    1.51
   4   3  -3    0.55    0.43
   4   3  -3    0.68    0.78
  -4  -3   3    0.58    0.55
   3   3  -3   36.19    2.68
  -3  -3   3   34.61    2.43
  -3  -3   3   32.79    2.45
   2   3  -3   49.26    3.23
  -2  -3   3   46.84    3.04
  -2  -3   3   41.86    3.05
   1   3  -3   34.59    2.71
   1   3  -3   38.98    2.64
  -1  -3   3   37.13    2.55
  -1  -3   3   37.23    2.60
   0   3  -3   20.54    1.62
   0   3  -3   20.15    1.45
   0   3  -3   20.13    1.84
   0  -3   3   21.17    1.72
   0  -3   3   19.44    1.61
  -1   3  -3    5.62    1.02
  -1   3  -3    5.32    0.77
  -1   3  -3    5.13    0.72
  -1   3  -3    5.31    0.81
   1  -3   3    6.56    0.86
   1  -3   3    5.03    0.88
   1  -3   3    5.93    0.92
  -2   3  -3   17.74    1.65
  -2   3  -3   19.16    1.80
   2  -3   3   16.81    1.53
   2  -3   3   17.58    1.45
   2  -3   3   17.19    1.58
  -3   3  -3    2.17    0.92
  -3   3  -3    2.40    0.89
  -3   3  -3    3.36    0.96
   3  -3   3    2.41    0.49
   3  -3   3    2.36    0.76
   3  -3   3    2.66    0.61
   3  -3   3    2.78    0.54
   3  -3   3    2.34    0.72
  -4   3  -3   22.38    2.17
  -4   3  -3   21.36    2.17
  -4   3  -3   23.17    1.79
   4  -3   3   20.33    1.86
   4  -3   3   22.97    1.96
   4  -3   3   24.35    1.79
   4  -3   3   23.47    1.70
  -5   3  -3    0.08    0.90
  -5   3  -3   -0.22    0.89
   5  -3   3    0.22    0.60
   5  -3   3   -0.34    0.45
   5  -3   3    0.53    0.64
  -6   3  -3   11.46    1.74
  -6   3  -3   10.78    1.66
   6  -3   3    8.16    1.00
   6  -3   3   11.82    1.39
   6  -3   3   12.57    1.32
  -7   3  -3   21.97    2.49
  -7   3  -3   22.87    2.66
   7  -3   3   25.04    2.15
   7  -3   3   22.87    1.97
  -8   3  -3    3.58    1.49
  -8   3  -3    2.04    1.41
   8  -3   3    5.15    1.01
   8  -3   3    3.05    1.03
  -9   3  -3    6.62    1.87
   9  -3   3    5.86    1.27
   9  -3   3    7.24    1.19
  12   2  -3    8.87    1.59
  12   2  -3   14.41    2.02
 -12  -2   3   12.85    1.85
  11   2  -3    5.86    0.99
  11   2  -3    8.12    1.61
  11   2  -3    6.66    1.37
 -11  -2   3    5.25    1.25
  10   2  -3    6.69    1.30
  10   2  -3    7.29    1.48
  10   2  -3    7.29    0.93
 -10  -2   3    5.17    1.18
   9   2  -3   80.20    4.94
   9   2  -3   74.82    5.26
   9   2  -3   79.79    5.51
  -9  -2   3   87.36    5.21
   8   2  -3   70.15    4.68
   8   2  -3   72.60    4.92
   8   2  -3   75.77    4.39
  -8  -2   3   67.64    4.42
  -8  -2   3   73.15    4.54
  -8  -2   3   69.66    4.47
   7   2  -3   48.25    3.55
   7   2  -3   49.98    3.03
   7   2  -3   49.90    3.30
   7   2  -3   46.99    3.02
  -7  -2   3   46.15    3.07
  -7  -2   3   45.73    3.08
  -7  -2   3   51.77    3.13
  -7  -2   3   50.18    3.27
   6   2  -3    2.58    0.46
   6   2  -3    2.80    0.87
   6   2  -3    1.57    0.44
   6   2  -3    2.54    0.65
   6   2  -3    1.94    0.58
  -6  -2   3    1.93    0.43
  -6  -2   3    2.66    0.54
  -6  -2   3    2.14    0.64
   5   2  -3   48.26    3.26
   5   2  -3   42.26    2.91
   5   2  -3   46.77    2.86
   5   2  -3   45.40    2.79
   5   2  -3   46.63    2.94
  -5  -2   3   45.17    3.00
   4   2  -3    4.91    0.82
   4   2  -3    6.70    0.65
   4   2  -3    6.25    1.05
   4   2  -3    7.58    0.76
   4   2  -3    6.73    0.75
   4   2  -3    6.50    0.73
  -4  -2   3    6.05    0.79
   3   2  -3   56.92    3.55
   3   2  -3   58.39    3.36
   3   2  -3   55.69    3.47
   3   2  -3   52.18    3.34
   3   2  -3   56.13    3.43
   3   2  -3   59.00    3.68
   3   2  -3   57.16    3.48
  -3  -2   3   54.37    3.45
  -3  -2   3   53.96    3.50
   2   2  -3  102.69    5.54
   2   2  -3   91.79    5.54
   2   2  -3   94.61    5.60
   2   2  -3   88.06    5.50
   2   2  -3   88.96    5.40
   2   2  -3   96.68    5.65
   2   2  -3   87.70    5.53
  -2  -2   3   89.76    5.56
  -2  -2   3   95.01    5.54
   1   2  -3   93.47    5.45
   1   2  -3   90.77    5.43
   1   2  -3   88.07    5.38
   1   2  -3   87.22    5.57
   1   2  -3   92.66    5.31
   1   2  -3   90.66    5.40
   1   2  -3   88.73    5.30
  -1  -2   3   91.94    5.42
  -1  -2   3   89.21    5.43
  -1  -2   3   90.00    5.43
   0   2  -3   43.94    2.71
   0   2  -3   43.08    2.71
   0   2  -3   43.89    2.95
   0   2  -3   42.84    2.80
   0   2  -3   44.23    2.73
   0  -2   3   43.91    2.81
   0  -2   3   40.51    2.75
  -1   2  -3  116.10    6.84
  -1   2  -3  112.62    6.92
  -1   2  -3  115.20    6.70
  -1   2  -3  111.63    6.63
  -1   2  -3  107.61    6.78
  -1   2  -3  118.92    6.83
   1  -2   3  112.87    6.67
   1  -2   3  115.62    6.70
   1  -2   3  111.26    6.79
   1  -2   3  111.49    6.80
   1  -2   3  121.90    6.95
   1  -2   3  116.30    6.67
  -2   2  -3   36.88    2.42
  -2   2  -3   36.80    2.60
  -2   2  -3   34.76    2.46
  -2   2  -3   31.03    2.50
   2  -2   3   37.15    2.27
   2  -2   3   34.22    2.35
   2  -2   3   37.09    2.45
   2  -2   3   38.89    2.36
  -3   2  -3    2.10    0.76
  -3   2  -3    1.89    0.81
   3  -2   3    2.37    0.43
   3  -2   3    2.75    0.60
   3  -2   3    2.99    0.73
  -4   2  -3   29.27    2.43
  -4   2  -3   29.72    2.48
   4  -2   3   34.57    2.32
   4  -2   3   29.50    1.97
   4  -2   3   31.38    2.25
  -5   2  -3   -0.11    0.80
  -5   2  -3   -0.98    0.77
   5  -2   3   -0.69    0.48
   5  -2   3    0.04    0.34
  -6   2  -3    3.98    1.19
  -6   2  -3    2.29    1.03
   6  -2   3    3.87    0.90
   6  -2   3    4.55    0.59
  -7   2  -3    0.17    0.95
  -7   2  -3    0.14    1.07
   7  -2   3    0.87    0.75
   7  -2   3    0.82    0.43
  -8   2  -3    2.53    1.31
  -8   2  -3    2.11    1.29
   8  -2   3    1.41    0.88
  -9   2  -3    0.93    1.29
  -9   2  -3    1.30    1.44
   9  -2   3    2.12    0.79
   9  -2   3   -0.02    0.81
  12   1  -3   -0.38    0.84
  12   1  -3    0.31    0.82
 -12  -1   3    0.95    1.27
  11   1  -3    1.11    0.88
  11   1  -3    1.02    0.78
 -11  -1   3    2.27    1.23
  10   1  -3   11.54    1.57
  10   1  -3    6.77    1.24
 -10  -1   3    9.44    1.62
   9   1  -3   11.44    1.54
   9   1  -3    9.78    1.39
   9   1  -3    9.28    0.99
   9   1  -3   10.03    0.81
  -9  -1   3   11.19    1.59
   8   1  -3   16.36    1.18
   8   1  -3   18.43    1.38
   8   1  -3   18.23    1.68
   8   1  -3   17.80    1.41
   8   1  -3   19.70    1.84
  -8  -1   3   19.18    1.92
  -8  -1   3   17.67    1.42
  -8  -1   3   18.03    1.82
   7   1  -3    6.69    0.99
   7   1  -3    4.99    0.70
   7   1  -3    6.47    1.07
   7   1  -3    6.02    0.58
   7   1  -3    6.41    0.69
  -7  -1   3    7.27    1.10
  -7  -1   3    6.76    0.74
  -7  -1   3    5.96    0.91
   6   1  -3   30.27    1.89
   6   1  -3   29.81    2.05
   6   1  -3   33.07    2.24
   6   1  -3   30.57    1.94
   6   1  -3   29.43    2.30
   6   1  -3   30.93    2.24
  -6  -1   3   30.00    2.15
  -6  -1   3   31.98    2.31
  -6  -1   3   31.78    1.96
   5   1  -3  120.32    7.20
   5   1  -3  126.93    7.07
   5   1  -3  131.38    7.32
   5   1  -3  118.84    7.06
   5   1  -3  118.93    7.38
   5   1  -3  127.70    7.30
  -5  -1   3  113.71    7.41
  -5  -1   3  120.93    7.28
  -5  -1   3  123.25    7.24
  -5  -1   3  119.51    7.07
   4   1  -3   46.41    2.77
   4   1  -3   49.58    2.94
   4   1  -3   41.29    3.02
   4   1  -3   46.23    2.93
  -4  -1   3   45.18    2.80
  -4  -1   3   48.85    2.90
  -4  -1   3   46.45    3.10
  -4  -1   3   46.80    2.92
   3   1  -3    8.51    0.93
   3   1  -3    6.93    0.76
   3   1  -3    6.97    0.75
  -3  -1   3    6.46    0.68
  -3  -1   3    6.91    0.68
  -3  -1   3    5.68    0.71
  -3  -1   3    6.96    0.65
  -3  -1   3    5.57    0.79
   2   1  -3   78.22    4.76
   2   1  -3   87.24    4.90
   2   1  -3   81.25    4.80
   2   1  -3   81.96    4.80
   2   1  -3   80.94    4.80
  -2  -1   3   79.31    4.75
  -2  -1   3   79.15    4.80
  -2  -1   3   83.31    4.78
  -2  -1   3   78.24    4.88
  -2  -1   3   81.63    4.75
   1   1  -3  142.87    8.56
   1   1  -3  154.67    8.49
   1   1  -3  152.28    8.58
   1   1  -3  143.84    8.54
   1   1  -3  142.69    8.51
   1   1  -3  146.13    8.57
  -1  -1   3  143.05    8.54
  -1  -1   3  148.29    8.53
  -1  -1   3  151.24    8.52
  -1  -1   3  143.96    8.52
  -1  -1   3  150.93    8.59
   0   1  -3  476.64   27.14
   0   1  -3  468.29   27.13
   0   1  -3  471.17   27.26
   0   1  -3  474.50   27.12
   0   1  -3  449.71   27.07
   0   1  -3  491.50   27.19
   0  -1   3  468.29   27.13
   0  -1   3  491.37   27.15
   0  -1   3  474.52   27.16
   0  -1   3  475.93   27.26
  -1   1  -3   22.86    1.57
  -1   1  -3   22.13    1.44
  -1   1  -3   23.05    1.66
  -1   1  -3   21.53    1.70
  -1   1  -3   22.22    1.76
   1  -1   3   25.13    1.62
   1  -1   3   22.10    1.47
   1  -1   3   25.17    1.70
   1  -1   3   22.85    1.69
  -2   1  -3   81.28    4.89
  -2   1  -3   82.16    4.76
  -2   1  -3   79.35    4.93
  -2   1  -3   75.97    4.84
   2  -1   3   78.80    4.79
   2  -1   3   85.00    4.86
   2  -1   3   72.06    4.58
  -3   1  -3   88.19    5.83
  -3   1  -3  103.75    6.00
  -3   1  -3   91.04    5.95
   3  -1   3  104.67    5.98
   3  -1   3   98.38    5.60
   3  -1   3   98.66    5.91
   3  -1   3   95.03    5.65
   3  -1   3   99.31    5.95
  -4   1  -3   31.09    2.31
   4  -1   3   29.32    2.36
   4  -1   3   29.26    2.20
  -5   1  -3   15.82    1.67
  -5   1  -3   11.36    1.55
   5  -1   3   14.20    1.44
  -6   1  -3   12.08    1.72
  -6   1  -3   14.17    1.62
   6  -1   3   14.36    1.14
   6  -1   3   14.48    1.58
  -7   1  -3   13.53    1.72
  -7   1  -3    9.24    1.58
   7  -1   3   13.65    1.14
   7  -1   3   14.02    1.69
  -8   1  -3    6.72    1.62
  -8   1  -3   10.19    1.64
   8  -1   3    8.96    1.45
  -9   1  -3   19.58    2.39
  -9   1  -3   18.16    2.63
   9  -1   3   20.67    2.17
 -10   1  -3   16.61    2.22
 -10   1  -3   10.69    2.10
  10  -1   3   13.00    1.78
  13   0  -3   -0.34    0.75
  13   0  -3   -0.25    0.81
 -13   0   3    0.27    1.34
  12   0  -3    2.92    1.03
  12   0  -3    4.77    1.09
 -12   0   3    2.94    1.47
  11   0  -3    1.11    0.80
  11   0  -3    0.22    0.76
 -11   0   3    1.81    1.29
  10   0  -3   19.13    2.01
  10   0  -3   25.45    2.00
 -10   0   3   17.59    2.25
   9   0  -3    1.37    0.66
   9   0  -3    0.98    0.33
   9   0  -3    1.00    0.68
  -9   0   3    1.50    0.95
   8   0  -3   27.70    1.77
   8   0  -3   28.32    2.22
   8   0  -3   29.28    2.17
  -8   0   3   26.45    1.96
  -8   0   3   25.40    2.46
   7   0  -3   19.86    1.78
   7   0  -3   23.68    1.45
   7   0  -3   20.85    1.76
  -7   0   3   20.98    1.58
  -7   0   3   21.20    2.07
   6   0  -3  143.04    8.13
   6   0  -3  126.22    7.85
   6   0  -3  116.80    7.76
   6   0  -3  138.29    7.91
  -6   0   3  128.79    7.89
  -6   0   3  132.82    7.93
  -6   0   3  125.26    8.00
  -6   0   3  139.43    7.69
   5   0  -3  188.68   11.34
   5   0  -3  205.34   11.39
   5   0  -3  199.93   11.36
   5   0  -3  193.18   11.27
  -5   0   3  184.17   11.34
  -5   0   3  202.79   11.15
  -5   0   3  191.68   11.37
  -5   0   3  179.61   11.41
   4   0  -3    5.33    0.76
   4   0  -3    7.90    0.86
   4   0  -3    6.37    0.82
  -4   0   3    5.89    0.88
  -4   0   3    5.63    0.76
  -4   0   3    4.74    0.74
   3   0  -3  202.67   11.45
   3   0  -3  210.37   11.46
   3   0  -3  189.06   11.45
  -3   0   3  194.03   11.46
  -3   0   3  190.49   11.47
  -3   0   3  194.73   11.44
   2   0  -3  152.73    9.08
   2   0  -3  156.70    9.09
   2   0  -3  163.54    9.09
  -2   0   3  154.82    9.08
  -2   0   3  161.78    9.10
  -2   0   3  149.78    8.93
  -2   0   3  150.94    9.08
   1   0  -3   14.33    0.95
   1   0  -3   12.72    1.12
   1   0  -3   13.15    1.16
   1   0  -3   14.19    1.16
  -1   0   3   14.27    1.09
  -1   0   3   12.93    1.16
  -1   0   3   14.62    0.95
  -1   0   3   13.14    1.14
   0   0  -3   50.53    2.92
   0   0  -3   45.42    2.84
   0   0  -3   47.48    2.96
   0   0   3   46.96    2.91
   0   0   3   45.36    2.89
   0   0   3   45.51    2.84
   0   0   3   48.83    2.99
   0   0   3   48.09    2.94
  -1   0  -3   93.23    5.67
  -1   0  -3   90.78    5.52
  -1   0  -3   92.56    5.61
  -1   0  -3   96.83    5.58
   1   0   3   93.57    5.60
   1   0   3   96.65    5.56
   1   0   3   92.46    5.52
  -2   0  -3    0.54    0.49
  -2   0  -3    0.90    0.48
  -2   0  -3   -0.11    0.49
  -2   0  -3    0.71    0.39
   2   0   3    1.02    0.46
   2   0   3    1.33    0.43
   2   0   3    0.81    0.39
   2   0   3    0.84    0.39
  -3   0  -3  112.42    6.62
  -3   0  -3  112.12    6.77
  -3   0  -3  105.60    6.57
  -3   0  -3  108.83    6.67
   3   0   3  106.98    6.55
   3   0   3  112.76    6.68
   3   0   3  112.50    6.60
   3   0   3  107.00    6.33
   3   0   3  115.59    6.73
  -4   0  -3   61.95    3.77
  -4   0  -3   51.73    3.84
   4   0   3   57.90    3.63
   4   0   3   58.92    3.78
  -5   0  -3    1.20    0.78
  -5   0  -3    0.94    0.82
   5   0   3    1.68    0.54
   5   0   3    1.10    0.60
  -6   0  -3    0.80    0.78
  -6   0  -3    1.17    0.82
   6   0   3    0.43    0.62
   6   0   3    0.52    0.55
  -7   0  -3    2.86    1.03
  -7   0  -3    4.02    1.16
  -7   0  -3    3.82    0.90
   7   0   3    3.40    0.94
   7   0   3    2.54    0.79
  -8   0  -3    9.85    1.77
  -8   0  -3   17.03    1.49
  -8   0  -3   14.10    1.88
   8   0   3   15.76    1.70
   8   0   3   16.69    1.63
   8   0   3   13.11    1.75
  -9   0  -3    3.10    1.49
  -9   0  -3    4.46    1.37
   9   0   3    4.09    1.13
   9   0   3    3.98    1.00
   9   0   3    3.84    1.04
 -10   0  -3   -1.99    1.15
 -10   0  -3    0.23    1.27
  10   0   3   -0.90    0.84
  12  -1  -3    0.74    0.76
  12  -1  -3    0.75    0.72
 -12   1   3   -0.81    1.20
  11  -1  -3    1.37    0.79
  11  -1  -3    1.94    0.79
 -11   1   3    0.70    1.24
  10  -1  -3    6.41    1.15
  10  -1  -3   10.47    1.30
 -10   1   3    6.59    1.66
   9  -1  -3    9.93    1.27
   9  -1  -3   11.27    1.42
   9  -1  -3   10.99    0.77
  -9   1   3    7.52    1.57
   8  -1  -3   17.39    1.61
   8  -1  -3   20.17    1.18
   8  -1  -3   16.08    1.67
  -8   1   3   15.24    1.97
   7  -1  -3    6.68    1.03
   7  -1  -3    6.37    0.94
  -7   1   3    6.58    0.96
  -7   1   3    5.27    0.86
  -7   1   3    5.18    1.20
   6  -1  -3   29.61    2.13
   6  -1  -3   28.74    2.04
   6  -1  -3   31.97    2.42
   6  -1  -3   30.84    2.22
  -6   1   3   27.40    2.42
  -6   1   3   29.95    2.15
   5  -1  -3  119.37    7.04
   5  -1  -3  115.89    6.90
   5  -1  -3  121.06    7.08
   5  -1  -3  114.19    6.99
  -5   1   3  120.68    7.00
  -5   1   3  110.46    7.05
  -5   1   3  115.07    7.17
   4  -1  -3   47.47    2.99
   4  -1  -3   44.05    2.96
   4  -1  -3   48.55    2.84
   4  -1  -3   42.98    2.93
  -4   1   3   42.41    3.11
  -4   1   3   46.31    2.97
  -4   1   3   48.68    2.73
  -4   1   3   44.24    2.98
   3  -1  -3    7.44    0.65
   3  -1  -3    5.87    0.78
   3  -1  -3    7.02    0.78
   3  -1  -3    7.19    0.81
  -3   1   3    6.08    0.91
  -3   1   3    6.09    0.79
  -3   1   3    6.83    0.81
   2  -1  -3   79.06    4.97
   2  -1  -3   86.42    4.98
   2  -1  -3   80.68    4.86
   2  -1  -3   79.77    5.02
   2  -1  -3   82.38    4.79
  -2   1   3   89.19    5.04
  -2   1   3   86.31    5.00
  -2   1   3   79.75    5.02
   1  -1  -3  155.60    8.96
   1  -1  -3  158.49    8.94
  -1   1   3  163.23    9.02
  -1   1   3  146.39    8.82
  -1   1   3  149.31    8.95
  -1   1   3  145.23    8.91
  -1   1   3  152.31    8.94
   0  -1  -3  513.58   27.60
   0  -1  -3  469.62   27.67
   0  -1  -3  497.11   27.76
   0  -1  -3  465.93   27.74
   0  -1  -3  468.27   27.78
   0   1   3  512.63   27.80
   0   1   3  485.00   27.60
   0   1   3  455.89   27.72
   0   1   3  483.73   27.76
  -1  -1  -3   25.15    1.57
  -1  -1  -3   22.92    1.72
  -1  -1  -3   23.04    1.60
  -1  -1  -3   21.70    1.64
   1   1   3   25.12    1.73
   1   1   3   24.65    1.54
   1   1   3   22.78    1.70
   1   1   3   23.58    1.65
  -2  -1  -3   83.83    4.82
  -2  -1  -3   84.78    4.99
  -2  -1  -3   86.60    4.90
  -2  -1  -3   78.32    4.93
  -2  -1  -3   76.10    5.03
   2   1   3   87.51    5.04
   2   1   3   77.72    4.91
   2   1   3   83.13    4.87
   2   1   3   80.23    4.80
   2   1   3   77.66    4.98
  -3  -1  -3   97.73    6.10
  -3  -1  -3  108.04    6.16
  -3  -1  -3  105.99    6.08
  -3  -1  -3   94.83    6.19
   3   1   3   96.43    6.03
   3   1   3  107.52    6.23
   3   1   3  100.63    6.16
   3   1   3   99.14    6.07
   3   1   3  100.10    5.92
  -4  -1  -3   30.25    2.14
  -4  -1  -3   26.89    2.23
  -4  -1  -3   31.89    2.16
   4   1   3   26.87    2.00
   4   1   3   28.96    1.82
   4   1   3   27.20    2.00
   4   1   3   26.51    2.12
  -5  -1  -3   15.13    1.48
  -5  -1  -3   10.37    1.40
  -5  -1  -3   14.42    1.52
   5   1   3   15.65    1.36
   5   1   3   15.31    1.54
   5   1   3   13.84    1.06
  -6  -1  -3   13.47    1.57
  -6  -1  -3   18.16    1.64
  -6  -1  -3   13.60    1.73
   6   1   3   15.58    1.67
   6   1   3   13.80    1.43
   6   1   3   13.21    1.10
  -7  -1  -3   14.32    1.75
  -7  -1  -3   12.28    1.81
  -7  -1  -3   15.89    1.60
   7   1   3   15.70    1.85
   7   1   3   13.90    1.56
  -8  -1  -3    8.73    1.65
  -8  -1  -3   11.30    1.46
   8   1   3   11.23    1.67
   8   1   3   10.17    1.40
  -9  -1  -3   21.49    2.57
  -9  -1  -3   18.01    2.47
   9   1   3   19.92    2.20
   9   1   3   19.52    1.93
   9   1   3   17.93    2.20
 -10  -1  -3   14.83    2.24
  10   1   3   14.59    1.86
  10   1   3   14.76    1.98
  10   1   3   13.23    1.97
  12  -2  -3   10.64    1.63
 -12   2   3    8.82    2.02
  11  -2  -3    3.40    1.05
 -11   2   3    4.25    1.54
  10  -2  -3    6.27    1.02
  10  -2  -3    4.58    1.09
 -10   2   3    6.31    1.51
 -10   2   3    7.11    1.73
   9  -2  -3   71.36    4.50
   9  -2  -3   73.85    4.75
  -9   2   3   74.15    4.81
  -9   2   3   59.26    5.01
   8  -2  -3   62.46    4.11
   8  -2  -3   66.55    4.32
  -8   2   3   64.57    4.34
  -8   2   3   70.48    4.24
  -8   2   3   53.65    4.54
   7  -2  -3   45.92    3.13
   7  -2  -3   47.03    2.79
   7  -2  -3   47.68    3.27
  -7   2   3   50.41    3.20
  -7   2   3   42.17    3.53
  -7   2   3   47.19    3.27
   6  -2  -3    2.13    0.59
   6  -2  -3    1.41    0.50
   6  -2  -3    2.77    0.71
   6  -2  -3    1.92    0.43
   6  -2  -3    1.82    0.59
  -6   2   3    0.89    0.83
  -6   2   3    1.99    0.71
  -6   2   3    2.86    0.67
   5  -2  -3   44.87    2.79
   5  -2  -3   40.90    2.96
   5  -2  -3   46.64    2.98
   5  -2  -3   48.87    2.99
   5  -2  -3   40.66    2.81
  -5   2   3   39.11    3.16
  -5   2   3   40.25    2.92
  -5   2   3   51.54    2.81
  -5   2   3   46.38    2.93
   4  -2  -3    6.35    0.83
   4  -2  -3    6.29    0.69
   4  -2  -3    8.31    0.96
   4  -2  -3    7.98    0.84
   4  -2  -3    5.03    0.75
  -4   2   3    5.78    1.04
  -4   2   3    5.02    0.83
  -4   2   3    6.32    0.74
  -4   2   3    6.26    0.89
  -4   2   3    7.16    0.73
   3  -2  -3   55.22    3.48
   3  -2  -3   56.78    3.51
   3  -2  -3   55.37    3.35
   3  -2  -3   57.20    3.50
  -3   2   3   55.64    3.42
  -3   2   3   52.27    3.56
  -3   2   3   58.37    3.36
  -3   2   3   52.09    3.62
  -3   2   3   58.69    3.56
   2  -2  -3   92.82    5.61
   2  -2  -3   93.90    5.58
   2  -2  -3   91.94    5.60
  -2   2   3   86.07    5.41
  -2   2   3   92.62    5.59
  -2   2   3   96.85    5.71
  -2   2   3   95.57    5.74
  -2   2   3  101.45    5.66
   1  -2  -3   87.36    5.35
   1  -2  -3   88.06    5.39
   1  -2  -3   90.86    5.32
   1  -2  -3   87.12    5.33
  -1   2   3   89.67    5.36
  -1   2   3   87.11    5.46
  -1   2   3   88.48    5.40
  -1   2   3   96.30    5.40
   0  -2  -3   43.40    2.72
   0  -2  -3   41.79    2.82
   0  -2  -3   45.05    2.93
   0  -2  -3   39.23    2.75
   0   2   3   43.49    2.83
   0   2   3   45.12    2.57
   0   2   3   42.97    2.67
   0   2   3   46.60    2.92
   0   2   3   45.86    2.84
   0   2   3   43.32    2.78
  -1  -2  -3  121.08    6.73
  -1  -2  -3  114.64    6.78
  -1  -2  -3  119.43    6.91
  -1  -2  -3  113.57    6.76
  -1  -2  -3  109.58    6.86
   1   2   3  106.70    6.63
   1   2   3  118.41    6.81
   1   2   3  111.48    6.77
   1   2   3  113.57    6.63
   1   2   3  114.13    6.74
   1   2   3  111.78    6.84
  -2  -2  -3   35.84    2.47
  -2  -2  -3   37.29    2.48
  -2  -2  -3   38.51    2.41
  -2  -2  -3   37.70    2.35
  -2  -2  -3   35.34    2.62
   2   2   3   35.08    2.31
   2   2   3   35.93    2.39
   2   2   3   40.79    2.55
   2   2   3   35.26    2.47
   2   2   3   36.44    2.51
  -3  -2  -3    2.40    0.86
  -3  -2  -3    3.17    0.70
  -3  -2  -3    2.23    0.59
  -3  -2  -3    3.08    0.53
   3   2   3    2.58    0.51
   3   2   3    2.56    0.66
   3   2   3    2.76    0.54
   3   2   3    2.07    0.61
  -4  -2  -3   28.79    2.31
  -4  -2  -3   33.90    2.13
  -4  -2  -3   30.37    2.42
  -4  -2  -3   37.27    2.32
   4   2   3   29.06    2.13
   4   2   3   30.01    2.18
   4   2   3   33.76    2.30
   4   2   3   30.41    2.36
  -5  -2  -3   -0.28    0.70
  -5  -2  -3    0.01    0.96
  -5  -2  -3    0.31    0.46
  -5  -2  -3    0.62    0.62
   5   2   3   -0.05    0.55
   5   2   3    0.84    0.63
  -6  -2  -3    6.00    1.24
  -6  -2  -3    5.27    0.86
  -6  -2  -3    5.85    1.30
   6   2   3    5.58    1.00
   6   2   3    4.45    1.06
  -7  -2  -3   -1.51    1.06
  -7  -2  -3    0.92    0.97
  -7  -2  -3    1.11    0.64
   7   2   3    0.16    0.67
   7   2   3    0.41    0.83
  -8  -2  -3    2.18    0.82
  -8  -2  -3    3.91    1.27
  -8  -2  -3    1.83    1.21
   8   2   3    1.15    0.82
   8   2   3    2.47    0.96
  -9  -2  -3    2.82    1.33
  -9  -2  -3    2.37    1.22
  -9  -2  -3    1.88    0.90
   9   2   3    1.86    1.01
   9   2   3    2.00    0.96
  11  -3  -3    2.95    1.06
 -11   3   3    5.16    1.84
 -11   3   3    4.55    1.59
  10  -3  -3    6.83    1.27
 -10   3   3    7.33    1.60
 -10   3   3    7.74    1.82
   9  -3  -3    7.58    1.30
  -9   3   3    9.08    1.54
  -9   3   3    7.44    1.72
   8  -3  -3   75.13    4.83
  -8   3   3   69.41    5.24
  -8   3   3   73.92    4.88
   7  -3  -3   43.18    2.70
   7  -3  -3   44.68    3.05
  -7   3   3   40.29    3.47
  -7   3   3   42.46    2.97
   6  -3  -3    6.96    1.03
   6  -3  -3    8.72    1.10
   6  -3  -3    8.63    0.90
   6  -3  -3    8.55    1.14
  -6   3   3    6.63    1.40
  -6   3   3    7.71    1.12
  -6   3   3    8.46    1.15
   5  -3  -3   13.88    1.32
   5  -3  -3   15.47    1.45
   5  -3  -3   13.76    1.24
   5  -3  -3   14.59    1.30
   5  -3  -3   14.06    1.29
  -5   3   3   14.88    1.37
  -5   3   3   14.06    1.66
  -5   3   3   13.24    1.40
   4  -3  -3    0.48    0.47
   4  -3  -3    0.78    0.57
   4  -3  -3    1.03    0.74
   4  -3  -3    0.35    0.44
   4  -3  -3    0.29    0.40
   4  -3  -3   -0.04    0.60
  -4   3   3    1.30    0.48
  -4   3   3    0.18    0.55
  -4   3   3    0.03    0.71
   3  -3  -3   33.44    2.28
   3  -3  -3   34.27    2.33
   3  -3  -3   32.31    2.23
   3  -3  -3   28.27    2.01
  -3   3   3   33.92    2.41
  -3   3   3   26.14    2.36
  -3   3   3   30.70    2.01
   2  -3  -3   45.35    3.10
   2  -3  -3   46.62    3.14
   2  -3  -3   45.81    3.09
  -2   3   3   48.10    3.12
  -2   3   3   48.97    3.04
  -2   3   3   43.71    2.81
   1  -3  -3   39.37    2.63
   1  -3  -3   35.62    2.61
   1  -3  -3   37.48    2.68
  -1   3   3   40.11    2.52
  -1   3   3   36.38    2.48
  -1   3   3   39.43    2.58
  -1   3   3   38.06    2.76
  -1   3   3   35.02    2.29
   0  -3  -3   18.99    1.79
   0  -3  -3   19.92    1.86
   0   3   3   20.08    1.55
   0   3   3   22.45    1.66
   0   3   3   24.99    1.91
   0   3   3   21.74    1.46
   0   3   3   22.02    1.67
  -1  -3  -3    5.60    0.92
  -1  -3  -3    6.50    1.10
   1   3   3    5.76    0.79
   1   3   3    6.90    0.98
   1   3   3    5.62    0.66
   1   3   3    3.72    0.53
  -2  -3  -3   14.87    1.76
  -2  -3  -3   20.35    1.67
   2   3   3   18.45    1.48
   2   3   3   15.08    1.26
   2   3   3   19.08    1.64
   2   3   3   16.93    1.33
  -3  -3  -3    1.85    0.99
   3   3   3    4.14    0.78
   3   3   3    2.81    0.78
   3   3   3    2.30    0.55
  -4  -3  -3   21.70    2.14
  -4  -3  -3   23.97    1.74
   4   3   3   24.62    1.89
   4   3   3   20.93    1.86
   4   3   3   15.62    1.71
  -5  -3  -3   -0.38    0.59
  -5  -3  -3   -2.70    1.15
  -5  -3  -3    0.66    0.56
   5   3   3   -0.04    0.65
   5   3   3    0.40    0.67
  -6  -3  -3   11.15    1.77
  -6  -3  -3   13.65    1.40
  -6  -3  -3   11.65    1.35
   6   3   3   13.14    1.56
   6   3   3   12.36    1.55
  -7  -3  -3   23.63    2.20
  -7  -3  -3   22.30    1.98
  -7  -3  -3   17.66    2.28
   7   3   3   26.09    2.30
   7   3   3   25.84    2.36
  -8  -3  -3    5.10    1.62
  -8  -3  -3    3.02    0.98
   8   3   3    5.89    1.32
   8   3   3    4.19    1.20
   9   3   3    5.50    1.43
   9   3   3    7.80    1.50
  10  -4  -3   14.36    1.74
  10  -4  -3   17.57    2.05
 -10   4   3   10.98    2.21
   9  -4  -3    7.34    1.29
   9  -4  -3    6.06    1.16
   9  -4  -3    8.59    1.45
  -9   4   3    7.34    1.46
  -9   4   3    5.94    1.65
   8  -4  -3   21.52    2.09
   8  -4  -3   23.06    2.16
   8  -4  -3   19.63    1.76
  -8   4   3   14.91    1.92
  -8   4   3   15.77    2.26
   7  -4  -3   11.13    1.27
   7  -4  -3   12.90    1.60
   7  -4  -3   14.14    1.72
  -7   4   3   10.24    1.50
  -7   4   3   12.71    1.99
   6  -4  -3    9.25    1.01
   6  -4  -3    8.32    1.12
   6  -4  -3    7.87    1.33
   6  -4  -3    8.53    1.31
  -6   4   3   10.03    1.66
  -6   4   3    9.84    1.28
   5  -4  -3    4.04    0.92
   5  -4  -3    4.81    1.15
   5  -4  -3    4.14    1.01
  -5   4   3    4.41    1.22
  -5   4   3    4.47    0.83
   4  -4  -3   -0.10    0.66
   4  -4  -3    1.77    0.96
   4  -4  -3   -0.39    0.78
  -4   4   3   -0.59    0.48
  -4   4   3   -0.44    0.79
   3  -4  -3   12.36    1.49
   3  -4  -3   11.89    1.46
   3  -4  -3   15.01    1.65
  -3   4   3   12.66    1.52
  -3   4   3   12.03    1.16
   2  -4  -3    4.34    1.08
   2  -4  -3    4.56    0.94
   2  -4  -3    4.98    1.11
  -2   4   3    4.76    0.68
  -2   4   3    4.31    0.93
   1  -4  -3   62.26    4.31
   1  -4  -3   61.43    4.28
  -1   4   3   63.08    4.10
  -1   4   3   67.75    4.44
  -1   4   3   65.66    3.90
   0  -4  -3   -0.26    0.98
   0  -4  -3    0.41    0.91
   0   4   3    1.49    0.62
   0   4   3    3.17    0.99
  -1  -4  -3   38.85    3.02
  -1  -4  -3   38.37    3.17
   1   4   3   39.56    3.05
   1   4   3   44.27    2.80
  -2  -4  -3    9.85    1.42
  -2  -4  -3    6.60    1.50
   2   4   3   10.99    1.44
   2   4   3   10.58    1.18
  -3  -4  -3    1.65    1.19
   3   4   3    2.31    0.72
   3   4   3    4.31    1.02
  -4  -4  -3    5.23    1.47
   4   4   3    6.33    1.14
   4   4   3    5.67    1.02
  -5  -4  -3    2.83    1.47
   5   4   3    5.47    1.08
   5   4   3    4.46    1.10
  -6  -4  -3    2.73    1.55
  -6  -4  -3    4.00    0.98
   6   4   3    4.01    1.06
   6   4   3    2.87    0.94
  -7  -4  -3    0.68    1.68
   7   4   3    0.31    0.89
   7   4   3    0.35    0.88
   7  -5  -3    4.23    1.28
   7  -5  -3    4.06    1.29
  -7   5   3    3.24    1.48
   6  -5  -3    1.88    1.21
   6  -5  -3    2.88    1.14
  -6   5   3    2.78    1.33
   5  -5  -3    1.59    1.02
   5  -5  -3    3.16    1.26
   5  -5  -3    3.76    1.19
  -5   5   3    2.19    1.22
   4  -5  -3    1.43    1.05
   4  -5  -3    0.33    1.06
   4  -5  -3    2.71    1.00
  -4   5   3    1.35    1.10
   3  -5  -3    6.65    1.41
   3  -5  -3    8.31    1.40
   3  -5  -3    6.45    1.37
   2  -5  -3    4.62    1.23
   2  -5  -3    4.37    1.37
   2  -5  -3    3.89    1.29
   1  -5  -3    4.05    1.40
   1  -5  -3    3.98    1.28
  -1   5   3    3.62    1.33
   0  -5  -3   34.18    3.12
   0  -5  -3   39.53    3.12
   0   5   3   40.02    3.29
  -1  -5  -3    3.61    1.27
  -1  -5  -3    2.11    1.32
   1   5   3    4.33    1.27
  -2  -5  -3    4.33    1.47
  -2  -5  -3    3.14    1.29
   2   5   3    4.24    1.20
  -3  -5  -3    0.59    1.49
   3   5   3    1.01    0.94
  -4  -5  -3    3.51    1.54
   4   5   3    3.73    1.13
  -5  -5  -3    9.60    1.96
   5   5   3    8.27    1.64
   7   5  -4    4.43    1.72
  -7  -5   4    2.67    1.07
   6   5  -4    3.97    1.57
  -6  -5   4    4.97    1.17
   5   5  -4    4.15    1.46
   5   5  -4    4.62    1.03
   4   5  -4    4.71    1.12
   4   5  -4    6.54    1.55
   3   5  -4    3.65    1.19
   3   5  -4    2.56    0.97
   3   5  -4    1.24    1.23
   2   5  -4    2.65    1.07
   2   5  -4    1.47    1.22
  -2  -5   4    1.25    0.99
   1   5  -4    2.01    0.97
   1   5  -4    3.87    1.29
  -1  -5   4    2.46    1.03
  -1  -5   4    4.51    1.22
   0   5  -4    8.03    1.51
   0  -5   4    6.53    1.26
   0  -5   4    7.13    1.53
  -1   5  -4    6.97    1.55
   1  -5   4    8.18    1.38
   1  -5   4    9.92    1.57
  -2   5  -4    2.44    1.17
   2  -5   4    1.87    1.05
   2  -5   4    1.82    1.03
  -3   5  -4    6.17    1.48
   3  -5   4    5.95    1.29
   3  -5   4    6.27    1.38
  -4   5  -4    1.18    1.33
   4  -5   4    1.14    1.03
   4  -5   4    1.11    1.02
  10   4  -4    3.41    1.61
 -10  -4   4    5.08    1.27
   9   4  -4   13.38    2.20
  -9  -4   4   10.64    1.64
   8   4  -4    6.47    1.78
   8   4  -4    4.57    1.13
  -8  -4   4    8.56    1.37
   7   4  -4    0.92    0.58
   7   4  -4    2.23    1.34
  -7  -4   4    2.54    0.92
   6   4  -4   27.69    1.97
   6   4  -4   22.76    2.69
  -6  -4   4   24.31    2.26
   5   4  -4    4.24    0.81
   5   4  -4    6.43    1.49
  -5  -4   4    3.47    0.92
   4   4  -4   16.35    1.47
   4   4  -4   14.89    1.94
  -4  -4   4   13.61    1.58
   3   4  -4    3.29    1.02
  -3  -4   4    3.40    0.93
   2   4  -4   10.71    1.45
   2   4  -4   12.68    1.68
  -2  -4   4    8.43    1.28
   1   4  -4   28.30    2.34
   1   4  -4   32.15    2.63
   1   4  -4   28.44    2.03
  -1  -4   4   28.08    2.33
  -1  -4   4   32.15    2.46
   0   4  -4   35.58    2.67
   0   4  -4   44.02    3.15
   0   4  -4   35.81    2.72
   0   4  -4   41.07    2.70
   0  -4   4   36.67    2.84
   0  -4   4   46.96    3.07
  -1   4  -4   48.73    3.50
  -1   4  -4   47.14    3.21
  -1   4  -4   40.21    2.97
   1  -4   4   50.67    3.39
   1  -4   4   49.45    3.28
  -2   4  -4    3.35    0.95
  -2   4  -4    2.92    1.14
   2  -4   4    2.57    0.97
   2  -4   4    3.16    0.95
  -3   4  -4    4.02    1.12
  -3   4  -4    3.97    1.26
   3  -4   4    4.07    1.09
   3  -4   4    4.32    0.85
   3  -4   4    4.20    1.03
  -4   4  -4    4.24    1.20
  -4   4  -4    3.10    1.30
   4  -4   4    4.42    1.08
   4  -4   4    3.61    0.79
   4  -4   4    4.30    1.04
  -5   4  -4    6.65    1.50
  -5   4  -4    8.21    1.63
   5  -4   4    9.79    1.50
   5  -4   4    7.95    1.29
  -6   4  -4    4.31    1.53
  -6   4  -4    3.98    1.42
   6  -4   4    8.03    1.39
   6  -4   4    5.59    1.13
  11   3  -4    5.16    1.18
  11   3  -4    5.35    1.57
 -11  -3   4    7.06    1.41
  10   3  -4    1.96    1.23
  10   3  -4    0.38    0.70
 -10  -3   4    0.83    0.87
   9   3  -4   10.57    1.40
   9   3  -4    7.35    1.65
   9   3  -4   10.42    1.11
  -9  -3   4    9.69    1.39
   8   3  -4   29.85    1.94
   8   3  -4   24.71    2.71
   8   3  -4   24.17    2.15
  -8  -3   4   25.87    2.23
   7   3  -4   48.30    3.74
   7   3  -4   47.44    2.98
   7   3  -4   44.78    3.17
  -7  -3   4   48.23    3.30
   6   3  -4    4.88    0.66
   6   3  -4    5.08    0.81
   6   3  -4    4.67    1.18
  -6  -3   4    5.68    0.98
   5   3  -4    6.25    0.81
   5   3  -4    5.92    0.76
   5   3  -4    5.32    0.71
   5   3  -4    5.64    1.20
  -5  -3   4    6.89    1.02
   4   3  -4    7.59    0.78
   4   3  -4    8.72    0.89
   4   3  -4    6.76    1.22
   4   3  -4    6.64    0.76
  -4  -3   4    8.09    1.00
  -4  -3   4    6.39    0.96
   3   3  -4    1.39    0.73
  -3  -3   4    2.46    0.70
  -3  -3   4    2.39    0.66
   2   3  -4    1.46    0.40
   2   3  -4    1.21    0.38
   2   3  -4    1.14    0.63
  -2  -3   4    1.31    0.57
  -2  -3   4    1.55    0.66
   1   3  -4   12.02    1.10
   1   3  -4   15.58    1.62
   1   3  -4   12.68    1.27
   1   3  -4   13.98    1.13
  -1  -3   4   11.16    1.20
  -1  -3   4   10.98    1.25
   0   3  -4   24.54    2.03
   0   3  -4   20.32    1.62
   0   3  -4   22.55    1.65
   0  -3   4   20.08    1.74
   0  -3   4   20.44    1.76
  -1   3  -4   26.34    2.15
  -1   3  -4   22.11    1.64
  -1   3  -4   24.20    2.00
  -1   3  -4   24.10    1.93
   1  -3   4   26.19    1.95
   1  -3   4   23.81    1.92
  -2   3  -4   16.16    1.64
  -2   3  -4   13.96    1.67
   2  -3   4   13.82    1.43
   2  -3   4   14.21    1.49
   2  -3   4   15.08    1.28
  -3   3  -4    3.21    1.02
  -3   3  -4    1.13    0.95
   3  -3   4    2.46    0.60
   3  -3   4    1.51    0.71
   3  -3   4    1.32    0.78
   3  -3   4    2.02    0.53
   3  -3   4    1.51    0.50
  -4   3  -4   -0.02    0.96
  -4   3  -4    0.61    0.88
   4  -3   4    1.34    0.75
   4  -3   4    1.04    0.47
   4  -3   4    1.15    0.66
  -5   3  -4    2.42    1.11
  -5   3  -4    1.36    1.15
   5  -3   4    1.93    0.50
   5  -3   4    2.03    0.83
   5  -3   4    3.20    0.84
  -6   3  -4    7.40    1.54
  -6   3  -4    6.28    1.53
   6  -3   4    6.35    1.15
   6  -3   4    7.24    1.11
  -7   3  -4    0.01    1.06
  -7   3  -4   -0.12    1.23
   7  -3   4   -0.45    0.71
   7  -3   4   -0.12    0.77
  -8   3  -4    7.17    1.81
  -8   3  -4    9.50    1.86
   8  -3   4    8.43    1.38
   8  -3   4   11.88    1.43
  12   2  -4    0.75    0.83
  12   2  -4    0.53    1.07
 -12  -2   4    1.32    1.11
  11   2  -4    1.69    0.88
  11   2  -4    4.06    1.27
 -11  -2   4    2.73    1.07
  10   2  -4    0.67    0.49
  10   2  -4   -0.51    0.61
  10   2  -4    0.03    0.89
 -10  -2   4    0.31    0.80
   9   2  -4   14.82    1.60
   9   2  -4   15.22    1.20
   9   2  -4   11.99    1.76
  -9  -2   4   12.72    1.45
   8   2  -4   32.41    2.50
   8   2  -4   33.86    2.82
   8   2  -4   34.81    2.14
   8   2  -4   30.65    2.12
  -8  -2   4   35.41    2.37
  -8  -2   4   29.07    2.19
  -8  -2   4   35.18    2.50
  -8  -2   4   31.54    2.29
   7   2  -4   25.01    1.59
   7   2  -4   23.64    1.91
   7   2  -4   22.18    2.14
   7   2  -4   22.85    1.63
  -7  -2   4   23.88    1.73
  -7  -2   4   24.01    1.94
  -7  -2   4   23.31    1.70
   6   2  -4    8.72    0.83
   6   2  -4   10.00    1.06
   6   2  -4    9.31    1.34
   6   2  -4    7.21    0.70
  -6  -2   4    7.49    0.77
  -6  -2   4    7.86    1.06
   5   2  -4    2.88    0.52
   5   2  -4    2.06    0.79
   5   2  -4    1.66    0.47
   5   2  -4    2.78    0.60
  -5  -2   4    2.44    0.58
  -5  -2   4    1.67    0.60
   4   2  -4  108.14    6.67
   4   2  -4  112.19    6.43
   4   2  -4  105.20    6.31
   4   2  -4  110.43    6.44
   4   2  -4  111.43    6.45
   4   2  -4  105.82    6.46
  -4  -2   4  108.10    6.52
  -4  -2   4  107.93    6.45
   3   2  -4   23.93    1.89
   3   2  -4   23.83    1.66
   3   2  -4   25.64    1.67
   3   2  -4   24.81    1.77
   3   2  -4   23.78    1.70
  -3  -2   4   26.06    1.81
  -3  -2   4   23.36    1.73
  -3  -2   4   23.30    1.91
   2   2  -4  100.46    5.97
   2   2  -4  101.13    6.05
   2   2  -4  106.95    5.99
   2   2  -4  100.17    6.01
   2   2  -4   98.76    6.00
   2   2  -4  107.77    6.14
  -2  -2   4  101.84    6.04
  -2  -2   4   99.38    6.03
  -2  -2   4  101.27    6.07
  -2  -2   4   93.01    6.11
   1   2  -4   12.64    1.13
   1   2  -4   12.39    1.09
   1   2  -4   11.58    1.07
   1   2  -4   12.61    1.11
   1   2  -4   14.16    1.46
   1   2  -4   13.47    1.09
  -1  -2   4   10.80    1.08
  -1  -2   4   11.06    1.08
  -1  -2   4   12.14    1.11
   0   2  -4    3.17    0.53
   0   2  -4    2.83    0.84
   0   2  -4    3.04    0.61
   0   2  -4    3.20    0.56
   0   2  -4    2.49    0.60
   0  -2   4    3.16    0.45
   0  -2   4    3.25    0.45
   0  -2   4    2.93    0.59
   0  -2   4    3.72    0.69
  -1   2  -4  299.85   16.85
  -1   2  -4  295.52   16.70
  -1   2  -4  273.65   16.79
  -1   2  -4  291.36   16.99
  -1   2  -4  297.86   16.68
  -1   2  -4  296.04   16.93
  -1   2  -4  297.00   16.90
   1  -2   4  301.23   16.76
   1  -2   4  286.66   16.76
   1  -2   4  289.26   16.83
   1  -2   4  263.59   16.82
  -2   2  -4   64.00    4.02
  -2   2  -4   57.95    3.96
   2  -2   4   60.94    3.76
   2  -2   4   57.46    3.76
  -3   2  -4   39.06    3.04
  -3   2  -4   43.65    3.04
   3  -2   4   43.92    2.80
   3  -2   4   38.61    2.50
  -4   2  -4    9.08    1.45
  -4   2  -4    6.16    1.21
   4  -2   4    7.00    0.67
   4  -2   4    8.08    1.06
  -5   2  -4    7.90    1.51
  -5   2  -4    6.55    1.31
   5  -2   4    7.89    1.13
   5  -2   4    5.52    0.57
  -6   2  -4    6.43    1.42
  -6   2  -4    8.26    1.42
   6  -2   4    8.41    1.27
  -7   2  -4   18.85    2.21
  -7   2  -4   13.25    1.96
   7  -2   4   16.80    1.85
  -8   2  -4   14.22    2.07
  -8   2  -4   11.35    1.90
   8  -2   4   12.12    1.66
  -9   2  -4    0.95    1.34
  -9   2  -4    0.33    1.43
   9  -2   4    2.09    1.01
  13   1  -4    0.95    1.01
  13   1  -4    0.43    0.82
 -13  -1   4    1.32    1.31
  12   1  -4    7.54    1.51
 -12  -1   4    7.30    1.62
  11   1  -4    8.00    1.45
  11   1  -4   11.42    1.71
 -11  -1   4   10.45    1.69
  10   1  -4   -0.23    0.77
  10   1  -4    0.10    0.66
 -10  -1   4   -0.20    0.92
   9   1  -4    0.33    0.23
   9   1  -4    0.89    0.65
   9   1  -4    0.44    0.71
   9   1  -4    0.18    0.44
  -9  -1   4   -0.24    0.43
  -9  -1   4    0.52    0.85
   8   1  -4   -0.52    0.47
   8   1  -4    0.13    0.67
   8   1  -4    0.33    0.20
   8   1  -4    0.27    0.38
  -8  -1   4    0.13    0.35
  -8  -1   4   -0.55    0.70
  -8  -1   4   -0.23    0.57
   7   1  -4   23.41    1.55
   7   1  -4   23.34    2.10
   7   1  -4   25.39    1.79
   7   1  -4   25.07    1.97
  -7  -1   4   26.30    2.12
  -7  -1   4   26.39    1.64
  -7  -1   4   26.73    1.97
   6   1  -4   43.05    3.06
   6   1  -4   46.66    2.99
  -6  -1   4   43.59    3.00
  -6  -1   4   43.79    2.91
   5   1  -4   10.39    1.20
   5   1  -4    8.95    0.95
   5   1  -4    9.26    0.99
  -5  -1   4    7.77    1.08
  -5  -1   4    8.87    0.78
  -5  -1   4    6.75    0.91
  -5  -1   4    8.03    0.90
   4   1  -4   33.57    2.22
   4   1  -4   33.35    2.23
   4   1  -4   32.28    2.31
  -4  -1   4   31.24    2.32
  -4  -1   4   33.85    2.07
  -4  -1   4   33.44    2.17
  -4  -1   4   32.15    2.19
   3   1  -4   22.15    1.54
   3   1  -4   21.77    1.54
   3   1  -4   21.62    1.61
   3   1  -4   19.96    1.38
  -3  -1   4   19.72    1.61
  -3  -1   4   19.61    1.47
  -3  -1   4   22.80    1.47
  -3  -1   4   21.09    1.50
  -3  -1   4   20.94    1.50
   2   1  -4    3.03    0.35
   2   1  -4    3.55    0.62
   2   1  -4    3.49    0.58
   2   1  -4    3.70    0.44
   2   1  -4    3.85    0.64
  -2  -1   4    3.57    0.50
  -2  -1   4    3.82    0.53
  -2  -1   4    3.43    0.61
  -2  -1   4    2.89    0.50
   1   1  -4   26.85    1.77
   1   1  -4   26.62    1.64
   1   1  -4   24.98    1.70
   1   1  -4   27.85    1.82
   1   1  -4   24.60    1.82
   1   1  -4   25.78    1.94
  -1  -1   4   23.87    1.69
  -1  -1   4   26.20    1.78
  -1  -1   4   26.39    1.73
  -1  -1   4   23.89    1.67
  -1  -1   4   26.93    1.77
   0   1  -4  231.88   13.32
   0   1  -4  232.29   13.20
   0   1  -4  221.21   13.20
   0   1  -4  225.65   13.36
   0   1  -4  223.45   13.23
   0  -1   4  228.06   13.36
   0  -1   4  226.31   13.22
   0  -1   4  239.57   13.28
   0  -1   4  231.64   13.29
  -1   1  -4    8.43    0.90
  -1   1  -4    9.59    1.08
  -1   1  -4    9.27    1.12
  -1   1  -4    8.59    1.05
  -1   1  -4    9.76    0.72
   1  -1   4   10.00    1.05
   1  -1   4   10.50    1.08
   1  -1   4   11.52    1.03
   1  -1   4    9.85    0.82
  -2   1  -4   21.55    1.78
  -2   1  -4   21.46    1.72
  -2   1  -4   20.67    1.82
  -2   1  -4   20.61    1.58
   2  -1   4   20.48    1.41
   2  -1   4   21.72    1.60
   2  -1   4   22.86    1.71
   2  -1   4   21.62    1.64
  -3   1  -4   46.61    3.12
  -3   1  -4   40.25    3.19
   3  -1   4   42.08    2.73
   3  -1   4   49.10    3.04
   3  -1   4   43.07    2.94
   3  -1   4   49.87    3.11
  -4   1  -4   14.86    1.57
  -4   1  -4   10.42    1.49
   4  -1   4   13.99    1.38
   4  -1   4   13.02    1.01
  -5   1  -4    0.18    0.75
  -5   1  -4    0.48    0.80
   5  -1   4    1.01    0.62
  -6   1  -4    7.82    1.58
  -6   1  -4    9.14    1.44
   6  -1   4    9.86    1.39
   6  -1   4    9.00    0.95
  -7   1  -4   25.54    2.43
  -7   1  -4   16.35    2.17
   7  -1   4   27.46    2.27
  -8   1  -4   -1.03    1.00
  -8   1  -4    1.37    1.24
   8  -1   4    1.81    0.98
  -9   1  -4   13.07    1.94
  -9   1  -4    7.60    1.79
   9  -1   4    8.08    1.46
  13   0  -4    2.30    1.04
  13   0  -4    2.73    1.02
 -13   0   4    3.00    1.50
  12   0  -4    5.90    1.18
  12   0  -4    3.68    1.04
 -12   0   4    5.06    1.64
  11   0  -4    2.52    0.91
  11   0  -4    1.36    0.79
 -11   0   4    1.17    1.19
  10   0  -4    7.68    1.23
  10   0  -4    6.03    1.14
 -10   0   4    7.94    1.65
   9   0  -4    9.53    1.29
   9   0  -4   10.37    1.34
   9   0  -4    9.79    0.86
  -9   0   4   12.01    1.70
   8   0  -4    0.42    0.31
   8   0  -4    0.66    0.56
   8   0  -4    0.92    0.58
  -8   0   4    0.62    0.43
  -8   0   4   -0.97    0.74
   7   0  -4    5.14    0.91
   7   0  -4    5.69    0.90
  -7   0   4    3.97    1.00
  -7   0   4    4.32    0.62
   6   0  -4   37.06    2.51
   6   0  -4   33.77    2.47
   6   0  -4   33.66    2.34
  -6   0   4   34.22    2.52
  -6   0   4   33.59    2.62
  -6   0   4   32.79    2.47
  -6   0   4   38.51    2.20
   5   0  -4  368.57   20.64
   5   0  -4  390.37   20.66
   5   0  -4  354.76   20.64
  -5   0   4  337.87   20.60
  -5   0   4  347.05   20.64
  -5   0   4  337.10   20.66
   4   0  -4  103.72    5.93
   4   0  -4   99.96    5.93
   4   0  -4  100.33    5.91
  -4   0   4  100.18    5.94
  -4   0   4   95.80    5.90
  -4   0   4   87.06    5.93
   3   0  -4    4.32    0.67
   3   0  -4    2.79    0.61
   3   0  -4    3.13    0.59
  -3   0   4    2.23    0.55
  -3   0   4    3.15    0.39
  -3   0   4    1.21    0.58
  -3   0   4    2.97    0.61
   2   0  -4    7.52    0.81
   2   0  -4    6.86    0.85
   2   0  -4    5.48    0.75
   2   0  -4    6.90    0.62
  -2   0   4    8.25    0.87
  -2   0   4    6.94    0.84
  -2   0   4    6.96    0.61
  -2   0   4    6.23    0.79
   1   0  -4    3.46    0.68
   1   0  -4    3.57    0.63
   1   0  -4    3.52    0.62
   1   0  -4    3.26    0.44
   1   0  -4    3.05    0.60
  -1   0   4    4.05    0.50
  -1   0   4    4.24    0.63
  -1   0   4    3.72    0.38
  -1   0   4    3.40    0.59
  -1   0   4    3.84    0.64
   0   0  -4   12.42    1.12
   0   0  -4   12.15    1.18
   0   0  -4   12.40    0.98
   0   0   4   12.80    1.11
   0   0   4   11.94    1.07
   0   0   4   12.20    1.17
   0   0   4   13.18    1.01
   0   0   4   13.20    1.11
  -1   0  -4   17.45    1.43
  -1   0  -4   15.60    1.47
  -1   0  -4   15.60    1.24
  -1   0  -4   17.86    1.36
   1   0   4   16.37    1.33
   1   0   4   18.11    1.33
   1   0   4   17.27    1.27
   1   0   4   15.71    1.35
  -2   0  -4    3.07    0.65
  -2   0  -4    1.19    0.63
  -2   0  -4    3.07    0.52
  -2   0  -4    3.04    0.64
   2   0   4    2.57    0.61
   2   0   4    2.44    0.53
   2   0   4    4.20    0.67
   2   0   4    4.06    0.72
  -3   0  -4   -0.23    0.57
  -3   0  -4    0.86    0.57
   3   0   4    1.37    0.51
   3   0   4    0.40    0.43
   3   0   4    1.26    0.48
  -4   0  -4  151.28    8.76
   4   0   4  140.79    8.63
   4   0   4  144.21    8.80
  -5   0  -4   12.66    1.46
  -5   0  -4    9.64    1.49
   5   0   4   10.82    1.26
   5   0   4   12.67    1.51
  -6   0  -4    4.65    1.17
  -6   0  -4    5.71    1.15
   6   0   4    4.84    0.93
   6   0   4    4.95    1.02
   6   0   4    5.65    0.57
  -7   0  -4   -0.59    0.81
  -7   0  -4   -0.25    0.80
  -7   0  -4   -0.04    0.95
   7   0   4   -0.05    0.61
   7   0   4    0.93    0.80
  -8   0  -4   -0.18    0.99
  -8   0  -4    1.98    1.19
  -8   0  -4    1.42    1.37
   8   0   4    2.62    0.89
   8   0   4    1.62    0.82
   8   0   4    1.63    0.91
  -9   0  -4   13.01    2.07
  -9   0  -4    8.31    1.80
   9   0   4   12.14    1.59
   9   0   4   11.97    1.73
 -10   0  -4    4.04    1.73
  10   0   4    4.13    1.31
  13  -1  -4    0.77    0.84
 -13   1   4    2.16    1.57
  12  -1  -4    5.76    1.13
  12  -1  -4    3.15    1.01
 -12   1   4    3.79    1.56
  11  -1  -4   10.36    1.36
  11  -1  -4    5.34    1.15
 -11   1   4    7.38    1.76
  10  -1  -4   -0.55    0.59
  10  -1  -4    0.75    0.69
 -10   1   4   -0.11    1.08
   9  -1  -4    0.04    0.57
   9  -1  -4    0.31    0.20
   9  -1  -4    1.02    0.64
  -9   1   4    0.27    1.00
   8  -1  -4    0.61    0.56
   8  -1  -4    0.74    0.58
  -8   1   4    0.20    0.88
   7  -1  -4   23.94    1.98
   7  -1  -4   24.61    1.96
  -7   1   4   23.54    2.29
   6  -1  -4   40.02    2.82
   6  -1  -4   44.45    2.70
   6  -1  -4   41.18    2.85
  -6   1   4   43.16    2.85
  -6   1   4   36.02    3.03
   5  -1  -4    7.67    0.98
   5  -1  -4    6.53    0.89
   5  -1  -4    8.95    1.06
   5  -1  -4    8.24    0.80
  -5   1   4    9.24    1.06
  -5   1   4    9.09    0.69
  -5   1   4    8.66    1.21
  -5   1   4    7.77    1.01
   4  -1  -4   30.59    2.22
   4  -1  -4   31.37    2.22
   4  -1  -4   33.49    2.24
   4  -1  -4   30.66    2.02
  -4   1   4   35.35    2.29
  -4   1   4   30.86    2.26
  -4   1   4   31.41    2.39
   3  -1  -4   22.75    1.58
   3  -1  -4   19.64    1.36
   3  -1  -4   19.43    1.60
   3  -1  -4   19.47    1.58
  -3   1   4   20.53    1.63
  -3   1   4   22.97    1.63
  -3   1   4   19.26    1.71
   2  -1  -4    2.11    0.63
   2  -1  -4    3.21    0.42
   2  -1  -4    4.01    0.64
   2  -1  -4    2.44    0.64
  -2   1   4    3.65    0.63
  -2   1   4    3.09    0.60
  -2   1   4    2.83    0.67
  -2   1   4    3.19    0.64
   1  -1  -4   25.08    1.62
   1  -1  -4   27.93    1.90
   1  -1  -4   26.59    1.98
   1  -1  -4   25.60    1.82
  -1   1   4   25.83    1.92
  -1   1   4   26.17    1.84
  -1   1   4   28.55    1.97
  -1   1   4   27.05    1.89
  -1   1   4   26.53    1.68
   0  -1  -4  227.84   13.51
   0  -1  -4  222.64   13.26
   0  -1  -4  240.99   13.47
   0  -1  -4  221.27   13.40
   0  -1  -4  224.63   13.31
   0   1   4  234.35   13.47
   0   1   4  245.58   13.51
   0   1   4  231.96   13.28
   0   1   4  230.55   13.38
  -1  -1  -4    9.64    0.95
  -1  -1  -4    9.41    0.89
  -1  -1  -4    7.21    1.05
  -1  -1  -4    9.99    1.10
  -1  -1  -4    9.29    0.90
   1   1   4    9.76    1.05
   1   1   4   10.30    1.00
   1   1   4   10.41    0.83
  -2  -1  -4   21.73    1.77
  -2  -1  -4   23.78    1.63
  -2  -1  -4   22.39    1.51
  -2  -1  -4   19.91    1.81
  -2  -1  -4   21.70    1.75
   2   1   4   21.75    1.54
   2   1   4   19.21    1.62
   2   1   4   24.47    1.82
   2   1   4   22.58    1.74
  -3  -1  -4   48.81    3.13
  -3  -1  -4   43.54    3.19
  -3  -1  -4   50.06    3.02
   3   1   4   43.27    3.09
   3   1   4   44.92    3.01
   3   1   4   45.68    2.78
   3   1   4   44.43    2.94
  -4  -1  -4   12.09    1.51
  -4  -1  -4   16.44    1.43
   4   1   4   15.34    1.48
   4   1   4   12.30    1.00
   4   1   4   15.03    1.34
  -5  -1  -4    0.05    0.67
  -5  -1  -4   -0.15    0.77
   5   1   4    1.60    0.75
   5   1   4    0.32    0.30
   5   1   4    1.33    0.61
  -6  -1  -4   10.13    1.42
  -6  -1  -4    9.35    1.50
  -6  -1  -4    9.17    1.33
   6   1   4    7.85    1.19
   6   1   4    9.88    1.46
  -7  -1  -4   30.95    2.57
  -7  -1  -4   28.45    2.32
  -7  -1  -4   24.68    2.59
   7   1   4   26.56    2.47
   7   1   4   25.93    2.23
  -8  -1  -4    2.09    1.20
  -8  -1  -4    1.44    1.20
  -8  -1  -4    1.11    1.09
   8   1   4    1.75    0.86
   8   1   4    0.79    0.90
  -9  -1  -4   11.44    2.13
   9   1   4    7.58    1.51
   9   1   4   13.92    1.67
   9   1   4   10.26    1.65
  12  -2  -4    0.54    0.86
 -12   2   4    1.57    1.41
  11  -2  -4    2.00    0.94
  11  -2  -4    1.65    0.80
 -11   2   4    3.11    1.53
  10  -2  -4   -0.29    0.67
  10  -2  -4    0.37    0.65
 -10   2   4    0.44    1.17
   9  -2  -4   11.32    1.54
   9  -2  -4   15.76    1.56
  -9   2   4   13.67    2.03
   8  -2  -4   28.02    2.48
   8  -2  -4   32.72    2.42
   8  -2  -4   33.70    1.98
  -8   2   4   29.03    2.87
   7  -2  -4   21.28    1.51
   7  -2  -4   25.93    1.98
   7  -2  -4   20.66    1.79
  -7   2   4   19.79    2.25
   6  -2  -4    7.72    1.03
   6  -2  -4    8.07    1.07
   6  -2  -4    7.23    0.86
  -6   2   4    7.19    1.31
  -6   2   4    8.94    0.84
  -6   2   4    8.92    1.17
   5  -2  -4    2.47    0.68
   5  -2  -4    2.89    0.64
   5  -2  -4    1.83    0.45
   5  -2  -4    1.83    0.52
   5  -2  -4    1.51    0.58
  -5   2   4    2.41    0.50
  -5   2   4    1.78    0.83
  -5   2   4    2.74    0.71
   4  -2  -4  105.87    6.30
   4  -2  -4  104.92    6.31
   4  -2  -4  100.38    6.19
   4  -2  -4  105.91    6.10
  -4   2   4  100.19    6.44
  -4   2   4  110.21    6.16
  -4   2   4   99.76    6.36
   3  -2  -4   23.19    1.48
   3  -2  -4   22.50    1.68
   3  -2  -4   23.02    1.75
   3  -2  -4   24.80    1.80
  -3   2   4   23.61    1.96
  -3   2   4   25.38    1.83
  -3   2   4   23.95    1.88
   2  -2  -4  100.37    6.07
   2  -2  -4   99.55    6.01
   2  -2  -4  102.52    6.11
  -2   2   4   95.76    6.14
  -2   2   4  105.91    6.01
  -2   2   4  100.29    6.23
  -2   2   4  106.18    6.12
  -2   2   4   96.90    6.14
   1  -2  -4   12.16    1.22
   1  -2  -4   13.71    1.27
   1  -2  -4   13.13    1.16
  -1   2   4   12.56    1.29
  -1   2   4   14.92    1.37
  -1   2   4   14.19    1.11
  -1   2   4   12.15    1.20
   0  -2  -4    4.14    0.65
   0  -2  -4    2.64    0.70
   0  -2  -4    3.39    0.72
   0   2   4    2.38    0.62
   0   2   4    2.95    0.67
   0   2   4    3.35    0.73
   0   2   4    3.45    0.43
   0   2   4    2.69    0.54
  -1  -2  -4  306.45   17.23
  -1  -2  -4  304.42   17.20
  -1  -2  -4  285.43   17.29
   1   2   4  297.49   17.29
   1   2   4  303.02   17.06
   1   2   4  286.28   17.27
  -2  -2  -4   63.36    3.85
  -2  -2  -4   57.94    3.91
  -2  -2  -4   62.91    3.81
   2   2   4   59.91    3.87
   2   2   4   59.91    3.89
   2   2   4   59.52    3.73
   2   2   4   61.11    3.69
  -3  -2  -4   36.96    2.83
  -3  -2  -4   41.87    2.55
  -3  -2  -4   42.60    2.78
  -3  -2  -4   42.98    2.96
   3   2   4   40.96    2.86
   3   2   4   37.37    2.60
   3   2   4   39.74    2.63
   3   2   4   42.71    2.81
  -4  -2  -4    7.29    1.12
  -4  -2  -4    7.74    1.08
  -4  -2  -4    7.86    1.29
  -4  -2  -4    7.15    0.79
   4   2   4    5.86    0.79
   4   2   4    6.65    1.01
   4   2   4    7.19    1.14
   4   2   4    8.50    1.09
  -5  -2  -4    6.97    1.24
  -5  -2  -4   10.66    1.57
  -5  -2  -4    8.45    0.92
   5   2   4    8.65    1.21
   5   2   4    8.55    1.33
  -6  -2  -4    9.73    1.05
  -6  -2  -4    8.92    1.48
  -6  -2  -4    6.97    1.42
   6   2   4    7.57    1.30
   6   2   4    9.25    1.26
  -7  -2  -4   16.73    2.14
  -7  -2  -4   17.39    1.60
  -7  -2  -4   16.93    2.04
   7   2   4   20.47    1.95
   7   2   4   16.16    2.06
  -8  -2  -4   12.99    1.96
  -8  -2  -4   13.08    1.99
   8   2   4   17.55    1.96
   8   2   4   14.18    1.92
  -9  -2  -4    0.84    1.30
  -9  -2  -4    4.47    1.66
   9   2   4    1.09    1.04
   9   2   4    2.96    1.13
  11  -3  -4    6.99    1.39
 -11   3   4    7.02    1.96
  10  -3  -4   -0.64    0.74
 -10   3   4    0.01    1.24
 -10   3   4   -0.99    1.11
   9  -3  -4    9.04    1.36
  -9   3   4    7.95    1.45
  -9   3   4    8.11    1.81
   8  -3  -4   22.98    2.11
  -8   3   4   20.63    2.48
  -8   3   4   26.81    2.20
   7  -3  -4   49.50    3.23
   7  -3  -4   47.19    2.97
   7  -3  -4   47.85    3.24
  -7   3   4   39.12    3.58
  -7   3   4   44.67    3.20
   6  -3  -4    4.62    0.75
   6  -3  -4    5.26    0.80
   6  -3  -4    4.92    0.89
   6  -3  -4    5.25    0.89
   6  -3  -4    4.34    0.82
  -6   3   4    4.49    1.23
  -6   3   4    5.25    0.93
   5  -3  -4    5.76    0.92
   5  -3  -4    5.09    0.86
   5  -3  -4    5.92    0.75
   5  -3  -4    5.65    0.90
   5  -3  -4    6.35    0.90
  -5   3   4    4.79    1.15
  -5   3   4    6.63    0.86
   4  -3  -4    6.10    0.95
   4  -3  -4    7.01    0.74
   4  -3  -4    6.26    0.86
   4  -3  -4    7.37    0.91
   4  -3  -4    7.21    0.99
  -4   3   4    5.85    1.09
  -4   3   4    6.37    0.74
   3  -3  -4    2.68    0.66
   3  -3  -4    2.89    0.58
   3  -3  -4    1.28    0.82
   3  -3  -4    2.17    0.78
  -3   3   4    1.74    0.79
  -3   3   4    2.04    0.37
   2  -3  -4    2.02    0.85
   2  -3  -4    1.98    0.47
   2  -3  -4    0.53    0.54
   2  -3  -4    1.41    0.48
   2  -3  -4   -0.07    0.80
  -2   3   4    2.04    0.68
  -2   3   4    0.76    0.72
   1  -3  -4   14.22    1.41
   1  -3  -4   11.55    1.06
   1  -3  -4   11.29    1.40
  -1   3   4   12.71    1.44
  -1   3   4   13.07    1.12
  -1   3   4   11.99    1.32
   0  -3  -4   21.82    1.82
   0  -3  -4   20.55    1.90
   0  -3  -4   19.23    1.44
   0   3   4   21.41    1.71
   0   3   4   19.33    1.48
   0   3   4   21.99    1.84
  -1  -3  -4   26.59    1.98
  -1  -3  -4   23.41    2.10
  -1  -3  -4   22.21    1.60
   1   3   4   20.52    1.48
   1   3   4   25.60    2.00
   1   3   4   22.18    1.59
   1   3   4   25.53    1.87
  -2  -3  -4   12.03    1.14
  -2  -3  -4   12.76    1.40
  -2  -3  -4   13.05    1.11
  -2  -3  -4   13.60    1.68
   2   3   4   13.11    1.44
   2   3   4   11.98    1.03
   2   3   4   15.50    1.39
  -3  -3  -4    1.65    0.55
  -3  -3  -4    0.51    1.01
  -3  -3  -4    1.28    0.65
   3   3   4    2.68    0.79
   3   3   4    1.63    0.47
   3   3   4    2.78    0.81
  -4  -3  -4    1.10    0.73
  -4  -3  -4    0.33    0.56
  -4  -3  -4    1.21    1.13
   4   3   4    2.10    0.79
   4   3   4    0.32    0.70
  -5  -3  -4    1.99    0.84
  -5  -3  -4    2.31    1.28
  -5  -3  -4    2.33    0.71
   5   3   4    1.90    0.81
   5   3   4    1.53    0.83
  -6  -3  -4    7.29    0.99
  -6  -3  -4    6.49    1.21
  -6  -3  -4    8.77    1.65
   6   3   4    7.42    1.32
   6   3   4    5.62    1.24
  -7  -3  -4   -0.11    1.32
  -7  -3  -4    0.52    1.03
   7   3   4   -0.12    0.86
   7   3   4    0.22    0.88
  -8  -3  -4   11.25    1.96
   8   3   4    8.78    1.64
   8   3   4    8.34    1.63
  10  -4  -4    4.10    1.12
  10  -4  -4    6.96    1.40
 -10   4   4    6.38    1.93
 -10   4   4    4.60    1.39
   9  -4  -4    8.69    1.45
   9  -4  -4    8.61    1.27
  -9   4   4   10.93    1.62
  -9   4   4    9.05    1.95
   8  -4  -4    7.32    1.28
   8  -4  -4    6.68    1.06
  -8   4   4    4.46    1.49
  -8   4   4    4.94    1.25
   7  -4  -4    0.80    0.82
   7  -4  -4    1.11    0.71
   7  -4  -4    1.25    0.69
   7  -4  -4    1.27    1.03
  -7   4   4    1.68    0.85
  -7   4   4    0.64    1.17
   6  -4  -4   24.75    2.21
   6  -4  -4   26.82    2.37
   6  -4  -4   21.33    1.93
   6  -4  -4   24.50    1.86
  -6   4   4   23.84    2.54
  -6   4   4   22.78    1.96
   5  -4  -4    4.73    1.01
   5  -4  -4    3.19    0.93
   5  -4  -4    4.71    1.18
  -5   4   4    5.55    1.25
  -5   4   4    4.44    0.78
   4  -4  -4   15.98    1.62
   4  -4  -4   14.77    1.72
   4  -4  -4   15.54    1.67
  -4   4   4   14.33    1.79
  -4   4   4   13.67    1.26
   3  -4  -4    3.91    1.10
   3  -4  -4    3.77    0.90
   3  -4  -4    5.03    1.15
  -3   4   4    4.04    1.00
  -3   4   4    2.03    0.50
   2  -4  -4   10.53    1.42
   2  -4  -4   10.34    1.44
   2  -4  -4   11.71    1.33
  -2   4   4    8.70    1.23
  -2   4   4   11.30    1.56
  -2   4   4    6.48    0.71
   1  -4  -4   29.88    2.46
   1  -4  -4   25.94    2.58
  -1   4   4   35.17    2.67
  -1   4   4   28.44    2.27
   0  -4  -4   36.21    3.24
   0  -4  -4   41.14    3.16
   0   4   4   45.14    3.20
   0   4   4   43.15    2.93
  -1  -4  -4   45.70    3.69
  -1  -4  -4   53.28    3.64
   1   4   4   51.31    3.43
   1   4   4   51.69    3.65
  -2  -4  -4    4.53    1.19
  -2  -4  -4    3.98    1.41
   2   4   4    4.13    1.02
   2   4   4    2.79    0.77
  -3  -4  -4    2.03    1.36
   3   4   4    5.43    0.99
   3   4   4    4.37    1.07
  -4  -4  -4    3.99    1.51
   4   4   4    3.95    0.99
   4   4   4    4.48    1.09
  -5  -4  -4    7.60    1.71
   5   4   4    7.82    1.40
   5   4   4    6.63    1.26
  -6  -4  -4    4.55    1.64
   6   4   4    6.91    1.34
   6   4   4    5.28    1.27
   7  -5  -4    1.85    1.25
   7  -5  -4    3.80    1.17
  -7   5   4    1.57    1.34
   6  -5  -4    6.01    1.39
   6  -5  -4    2.41    1.08
   6  -5  -4    5.01    1.24
  -6   5   4    3.57    1.37
   5  -5  -4    3.20    1.28
   5  -5  -4    3.48    1.11
   5  -5  -4    5.71    1.26
  -5   5   4    2.48    1.20
   4  -5  -4    6.08    1.34
   4  -5  -4    3.60    1.30
   4  -5  -4    4.46    1.24
  -4   5   4    5.20    1.33
   3  -5  -4    3.44    1.20
   3  -5  -4    3.95    1.10
   3  -5  -4    2.63    1.25
  -3   5   4    2.46    1.39
   2  -5  -4    2.54    1.23
   2  -5  -4    1.89    1.20
  -2   5   4    4.64    1.40
   1  -5  -4    1.59    1.35
   1  -5  -4    3.68    1.30
  -1   5   4    2.51    1.20
   0  -5  -4    5.78    1.48
   0  -5  -4    4.83    1.47
   0   5   4    7.82    1.53
  -1  -5  -4    5.51    1.46
  -1  -5  -4    7.36    1.61
   1   5   4    9.08    1.58
  -2  -5  -4    4.78    1.43
  -2  -5  -4    3.20    1.40
   2   5   4    1.04    1.03
  -3  -5  -4    4.84    1.62
   3   5   4    5.53    1.30
  -4  -5  -4    1.90    1.53
   4   5   4    1.57    0.97
   7   5  -5    1.32    1.40
  -7  -5   5    2.61    1.05
   6   5  -5    4.88    1.57
  -6  -5   5    4.74    1.17
   5   5  -5   18.56    2.46
   4   5  -5   -0.35    1.15
   4   5  -5    1.09    0.87
   4   5  -5   -0.17    1.00
   3   5  -5    0.25    0.96
   3   5  -5    0.65    1.20
  -3  -5   5    0.96    0.96
   2   5  -5    4.81    1.46
   2   5  -5    2.28    1.08
  -2  -5   5    4.79    1.28
   1   5  -5    6.97    1.59
   1   5  -5    4.10    1.57
  -1  -5   5    7.19    1.30
  -1  -5   5    6.63    1.38
   0   5  -5    1.11    1.09
   0  -5   5    0.90    0.95
   0  -5   5    0.29    0.95
  -1   5  -5   -0.20    1.14
   1  -5   5    1.25    1.09
   1  -5   5    0.39    0.92
  -2   5  -5    2.73    1.26
   2  -5   5    1.16    1.09
   2  -5   5    2.20    1.08
  -3   5  -5    0.92    1.28
   3  -5   5    1.11    0.98
   3  -5   5    1.59    1.11
  10   4  -5    0.52    1.45
 -10  -4   5    2.65    1.11
   9   4  -5    2.93    1.49
  -9  -4   5    3.22    1.07
   8   4  -5    5.26    1.61
  -8  -4   5    9.63    1.42
   7   4  -5   28.48    3.06
  -7  -4   5   31.23    2.55
   6   4  -5   23.89    2.69
   6   4  -5   22.25    1.71
  -6  -4   5   19.83    2.13
   5   4  -5    6.17    0.89
   5   4  -5    6.18    1.39
  -5  -4   5    3.79    1.00
   4   4  -5   15.01    1.39
   4   4  -5   12.82    1.75
   4   4  -5   10.59    1.26
  -4  -4   5   12.28    1.51
  -4  -4   5   10.24    1.42
   3   4  -5    1.65    0.93
   3   4  -5    2.54    1.18
  -3  -4   5    2.35    0.85
   2   4  -5   18.32    1.51
   2   4  -5   21.04    2.25
   2   4  -5   18.71    1.85
  -2  -4   5   19.23    1.86
  -2  -4   5   18.09    1.78
   1   4  -5   12.44    1.80
   1   4  -5   13.58    1.49
  -1  -4   5   11.44    1.47
  -1  -4   5   12.50    1.53
   0   4  -5   25.72    2.09
   0   4  -5   23.53    1.96
   0   4  -5   28.45    2.52
   0  -4   5   27.50    2.33
   0  -4   5   25.74    2.21
  -1   4  -5    3.79    0.96
  -1   4  -5    3.87    1.24
   1  -4   5    4.10    0.98
   1  -4   5    4.70    1.12
  -2   4  -5    0.43    0.91
  -2   4  -5    2.40    1.12
   2  -4   5    1.55    0.83
   2  -4   5    1.34    0.87
  -3   4  -5    5.16    1.34
  -3   4  -5    6.94    1.50
   3  -4   5    5.84    1.14
   3  -4   5    6.29    1.23
  -4   4  -5    1.34    1.29
  -4   4  -5    2.60    1.29
   4  -4   5    3.24    1.02
   4  -4   5    2.56    1.01
  -5   4  -5    2.21    1.36
  -5   4  -5    5.22    1.49
   5  -4   5    3.01    1.00
   5  -4   5    3.42    1.12
  -6   4  -5   -0.69    1.19
  11   3  -5    0.42    0.79
  11   3  -5   -0.21    1.07
 -11  -3   5    2.49    1.07
  10   3  -5    1.17    0.80
  10   3  -5    1.47    1.24
 -10  -3   5    1.19    0.90
   9   3  -5  101.85    6.56
   9   3  -5  100.46    7.01
  -9  -3   5  110.08    6.64
   8   3  -5   20.80    2.44
   8   3  -5   21.54    1.91
   8   3  -5   22.30    1.61
  -8  -3   5   24.51    2.08
   7   3  -5   74.84    4.45
   7   3  -5   73.39    4.69
   7   3  -5   69.59    5.13
  -7  -3   5   77.18    4.82
   6   3  -5   19.96    1.35
   6   3  -5   17.07    1.54
   6   3  -5   19.50    2.13
  -6  -3   5   18.99    1.77
   5   3  -5   24.16    1.65
   5   3  -5   20.45    1.72
   5   3  -5   24.72    1.76
   5   3  -5   26.55    2.29
  -5  -3   5   24.41    1.98
  -5  -3   5   25.02    1.94
   4   3  -5    1.50    0.48
   4   3  -5    2.47    0.85
   4   3  -5    1.57    0.50
  -4  -3   5    1.26    0.68
  -4  -3   5    1.09    0.65
   3   3  -5    2.96    0.80
   3   3  -5    1.82    0.50
   3   3  -5    2.15    0.54
  -3  -3   5    2.33    0.69
  -3  -3   5    2.00    0.66
   2   3  -5   32.08    2.23
   2   3  -5   35.08    2.44
   2   3  -5   30.39    2.65
   2   3  -5   33.83    2.23
  -2  -3   5   33.51    2.38
  -2  -3   5   30.72    2.37
   1   3  -5    9.99    1.10
   1   3  -5    9.62    1.16
   1   3  -5   10.46    1.49
  -1  -3   5   11.63    1.26
  -1  -3   5    8.96    1.14
   0   3  -5   86.85    5.31
   0   3  -5   90.72    5.48
   0   3  -5   89.12    5.70
   0  -3   5   83.87    5.44
   0  -3   5   87.84    5.47
  -1   3  -5   14.91    1.71
  -1   3  -5   15.52    1.16
  -1   3  -5   11.95    1.30
  -1   3  -5   14.06    1.57
   1  -3   5   15.95    1.50
   1  -3   5   15.57    1.46
  -2   3  -5  104.28    6.57
  -2   3  -5   97.07    6.45
   2  -3   5  101.68    6.22
   2  -3   5  105.09    6.33
   2  -3   5  100.72    6.06
   2  -3   5  102.36    6.32
  -3   3  -5    0.58    0.97
  -3   3  -5   -0.27    0.87
   3  -3   5    0.57    0.69
   3  -3   5    0.00    0.52
   3  -3   5    0.62    0.82
  -4   3  -5    1.49    1.15
  -4   3  -5    2.50    1.15
   4  -3   5    1.79    0.86
   4  -3   5    1.49    0.71
  -5   3  -5    2.60    1.26
  -5   3  -5    2.19    1.28
   5  -3   5    0.77    0.71
   5  -3   5    1.89    0.93
  -6   3  -5   -0.49    1.16
  -6   3  -5    0.07    1.10
   6  -3   5   -0.40    0.71
   6  -3   5    0.26    0.86
  -7   3  -5    7.32    1.71
  -7   3  -5    5.46    1.55
   7  -3   5    5.51    1.20
   7  -3   5    6.17    1.25
  12   2  -5    1.53    1.19
  12   2  -5    1.53    0.86
 -12  -2   5    1.99    1.12
  11   2  -5    3.94    1.33
  11   2  -5    0.96    0.78
 -11  -2   5    2.68    0.99
  10   2  -5    8.10    1.58
  10   2  -5    6.12    1.14
 -10  -2   5    7.85    1.20
   9   2  -5    5.41    1.05
   9   2  -5    5.62    1.30
  -9  -2   5    5.37    0.94
  -9  -2   5    5.45    1.08
   8   2  -5   95.86    5.95
   8   2  -5   85.79    5.57
   8   2  -5   92.07    6.16
  -8  -2   5   96.84    5.77
  -8  -2   5   96.58    5.91
  -8  -2   5   98.54    5.74
   7   2  -5    7.48    0.79
   7   2  -5    7.93    1.09
   7   2  -5    8.78    1.37
  -7  -2   5    7.69    0.85
  -7  -2   5    7.37    1.10
  -7  -2   5    7.98    0.89
   6   2  -5    0.66    0.71
   6   2  -5   -0.23    0.42
  -6  -2   5    0.21    0.38
  -6  -2   5    0.71    0.56
   5   2  -5   23.96    1.70
   5   2  -5   23.80    1.79
   5   2  -5   23.98    2.09
   5   2  -5   23.51    1.79
  -5  -2   5   25.45    1.84
  -5  -2   5   23.71    1.74
   4   2  -5   47.73    2.98
   4   2  -5   46.69    3.24
   4   2  -5   45.73    3.02
   4   2  -5   48.14    3.02
  -4  -2   5   47.96    3.01
  -4  -2   5   46.27    3.06
   3   2  -5    3.27    0.62
   3   2  -5    3.17    0.58
   3   2  -5    2.33    0.50
   3   2  -5    3.88    0.77
  -3  -2   5    3.48    0.63
  -3  -2   5    2.95    0.75
  -3  -2   5    2.01    0.60
   2   2  -5   28.99    2.08
   2   2  -5   28.55    1.96
   2   2  -5   30.37    2.09
   2   2  -5   30.23    2.04
   2   2  -5   30.00    2.04
  -2  -2   5   29.84    2.01
  -2  -2   5   27.72    2.03
  -2  -2   5   27.32    2.10
  -2  -2   5   31.25    2.07
   1   2  -5    9.15    0.95
   1   2  -5   13.74    1.43
   1   2  -5    9.60    1.09
   1   2  -5   10.17    1.12
   1   2  -5    9.58    1.02
   1   2  -5    8.39    0.86
   1   2  -5   10.38    1.03
  -1  -2   5   12.17    1.05
  -1  -2   5   10.00    1.02
  -1  -2   5   10.36    0.88
  -1  -2   5   12.61    1.17
  -1  -2   5   11.27    0.87
   0   2  -5   10.41    1.36
   0   2  -5   11.31    1.00
   0   2  -5   11.56    1.13
   0   2  -5   11.04    1.05
   0   2  -5   10.60    1.17
   0   2  -5   10.36    0.99
   0  -2   5   11.06    1.01
   0  -2   5   14.82    1.36
   0  -2   5   12.42    1.11
   0  -2   5   11.44    1.01
   0  -2   5   10.96    1.00
  -1   2  -5  130.85    7.69
  -1   2  -5  126.33    7.65
  -1   2  -5  130.08    7.32
  -1   2  -5  114.24    7.58
  -1   2  -5  125.89    7.28
   1  -2   5  117.53    7.29
   1  -2   5  130.11    7.42
   1  -2   5  121.35    7.41
   1  -2   5  126.81    7.44
  -2   2  -5   26.64    2.28
  -2   2  -5   27.67    2.29
   2  -2   5   27.75    2.03
   2  -2   5   27.73    2.01
  -3   2  -5   32.65    2.79
  -3   2  -5   38.04    2.80
   3  -2   5   35.76    2.48
   3  -2   5   30.97    2.46
  -4   2  -5    2.56    1.07
  -4   2  -5    2.16    1.06
   4  -2   5    1.12    0.68
  -5   2  -5    0.10    0.98
  -5   2  -5    0.76    1.12
   5  -2   5    1.49    0.77
  -6   2  -5    6.69    1.42
  -6   2  -5    6.44    1.57
   6  -2   5    7.45    1.26
  -7   2  -5    4.25    1.47
  -7   2  -5    3.34    1.46
   7  -2   5    2.94    1.00
  -8   2  -5    0.50    1.28
  -8   2  -5   -0.24    1.17
   8  -2   5    0.12    0.85
  13   1  -5    0.08    0.96
  13   1  -5    0.72    0.85
 -13  -1   5    2.55    1.38
  12   1  -5    1.20    1.04
  12   1  -5    1.02    0.82
 -12  -1   5   -0.57    1.12
  11   1  -5    2.75    1.05
  11   1  -5    3.43    0.96
 -11  -1   5    2.76    1.20
  10   1  -5   10.39    1.51
  10   1  -5   14.08    1.79
 -10  -1   5   12.75    1.74
   9   1  -5    7.91    1.20
   9   1  -5   12.07    1.58
  -9  -1   5   10.00    0.93
  -9  -1   5   10.60    1.49
   8   1  -5   30.31    2.36
   8   1  -5   31.10    2.51
  -8  -1   5   34.32    2.54
  -8  -1   5   30.41    1.95
  -8  -1   5   28.28    2.32
   7   1  -5   39.26    2.65
   7   1  -5   36.45    2.72
  -7  -1   5   32.94    2.53
  -7  -1   5   37.60    2.70
   6   1  -5   37.58    2.50
   6   1  -5   34.64    2.56
  -6  -1   5   34.14    2.47
  -6  -1   5   33.81    2.40
   5   1  -5   33.70    2.40
   5   1  -5   33.31    2.27
   5   1  -5   33.64    2.26
  -5  -1   5   32.26    2.25
  -5  -1   5   32.19    2.04
  -5  -1   5   28.55    2.18
   4   1  -5   29.54    1.97
   4   1  -5   27.07    2.03
   4   1  -5   27.79    1.97
  -4  -1   5   26.46    2.05
  -4  -1   5   26.79    1.87
  -4  -1   5   29.26    1.82
  -4  -1   5   25.01    1.90
  -4  -1   5   26.35    1.89
   3   1  -5   23.98    1.85
   3   1  -5   27.62    1.89
   3   1  -5   24.40    1.62
   3   1  -5   26.68    1.92
  -3  -1   5   24.69    1.78
  -3  -1   5   25.53    1.75
  -3  -1   5   27.48    1.92
  -3  -1   5   25.23    1.78
   2   1  -5  130.28    7.46
   2   1  -5  128.15    7.45
   2   1  -5  122.47    7.44
   2   1  -5  124.60    7.22
  -2  -1   5  125.47    7.32
  -2  -1   5  124.42    7.40
  -2  -1   5  127.41    7.38
  -2  -1   5  122.20    7.44
  -2  -1   5  120.31    7.24
   1   1  -5  236.97   13.92
   1   1  -5  238.39   13.69
   1   1  -5  239.07   13.87
   1   1  -5  241.19   13.71
   1   1  -5  232.06   13.89
   1   1  -5  239.71   13.83
  -1  -1   5  234.12   13.68
  -1  -1   5  226.95   13.70
  -1  -1   5  242.52   13.83
  -1  -1   5  244.67   13.81
  -1  -1   5  239.27   13.82
   0   1  -5   16.11    1.30
   0   1  -5   17.48    1.53
   0   1  -5   16.01    1.39
   0   1  -5   15.52    1.19
   0   1  -5   14.36    1.19
   0  -1   5   15.94    1.24
   0  -1   5   15.26    1.24
   0  -1   5   15.84    1.31
   0  -1   5   16.59    1.34
  -1   1  -5   14.14    1.41
  -1   1  -5   13.82    1.08
  -1   1  -5   11.76    1.10
  -1   1  -5   11.21    1.33
   1  -1   5   13.95    1.27
   1  -1   5   11.59    1.14
   1  -1   5   12.64    1.03
   1  -1   5   13.15    1.19
  -2   1  -5   13.58    1.41
  -2   1  -5   10.55    1.39
   2  -1   5   11.31    1.16
   2  -1   5   13.76    1.28
   2  -1   5   14.69    1.47
   2  -1   5   11.41    0.99
  -3   1  -5    4.54    0.97
  -3   1  -5    6.04    1.27
   3  -1   5    6.24    0.90
   3  -1   5    6.20    0.99
   3  -1   5    5.09    0.63
  -4   1  -5    3.65    1.03
  -4   1  -5    3.70    1.13
   4  -1   5    3.63    0.85
   4  -1   5    3.15    0.77
   4  -1   5    3.45    0.54
  -5   1  -5    0.28    0.89
  -5   1  -5   -0.57    0.90
   5  -1   5    1.14    0.75
  -6   1  -5    4.51    1.32
  -6   1  -5    6.56    1.38
   6  -1   5    5.72    1.10
  -7   1  -5   16.01    1.99
  -7   1  -5   10.94    1.98
   7  -1   5   13.10    1.78
  -8   1  -5    1.27    1.35
  -8   1  -5   -0.11    1.11
   8  -1   5   -0.56    0.86
  -9   1  -5    9.70    2.12
  -9   1  -5   14.06    2.18
   9  -1   5    8.82    1.65
  13   0  -5    0.54    0.91
  13   0  -5    1.19    0.90
 -13   0   5    1.13    1.33
  12   0  -5    0.79    0.90
  12   0  -5    0.88    0.79
 -12   0   5    2.25    1.24
  11   0  -5   12.73    1.77
  11   0  -5   19.75    1.89
 -11   0   5   14.15    2.08
  10   0  -5    5.86    1.16
  10   0  -5    5.12    1.03
 -10   0   5    6.28    1.42
   9   0  -5   24.18    1.63
   9   0  -5   24.75    2.11
   9   0  -5   21.92    2.05
  -9   0   5   21.82    2.37
   8   0  -5    4.06    0.90
   8   0  -5    4.05    0.83
  -8   0   5    2.81    0.56
  -8   0   5    1.88    0.95
   7   0  -5   27.52    2.18
   7   0  -5   28.96    2.22
  -7   0   5   28.98    1.83
  -7   0   5   25.38    2.36
   6   0  -5    4.98    0.90
   6   0  -5    4.02    0.75
  -6   0   5    4.40    0.94
  -6   0   5    3.92    0.79
   5   0  -5   11.92    1.27
   5   0  -5   13.39    1.33
   5   0  -5   14.05    1.28
  -5   0   5   13.03    1.31
  -5   0   5   15.75    1.41
  -5   0   5   13.83    1.45
   4   0  -5   17.06    1.38
   4   0  -5   14.98    1.38
   4   0  -5   14.83    1.36
  -4   0   5   15.22    1.47
  -4   0   5   14.64    1.38
  -4   0   5   17.06    1.42
   3   0  -5    5.19    0.80
   3   0  -5    3.69    0.71
   3   0  -5    2.98    0.68
  -3   0   5    2.62    0.66
  -3   0   5    3.38    0.66
  -3   0   5    3.83    0.43
  -3   0   5    3.87    0.71
   2   0  -5   56.60    3.62
   2   0  -5   52.61    3.62
   2   0  -5   56.92    3.61
   2   0  -5   57.13    3.41
  -2   0   5   55.63    3.62
  -2   0   5   54.22    3.61
  -2   0   5   61.06    3.62
  -2   0   5   59.59    3.39
   1   0  -5   12.58    0.98
   1   0  -5   12.11    1.18
   1   0  -5    9.42    1.17
   1   0  -5   12.78    1.25
   1   0  -5   12.57    1.22
  -1   0   5   11.91    1.00
  -1   0   5   13.97    1.16
  -1   0   5   13.90    1.20
  -1   0   5   13.35    1.19
   0   0  -5   79.42    4.58
   0   0  -5   73.16    4.64
   0   0  -5   65.55    4.43
   0   0   5   76.22    4.64
   0   0   5   80.13    4.56
   0   0   5   74.58    4.58
   0   0   5   74.76    4.47
   0   0   5   71.96    4.59
  -1   0  -5   -0.28    0.48
  -1   0  -5   -0.06    0.61
  -1   0  -5   -0.61    0.40
  -1   0  -5   -0.14    0.33
   1   0   5   -0.37    0.34
   1   0   5   -0.28    0.35
   1   0   5   -0.59    0.37
   1   0   5   -0.02    0.34
   1   0   5   -0.01    0.50
  -2   0  -5   13.07    1.30
   2   0   5   13.07    1.16
   2   0   5   12.95    1.16
   2   0   5   10.52    1.21
   2   0   5   11.56    1.13
  -3   0  -5   15.40    1.74
  -3   0  -5   17.54    1.59
   3   0   5   15.61    1.39
   3   0   5   16.60    1.53
  -4   0  -5    8.36    1.15
  -4   0  -5    7.50    1.37
   4   0   5    6.10    1.04
   4   0   5    5.82    0.93
  -5   0  -5    1.79    0.90
  -5   0  -5    1.88    1.03
   5   0   5    1.91    0.83
   5   0   5    0.96    0.61
  -6   0  -5   -1.02    0.80
  -6   0  -5   -0.31    0.95
   6   0   5   -0.03    0.69
   6   0   5    0.36    0.64
  -7   0  -5    3.45    1.33
  -7   0  -5    5.58    1.32
   7   0   5    5.11    1.23
   7   0   5    5.62    1.09
  -8   0  -5   22.68    2.78
  -8   0  -5   30.37    2.71
   8   0   5   25.04    2.55
   8   0   5   24.37    2.28
  -9   0  -5    0.71    1.36
  -9   0  -5   -0.79    1.34
   9   0   5    0.20    0.96
   9   0   5    0.22    0.77
  13  -1  -5    1.21    0.87
  13  -1  -5    0.71    0.86
 -13   1   5    1.34    1.46
  12  -1  -5    0.88    0.82
  12  -1  -5    2.36    0.95
 -12   1   5    3.95    1.58
  11  -1  -5    2.81    0.94
  11  -1  -5    3.86    1.01
 -11   1   5    2.29    1.35
  10  -1  -5   12.21    1.63
  10  -1  -5   15.07    1.61
 -10   1   5    8.75    1.79
   9  -1  -5   13.61    1.57
   9  -1  -5   10.03    1.43
  -9   1   5   10.35    1.72
   8  -1  -5   31.64    2.38
   8  -1  -5   30.53    2.35
  -8   1   5   24.07    2.55
   7  -1  -5   37.56    2.57
   7  -1  -5   34.35    2.54
  -7   1   5   28.96    2.72
   6  -1  -5   34.85    2.51
   6  -1  -5   32.98    2.48
   6  -1  -5   34.35    2.27
  -6   1   5   31.19    2.70
  -6   1   5   36.83    2.09
   5  -1  -5   32.35    2.29
   5  -1  -5   31.75    2.03
   5  -1  -5   31.18    2.27
   5  -1  -5   30.97    2.28
  -5   1   5   27.12    2.43
  -5   1   5   32.74    2.33
   4  -1  -5   25.88    1.98
   4  -1  -5   24.64    2.02
   4  -1  -5   29.83    2.03
  -4   1   5   23.23    2.13
  -4   1   5   28.33    2.05
  -4   1   5   29.43    2.08
   3  -1  -5   27.38    1.93
   3  -1  -5   23.62    1.95
   3  -1  -5   24.80    1.60
   3  -1  -5   25.32    1.94
  -3   1   5   26.46    1.96
  -3   1   5   24.91    1.99
  -3   1   5   25.29    1.92
  -3   1   5   25.44    1.82
   2  -1  -5  132.74    7.67
   2  -1  -5  123.35    7.42
  -2   1   5  125.90    7.40
  -2   1   5  136.94    7.74
  -2   1   5  118.42    7.67
  -2   1   5  134.29    7.68
  -2   1   5  125.92    7.55
   1  -1  -5  246.98   14.31
   1  -1  -5  238.48   14.15
   1  -1  -5  257.20   14.41
  -1   1   5  249.36   14.41
  -1   1   5  242.66   14.16
  -1   1   5  257.11   14.45
  -1   1   5  239.21   14.40
  -1   1   5  242.06   14.28
   0  -1  -5   15.89    1.27
   0  -1  -5   17.14    1.32
   0  -1  -5   16.28    1.44
   0  -1  -5   14.62    1.16
   0  -1  -5   13.65    1.48
   0   1   5   16.08    1.17
   0   1   5   16.03    1.31
   0   1   5   16.46    1.45
   0   1   5   18.13    1.48
   0   1   5   14.53    1.40
  -1  -1  -5   12.80    1.12
  -1  -1  -5   13.15    1.10
  -1  -1  -5   13.17    1.36
   1   1   5   12.35    1.19
   1   1   5   13.53    1.08
   1   1   5   14.41    1.30
  -2  -1  -5   13.05    1.21
  -2  -1  -5    9.99    1.38
  -2  -1  -5   13.92    1.06
  -2  -1  -5   12.64    1.77
   2   1   5   11.82    1.23
   2   1   5   14.09    1.36
   2   1   5   13.25    1.12
  -3  -1  -5    4.75    0.83
  -3  -1  -5    5.41    1.14
   3   1   5    4.74    0.73
   3   1   5    5.65    0.86
   3   1   5    6.05    0.98
  -4  -1  -5    2.96    0.96
  -4  -1  -5    2.85    0.80
   4   1   5    4.33    0.86
   4   1   5    3.34    0.83
  -5  -1  -5   -0.27    0.86
  -5  -1  -5    0.28    0.80
   5   1   5    0.88    0.74
   5   1   5    0.67    0.63
  -6  -1  -5    5.27    1.32
  -6  -1  -5    4.26    1.14
  -6  -1  -5    5.07    1.28
   6   1   5    6.26    1.07
   6   1   5    5.20    1.16
  -7  -1  -5   11.45    1.71
  -7  -1  -5   14.27    1.77
  -7  -1  -5   11.21    1.77
   7   1   5   14.11    1.92
   7   1   5   13.96    1.67
  -8  -1  -5    1.34    1.21
  -8  -1  -5    1.55    1.23
  -8  -1  -5    0.96    1.19
   8   1   5    0.97    0.83
   8   1   5    0.82    0.97
  -9  -1  -5   13.24    2.16
   9   1   5   14.51    2.15
   9   1   5   11.90    1.80
  12  -2  -5    0.75    0.85
  12  -2  -5    1.43    1.00
 -12   2   5    1.54    1.37
  11  -2  -5    2.56    0.91
  11  -2  -5    1.80    0.91
 -11   2   5    3.18    1.46
  10  -2  -5    5.11    1.12
  10  -2  -5    8.15    1.26
 -10   2   5    4.71    1.52
   9  -2  -5    5.40    0.83
   9  -2  -5    4.07    1.04
   9  -2  -5    4.71    1.01
  -9   2   5    5.33    1.39
   8  -2  -5   88.28    5.69
   8  -2  -5   93.46    5.68
  -8   2   5   82.81    6.00
   7  -2  -5    7.21    1.12
   7  -2  -5    7.46    1.09
   7  -2  -5    5.52    0.93
  -7   2   5    8.86    0.78
  -7   2   5    8.19    1.43
   6  -2  -5    0.51    0.56
   6  -2  -5    0.30    0.38
   6  -2  -5    0.60    0.60
  -6   2   5    0.11    0.81
  -6   2   5    0.58    0.44
   5  -2  -5   24.34    1.71
   5  -2  -5   22.96    1.88
   5  -2  -5   23.19    1.61
   5  -2  -5   21.58    1.86
   5  -2  -5   24.76    1.98
  -5   2   5   23.08    2.16
  -5   2   5   26.29    1.68
   4  -2  -5   47.93    2.95
   4  -2  -5   45.27    2.77
   4  -2  -5   45.86    3.10
   4  -2  -5   46.20    3.10
  -4   2   5   45.52    3.28
   3  -2  -5    2.55    0.69
   3  -2  -5    2.80    0.54
   3  -2  -5    2.88    0.65
  -3   2   5    2.85    0.76
  -3   2   5    2.38    0.80
   2  -2  -5   29.23    2.11
  -2   2   5   28.45    2.25
  -2   2   5   29.46    2.24
  -2   2   5   31.58    1.99
   1  -2  -5   11.21    1.16
   1  -2  -5   11.57    1.29
   1  -2  -5   13.43    1.26
  -1   2   5   11.61    1.02
  -1   2   5   12.39    1.28
  -1   2   5    9.29    1.21
   0  -2  -5   12.56    1.24
   0  -2  -5   10.80    1.29
   0  -2  -5   12.62    1.20
   0   2   5   11.29    1.22
   0   2   5   10.85    1.04
   0   2   5   11.97    0.82
   0   2   5   12.68    1.31
  -1  -2  -5  125.24    7.22
  -1  -2  -5  103.82    7.32
  -1  -2  -5  133.91    7.33
   1   2   5  114.11    7.05
   1   2   5  124.80    7.37
   1   2   5  126.16    7.32
  -2  -2  -5   23.71    2.13
  -2  -2  -5   27.60    1.96
  -2  -2  -5   28.55    2.05
   2   2   5   27.34    2.07
   2   2   5   29.10    2.12
   2   2   5   23.81    1.76
  -3  -2  -5   36.30    2.54
  -3  -2  -5   29.18    2.51
   3   2   5   35.62    2.45
   3   2   5   28.60    2.19
   3   2   5   35.56    2.54
  -4  -2  -5    2.50    1.15
  -4  -2  -5    1.67    0.90
  -4  -2  -5    2.65    0.52
   4   2   5    0.97    0.72
   4   2   5    0.98    0.70
  -5  -2  -5    1.24    0.93
  -5  -2  -5    0.28    1.26
  -5  -2  -5    3.02    0.57
   5   2   5    2.33    0.88
   5   2   5    1.42    0.76
  -6  -2  -5    6.93    1.18
  -6  -2  -5    6.79    1.38
  -6  -2  -5    9.02    1.56
   6   2   5    9.16    1.33
   6   2   5    6.36    1.37
  -7  -2  -5    3.13    1.45
  -7  -2  -5    3.23    1.24
   7   2   5    4.43    1.11
   7   2   5    3.73    1.17
  -8  -2  -5    1.57    1.45
  -8  -2  -5    0.41    1.17
   8   2   5   -1.02    0.81
   8   2   5    0.14    0.87
  11  -3  -5   -0.09    0.80
 -11   3   5    0.66    1.37
  10  -3  -5    3.16    0.99
 -10   3   5    1.04    1.36
   9  -3  -5   97.44    6.03
  -9   3   5   86.80    6.48
   8  -3  -5   22.43    2.04
   8  -3  -5   22.35    1.92
   8  -3  -5   21.65    1.62
  -8   3   5   19.21    2.49
   7  -3  -5   66.94    4.29
   7  -3  -5   69.70    4.46
   7  -3  -5   71.45    4.52
   6  -3  -5   17.73    1.63
   6  -3  -5   19.46    1.61
   6  -3  -5   19.03    1.69
   6  -3  -5   18.02    1.43
   6  -3  -5   18.78    1.75
  -6   3   5   15.00    1.94
   5  -3  -5   23.27    1.88
   5  -3  -5   24.43    1.86
   5  -3  -5   23.48    1.91
   5  -3  -5   20.86    1.84
   5  -3  -5   22.86    1.58
  -5   3   5   21.92    2.24
   4  -3  -5    1.19    0.60
   4  -3  -5    1.13    0.55
   4  -3  -5    1.18    0.67
   4  -3  -5    2.66    0.92
  -4   3   5    1.73    0.86
   3  -3  -5    2.92    0.91
   3  -3  -5    1.27    0.53
   3  -3  -5    1.78    0.64
   3  -3  -5    3.84    0.97
  -3   3   5    1.34    0.79
  -3   3   5    3.38    0.93
   2  -3  -5   32.83    2.43
   2  -3  -5   28.49    2.12
   2  -3  -5   30.83    2.40
   2  -3  -5   30.53    2.19
  -2   3   5   30.99    2.39
  -2   3   5   31.74    2.47
   1  -3  -5    8.38    0.96
   1  -3  -5    9.45    1.08
   1  -3  -5    8.81    1.23
   1  -3  -5    9.56    1.36
  -1   3   5   11.73    1.35
  -1   3   5    9.65    1.24
  -1   3   5   10.11    0.96
   0  -3  -5   78.41    5.08
   0  -3  -5   83.12    5.39
   0  -3  -5   90.16    5.30
   0  -3  -5   80.77    5.15
   0   3   5   87.13    5.29
   0   3   5   81.53    5.00
   0   3   5   89.28    5.39
  -1  -3  -5   15.65    1.52
  -1  -3  -5   12.72    1.25
  -1  -3  -5   14.52    1.35
  -1  -3  -5   15.55    1.75
   1   3   5   17.62    1.63
   1   3   5   13.87    1.12
   1   3   5   12.94    0.98
   1   3   5   17.20    1.54
  -2  -3  -5   89.40    5.95
  -2  -3  -5  102.70    6.06
  -2  -3  -5  105.70    6.08
  -2  -3  -5   88.78    6.22
   2   3   5   96.64    6.10
   2   3   5  101.68    6.13
  -3  -3  -5    0.84    0.64
  -3  -3  -5   -0.02    1.23
   3   3   5    1.21    0.75
   3   3   5    0.68    0.70
  -4  -3  -5    0.63    0.79
  -4  -3  -5    2.29    1.29
   4   3   5   -0.02    0.70
   4   3   5    0.82    0.74
  -5  -3  -5    1.88    1.37
  -5  -3  -5    3.31    1.04
   5   3   5    1.23    0.89
   5   3   5    1.98    0.88
  -6  -3  -5    1.01    0.99
  -6  -3  -5   -0.65    1.32
   6   3   5    0.71    0.84
   6   3   5    0.39    0.83
  -7  -3  -5    5.41    1.76
  -7  -3  -5    7.03    1.88
   7   3   5    5.18    1.30
   7   3   5    4.69    1.30
  10  -4  -5    2.80    1.07
  10  -4  -5    2.36    0.98
 -10   4   5    1.35    1.55
   9  -4  -5    1.96    0.88
   9  -4  -5    2.47    0.89
  -9   4   5    0.60    1.31
   8  -4  -5    7.98    1.19
   8  -4  -5    6.82    1.23
  -8   4   5    5.33    1.59
   7  -4  -5   27.23    2.34
   7  -4  -5   27.70    2.17
   7  -4  -5   28.16    2.50
   7  -4  -5   26.41    2.14
  -7   4   5   23.65    2.73
   6  -4  -5   21.14    1.84
   6  -4  -5   22.38    2.02
   6  -4  -5   23.16    1.98
   6  -4  -5   24.00    2.32
  -6   4   5   19.07    2.34
   5  -4  -5    4.26    0.97
   5  -4  -5    4.77    1.23
   5  -4  -5    4.90    1.08
  -5   4   5    4.64    1.27
   4  -4  -5   12.00    1.44
   4  -4  -5    9.68    1.35
   4  -4  -5   12.57    1.64
  -4   4   5    9.61    1.55
   3  -4  -5    1.39    1.06
   3  -4  -5    0.82    0.73
   3  -4  -5    2.47    0.98
  -3   4   5    1.72    0.89
  -3   4   5    2.65    1.10
   2  -4  -5   19.06    1.97
   2  -4  -5   18.40    1.97
  -2   4   5   19.03    1.88
  -2   4   5   19.53    2.13
   1  -4  -5   12.64    1.71
   1  -4  -5   13.26    1.72
  -1   4   5   14.13    1.78
  -1   4   5   14.24    1.58
   0  -4  -5   27.12    2.37
   0  -4  -5   22.83    2.39
   0   4   5   26.81    2.15
   0   4   5   26.19    2.39
  -1  -4  -5    3.07    1.28
  -1  -4  -5    4.49    1.18
   1   4   5    4.45    1.07
   1   4   5    4.90    0.96
  -2  -4  -5    1.66    1.21
  -2  -4  -5    0.22    0.99
   2   4   5    2.02    0.78
   2   4   5    0.86    0.81
  -3  -4  -5    4.64    1.53
   3   4   5    5.42    1.09
   3   4   5    7.25    1.25
  -4  -4  -5    1.46    1.59
   4   4   5    2.73    0.97
   4   4   5    4.04    1.18
  -5  -4  -5    3.47    1.62
   5   4   5    3.07    1.11
   5   4   5    4.45    1.17
   6   4   5    0.05    0.88
   7  -5  -5    2.41    1.39
   7  -5  -5    1.18    0.99
  -7   5   5    1.52    1.36
   6  -5  -5    6.03    1.51
   6  -5  -5    3.58    1.10
   6  -5  -5    4.23    1.16
  -6   5   5    2.48    1.33
   5  -5  -5   19.91    2.26
   5  -5  -5   12.39    1.76
   5  -5  -5   16.58    1.92
  -5   5   5   15.16    2.16
   4  -5  -5    0.04    1.04
   4  -5  -5   -0.20    1.16
   4  -5  -5   -0.93    0.77
  -4   5   5    0.71    0.95
   3  -5  -5    1.65    1.07
   3  -5  -5    2.45    1.27
  -3   5   5    0.68    1.01
  -3   5   5    1.34    1.24
   2  -5  -5    6.54    1.60
   2  -5  -5    3.51    1.30
  -2   5   5    7.46    1.58
   1  -5  -5    4.29    1.49
   1  -5  -5    6.63    1.50
  -1   5   5    6.50    1.46
   0  -5  -5   -0.42    1.14
   0  -5  -5    0.49    1.21
   0   5   5    1.32    1.12
  -1  -5  -5    0.54    1.19
  -1  -5  -5   -0.94    1.19
   1   5   5    0.10    0.98
  -2  -5  -5    2.64    1.33
  -2  -5  -5   -0.96    1.44
   2   5   5    1.84    1.11
  -3  -5  -5    3.17    1.48
   3   5   5    0.70    1.03
   7   5  -6    2.64    1.45
  -7  -5   6    3.43    1.12
   6   5  -6    0.33    1.15
  -6  -5   6    0.38    0.81
   5   5  -6    3.40    1.39
   5   5  -6   -0.67    1.01
   4   5  -6    1.13    1.01
   4   5  -6    0.54    1.26
  -4  -5   6    0.40    0.98
   3   5  -6   -1.00    0.85
   3   5  -6    3.02    1.45
  -3  -5   6   -0.49    0.96
   2   5  -6   15.51    2.17
   2   5  -6   10.36    1.84
  -2  -5   6    7.99    1.40
   1   5  -6   20.54    2.38
  -1  -5   6   13.70    1.76
  -1  -5   6   17.70    2.02
   0   5  -6    5.44    1.46
   0  -5   6    4.07    1.17
   0  -5   6    3.78    1.32
  -1   5  -6    2.66    1.37
   1  -5   6    2.59    1.10
   1  -5   6    3.23    1.27
   2  -5   6    7.81    1.52
   2  -5   6    8.37    1.74
  10   4  -6    0.98    1.37
 -10  -4   6    2.45    1.03
   9   4  -6    0.98    1.29
  -9  -4   6    1.71    0.93
   8   4  -6   10.76    1.99
  -8  -4   6   14.26    1.74
   7   4  -6    0.36    1.11
  -7  -4   6    2.59    0.91
   6   4  -6   24.52    2.54
  -6  -4   6   22.10    2.17
   5   4  -6    4.85    1.25
   5   4  -6    4.82    0.83
  -5  -4   6    5.06    1.12
  -5  -4   6    4.87    1.02
   4   4  -6   16.09    1.93
  -4  -4   6   13.72    1.58
  -4  -4   6   16.30    1.74
   3   4  -6    6.84    1.27
   3   4  -6    7.11    0.98
   3   4  -6    7.55    1.58
  -3  -4   6    5.88    1.10
   2   4  -6    2.95    1.26
   2   4  -6    3.18    0.95
  -2  -4   6    3.77    0.96
  -2  -4   6    3.31    0.95
   1   4  -6    5.28    1.39
   1   4  -6    5.06    0.94
  -1  -4   6    3.52    1.00
  -1  -4   6    3.56    1.03
   0   4  -6   21.52    2.11
   0   4  -6   26.17    2.52
   0   4  -6   24.32    1.94
   0  -4   6   27.95    2.27
   0  -4   6   23.79    2.12
  -1   4  -6    0.65    1.17
  -1   4  -6    0.19    0.81
   1  -4   6    0.77    0.76
   1  -4   6   -0.97    0.77
  -2   4  -6    6.52    1.47
  -2   4  -6    1.99    1.19
   2  -4   6    5.20    1.11
   2  -4   6    4.27    1.13
  -3   4  -6   13.53    2.05
  -3   4  -6   14.01    2.01
   3  -4   6   13.62    1.78
   3  -4   6   14.58    1.84
  -4   4  -6    8.83    1.81
  -4   4  -6    6.52    1.58
   4  -4   6    7.93    1.41
   4  -4   6    8.71    1.45
  -5   4  -6    0.54    1.28
   5  -4   6    0.94    1.03
   5  -4   6    1.93    1.12
  11   3  -6    0.33    0.71
  11   3  -6    0.39    1.18
 -11  -3   6    0.16    0.88
  10   3  -6    0.64    0.72
  10   3  -6    1.37    1.23
 -10  -3   6    1.69    0.93
   9   3  -6   10.29    1.42
   9   3  -6   12.45    1.99
  -9  -3   6   15.53    1.69
   8   3  -6   51.37    3.80
   8   3  -6   57.36    4.32
  -8  -3   6   63.72    3.98
   7   3  -6   22.01    1.95
   7   3  -6   24.65    2.49
  -7  -3   6   28.46    2.17
   6   3  -6   20.96    2.20
   6   3  -6   19.47    1.68
  -6  -3   6   21.91    1.76
  -6  -3   6   21.32    1.89
   5   3  -6    7.84    1.00
   5   3  -6    9.85    1.50
  -5  -3   6    9.31    1.12
  -5  -3   6    7.59    1.12
   4   3  -6   10.91    1.46
   4   3  -6    9.54    1.06
  -4  -3   6   11.13    1.28
  -4  -3   6    8.72    1.15
   3   3  -6   20.57    2.16
   3   3  -6   20.31    1.85
   3   3  -6   20.55    1.61
  -3  -3   6   19.65    1.75
  -3  -3   6   19.99    1.75
   2   3  -6    8.15    1.04
   2   3  -6    6.57    1.34
   2   3  -6    8.71    1.15
  -2  -3   6    8.22    1.04
  -2  -3   6    9.17    1.14
   1   3  -6   25.26    2.24
   1   3  -6   21.01    1.74
  -1  -3   6   21.74    1.80
  -1  -3   6   20.99    1.90
   0   3  -6    8.88    1.50
   0   3  -6    8.90    1.35
   0   3  -6    9.97    1.10
   0  -3   6   12.35    1.39
   0  -3   6   11.56    1.25
  -1   3  -6  181.98   10.64
  -1   3  -6  176.45   10.13
  -1   3  -6  161.87   10.45
  -1   3  -6  173.29   10.05
   1  -3   6  171.08   10.35
   1  -3   6  171.87   10.34
  -2   3  -6   25.67    2.36
  -2   3  -6   23.41    2.38
   2  -3   6   24.56    1.86
   2  -3   6   23.78    2.04
   2  -3   6   26.73    2.20
  -3   3  -6    6.20    1.42
  -3   3  -6    8.23    1.61
   3  -3   6    6.41    1.00
   3  -3   6    8.05    1.20
   3  -3   6    7.49    1.23
  -4   3  -6   18.60    2.33
  -4   3  -6   21.84    2.40
   4  -3   6   22.78    2.06
   4  -3   6   19.10    1.85
  -5   3  -6    5.41    1.57
  -5   3  -6    5.22    1.61
   5  -3   6    4.59    1.07
   5  -3   6    6.97    1.30
  -6   3  -6    0.75    1.34
  -6   3  -6    2.48    1.35
   6  -3   6    1.92    1.05
   6  -3   6    1.32    0.93
  12   2  -6   -0.23    0.67
  12   2  -6    0.62    1.10
 -12  -2   6   -0.21    0.96
  11   2  -6    9.12    1.45
  11   2  -6   11.13    1.85
 -11  -2   6   11.76    1.45
  10   2  -6    0.48    0.64
  10   2  -6   -0.13    0.82
 -10  -2   6   -0.84    0.65
 -10  -2   6    0.94    0.73
   9   2  -6    9.62    1.60
   9   2  -6    6.31    1.05
  -9  -2   6    5.28    0.92
  -9  -2   6    7.19    1.16
   8   2  -6   49.17    3.65
   8   2  -6   47.61    3.38
  -8  -2   6   48.59    3.40
  -8  -2   6   48.80    3.17
   7   2  -6   42.09    3.18
   7   2  -6   38.49    2.87
  -7  -2   6   40.75    2.66
  -7  -2   6   45.01    2.95
  -7  -2   6   39.94    2.66
   6   2  -6   14.57    1.74
   6   2  -6   13.38    1.34
   6   2  -6   13.82    1.18
  -6  -2   6   15.92    1.26
  -6  -2   6   14.97    1.46
  -6  -2   6   12.83    1.10
  -6  -2   6   13.65    1.14
   5   2  -6   35.22    2.33
   5   2  -6   37.77    2.72
   5   2  -6   35.10    2.46
  -5  -2   6   34.39    2.47
  -5  -2   6   35.95    2.39
  -5  -2   6   34.73    2.26
   4   2  -6   75.29    4.45
   4   2  -6   67.54    4.37
   4   2  -6   72.37    4.55
   4   2  -6   67.85    4.26
  -4  -2   6   75.44    4.34
  -4  -2   6   65.61    4.16
  -4  -2   6   67.75    4.37
  -4  -2   6   71.14    4.19
   3   2  -6    5.03    0.77
   3   2  -6    5.88    0.85
   3   2  -6    3.55    0.45
   3   2  -6    7.36    1.02
   3   2  -6    4.37    0.60
  -3  -2   6    4.55    0.93
  -3  -2   6    4.68    0.59
  -3  -2   6    3.81    0.55
  -3  -2   6    4.88    0.77
  -3  -2   6    5.37    0.77
   2   2  -6    1.50    0.74
   2   2  -6    1.36    0.81
   2   2  -6    1.17    0.54
   2   2  -6    0.50    0.31
   2   2  -6    1.24    0.58
  -2  -2   6    1.66    0.64
  -2  -2   6    1.16    0.44
  -2  -2   6    1.32    0.51
  -2  -2   6    0.55    0.37
  -2  -2   6    1.80    0.52
  -2  -2   6    1.17    0.40
   1   2  -6   26.47    2.19
   1   2  -6   22.57    1.73
   1   2  -6   28.44    1.93
   1   2  -6   26.00    2.03
   1   2  -6   22.88    1.75
  -1  -2   6   26.36    1.82
  -1  -2   6   25.13    1.78
  -1  -2   6   25.69    1.79
  -1  -2   6   26.18    1.87
  -1  -2   6   29.32    2.04
   0   2  -6    2.29    0.59
   0   2  -6    2.47    0.53
   0   2  -6    2.40    0.79
   0   2  -6    2.42    0.92
   0   2  -6    3.18    0.61
   0  -2   6    2.81    0.60
   0  -2   6    2.50    0.53
   0  -2   6    2.87    0.59
   0  -2   6    3.04    0.60
  -1   2  -6   37.82    2.88
  -1   2  -6   39.01    2.94
  -1   2  -6   37.16    2.39
   1  -2   6   35.63    2.45
   1  -2   6   39.62    2.61
   1  -2   6   39.48    2.61
   1  -2   6   41.14    2.64
  -2   2  -6   37.55    3.00
  -2   2  -6   42.63    3.02
   2  -2   6   39.04    2.72
   2  -2   6   38.72    2.73
   2  -2   6   37.62    2.42
  -3   2  -6    7.47    1.55
  -3   2  -6    9.97    1.55
   3  -2   6    9.64    1.24
  -4   2  -6   11.22    1.63
  -4   2  -6    6.17    1.42
   4  -2   6   10.69    1.34
  -5   2  -6    3.78    1.32
  -5   2  -6    0.83    1.11
   5  -2   6    2.65    0.94
  -6   2  -6   10.50    1.98
  -6   2  -6   10.58    1.80
   6  -2   6    9.66    1.51
  -7   2  -6    2.05    1.39
  -7   2  -6    1.12    1.36
   7  -2   6    2.27    1.00
  13   1  -6    2.78    1.04
  13   1  -6    3.57    1.18
 -13  -1   6    3.99    1.43
  12   1  -6    0.40    0.85
  12   1  -6    0.07    0.69
 -12  -1   6   -0.01    1.09
  11   1  -6    3.33    0.94
  11   1  -6    4.80    1.23
 -11  -1   6    5.48    1.37
  10   1  -6   -0.23    0.78
  10   1  -6    0.90    0.65
 -10  -1   6    0.40    0.92
   9   1  -6    6.40    1.24
   9   1  -6    3.20    0.83
  -9  -1   6    4.97    1.12
   8   1  -6   38.00    2.85
   8   1  -6   37.32    2.71
  -8  -1   6   38.91    2.81
  -8  -1   6   30.63    2.91
   7   1  -6   19.65    1.80
   7   1  -6   20.38    1.70
  -7  -1   6   17.35    1.61
  -7  -1   6   18.83    1.77
   6   1  -6  109.28    6.39
   6   1  -6  101.28    6.46
  -6  -1   6  106.90    6.08
  -6  -1   6   93.00    6.27
  -6  -1   6  107.53    6.35
   5   1  -6   17.23    1.48
   5   1  -6   16.48    1.60
  -5  -1   6   18.26    1.28
  -5  -1   6   16.42    1.45
  -5  -1   6   16.04    1.36
  -5  -1   6   16.23    1.40
   4   1  -6   31.83    2.32
   4   1  -6   30.38    1.93
   4   1  -6   34.43    2.40
   4   1  -6   30.38    2.23
  -4  -1   6   29.34    2.15
  -4  -1   6   29.15    2.09
  -4  -1   6   33.33    2.19
   3   1  -6   29.01    2.18
   3   1  -6   29.71    2.17
   3   1  -6   31.87    2.19
  -3  -1   6   31.34    2.09
  -3  -1   6   29.11    2.10
  -3  -1   6   27.96    1.99
  -3  -1   6   31.33    2.21
   2   1  -6    6.00    0.91
   2   1  -6    7.19    0.99
   2   1  -6    6.97    1.05
   2   1  -6    5.89    0.62
   2   1  -6    8.81    1.02
  -2  -1   6    6.87    0.87
  -2  -1   6    7.23    0.66
  -2  -1   6    6.98    0.88
  -2  -1   6    8.03    0.78
  -2  -1   6    9.37    1.05
   1   1  -6   40.19    2.60
   1   1  -6   41.19    2.59
   1   1  -6   37.77    2.87
   1   1  -6   42.47    2.78
   1   1  -6   43.37    2.92
  -1  -1   6   42.67    2.74
  -1  -1   6   41.43    2.78
  -1  -1   6   42.21    2.75
  -1  -1   6   40.60    2.55
  -1  -1   6   42.81    2.63
   0   1  -6    5.88    0.67
   0   1  -6    6.66    0.89
   0   1  -6    6.65    1.02
   0   1  -6    4.51    0.68
   0  -1   6    6.72    0.83
   0  -1   6    8.50    0.99
   0  -1   6    7.14    0.99
   0  -1   6    6.85    0.80
  -1   1  -6   33.01    2.08
  -1   1  -6   31.48    2.41
  -1   1  -6   28.02    2.42
   1  -1   6   33.17    2.21
   1  -1   6   28.57    2.10
   1  -1   6   33.68    2.30
   1  -1   6   32.85    2.34
  -2   1  -6    5.88    1.20
  -2   1  -6   10.05    1.26
   2  -1   6    8.00    1.06
   2  -1   6    5.05    0.86
   2  -1   6    6.05    0.77
  -3   1  -6   20.09    1.88
  -3   1  -6   13.71    1.82
   3  -1   6   16.85    1.55
   3  -1   6   19.78    1.72
   3  -1   6   17.02    1.34
  -4   1  -6   28.41    2.33
  -4   1  -6   21.72    2.39
   4  -1   6   24.30    1.98
   4  -1   6   22.24    1.95
   4  -1   6   24.00    2.10
  -5   1  -6   11.78    1.96
  -5   1  -6   11.84    1.64
   5  -1   6   11.38    1.54
  -6   1  -6    0.28    1.08
  -6   1  -6   -0.30    1.05
   6  -1   6   -0.12    0.75
  -7   1  -6    2.99    1.45
  -7   1  -6    2.91    1.32
   7  -1   6    2.57    1.01
  -8   1  -6   -1.05    1.11
  -8   1  -6    0.59    1.41
   8  -1   6    0.54    0.96
  13   0  -6    2.12    1.05
  13   0  -6    1.84    0.96
 -13   0   6    0.95    1.37
  12   0  -6   -0.13    0.78
  12   0  -6   -0.01    0.70
 -12   0   6   -0.36    1.19
  11   0  -6   -0.48    0.59
  11   0  -6    0.53    0.76
 -11   0   6   -1.06    0.99
  10   0  -6   19.71    1.95
  10   0  -6   16.87    1.84
 -10   0   6   16.62    2.20
   9   0  -6    0.46    0.64
   9   0  -6    0.98    0.76
  -9   0   6    0.94    0.96
  -9   0   6    0.49    0.42
   8   0  -6    3.01    0.90
   8   0  -6    4.36    0.93
  -8   0   6    3.42    0.53
  -8   0   6    2.25    0.97
   7   0  -6    4.45    0.87
   7   0  -6    3.79    0.88
  -7   0   6    3.80    1.02
  -7   0   6    4.45    0.51
   6   0  -6   12.19    1.31
   6   0  -6   12.09    1.29
  -6   0   6   10.61    1.39
   5   0  -6    7.41    1.04
   5   0  -6    5.40    0.84
  -5   0   6    4.82    0.89
  -5   0   6    4.28    0.89
   4   0  -6   30.37    2.29
   4   0  -6   22.68    1.92
   4   0  -6   25.13    1.99
  -4   0   6   25.81    1.97
  -4   0   6   23.50    2.00
  -4   0   6   26.08    1.61
   3   0  -6    4.68    0.84
   3   0  -6    4.50    0.85
   3   0  -6    6.84    0.99
  -3   0   6    6.91    0.63
  -3   0   6    5.95    0.92
  -3   0   6    5.79    0.92
  -3   0   6    5.47    0.88
   2   0  -6    2.38    0.62
   2   0  -6    1.36    0.60
   2   0  -6    0.90    0.57
   2   0  -6    1.16    0.55
   2   0  -6    1.45    0.38
  -2   0   6    1.49    0.35
  -2   0   6    2.48    0.64
  -2   0   6    1.48    0.55
  -2   0   6    2.51    0.46
  -2   0   6    2.65    0.66
   1   0  -6   33.85    2.30
   1   0  -6   32.95    2.55
   1   0  -6   40.33    2.75
   1   0  -6   35.65    2.45
  -1   0   6   38.13    2.50
  -1   0   6   35.73    2.50
  -1   0   6   36.63    2.31
  -1   0   6   35.78    2.51
   0   0  -6   11.86    1.38
   0   0  -6   11.66    1.02
   0   0  -6   13.67    1.27
   0   0   6   12.35    1.23
   0   0   6   10.64    1.13
   0   0   6   11.49    1.06
   0   0   6   11.98    1.15
  -1   0  -6    0.49    0.60
  -1   0  -6    0.95    0.67
   1   0   6    0.05    0.42
   1   0   6    0.98    0.50
   1   0   6    0.44    0.45
   1   0   6    0.52    0.50
  -2   0  -6   25.12    2.40
  -2   0  -6   31.80    2.27
   2   0   6   30.21    2.11
   2   0   6   29.93    2.13
   2   0   6   29.57    2.27
  -3   0  -6   73.31    5.59
  -3   0  -6   90.68    5.39
   3   0   6   81.92    5.30
   3   0   6   87.02    5.29
   3   0   6   91.67    5.49
  -4   0  -6    1.54    0.87
  -4   0  -6    1.81    1.04
   4   0   6    1.13    0.61
   4   0   6    0.27    0.66
  -5   0  -6    4.81    1.38
  -5   0  -6    5.15    1.16
   5   0   6    3.95    0.89
   5   0   6    3.98    1.02
  -6   0  -6    0.77    1.10
  -6   0  -6    1.63    1.10
   6   0   6    1.09    0.73
   6   0   6   -0.06    0.72
  -7   0  -6    8.79    1.85
  -7   0  -6    8.85    1.59
   7   0   6    8.36    1.48
   7   0   6    9.65    1.40
  -8   0  -6    9.98    1.94
  -8   0  -6   13.26    1.97
   8   0   6   10.57    1.64
   8   0   6   11.80    1.78
  13  -1  -6    5.91    1.31
  13  -1  -6    2.80    1.05
 -13   1   6    4.11    1.59
  12  -1  -6    0.11    0.81
  12  -1  -6    0.40    0.79
 -12   1   6    0.62    1.23
  11  -1  -6    3.56    0.99
  11  -1  -6    4.62    1.17
 -11   1   6    3.22    1.33
  10  -1  -6    0.31    0.65
  10  -1  -6    1.05    0.78
 -10   1   6    2.11    1.13
   9  -1  -6    2.60    0.82
   9  -1  -6    4.32    1.01
  -9   1   6    3.74    1.18
   8  -1  -6   35.16    2.75
   8  -1  -6   40.87    2.85
  -8   1   6   33.27    3.05
   7  -1  -6   17.29    1.65
   7  -1  -6   20.43    1.75
  -7   1   6   13.63    1.82
   6  -1  -6   99.42    6.01
   6  -1  -6   98.10    5.73
   6  -1  -6   94.83    5.97
  -6   1   6   89.36    6.11
   5  -1  -6   16.61    1.51
   5  -1  -6   17.89    1.58
  -5   1   6   14.47    1.71
   4  -1  -6   31.96    2.26
   4  -1  -6   29.65    2.23
   4  -1  -6   29.34    1.85
  -4   1   6   29.69    2.09
  -4   1   6   28.85    2.34
   3  -1  -6   31.81    2.26
   3  -1  -6   27.78    2.30
   3  -1  -6   30.79    2.29
  -3   1   6   29.95    2.32
  -3   1   6   32.38    2.12
   2  -1  -6    6.28    1.01
   2  -1  -6    7.24    0.71
   2  -1  -6    7.78    1.08
  -2   1   6    7.20    0.85
  -2   1   6    6.39    0.98
   1  -1  -6   40.98    2.72
   1  -1  -6   44.10    2.86
   1  -1  -6   38.83    2.54
  -1   1   6   43.01    2.69
  -1   1   6   39.21    2.84
   0  -1  -6    5.90    0.73
   0  -1  -6    7.01    1.15
   0  -1  -6    7.52    0.86
   0   1   6    8.47    0.84
   0   1   6    6.99    0.98
   0   1   6    6.44    0.86
  -1  -1  -6   27.66    2.43
  -1  -1  -6   31.95    2.07
  -1  -1  -6   31.65    2.12
   1   1   6   33.05    2.38
   1   1   6   31.37    2.23
   1   1   6   32.02    2.13
  -2  -1  -6    7.86    1.32
  -2  -1  -6    7.56    0.76
  -2  -1  -6    6.05    0.87
   2   1   6    6.64    1.08
   2   1   6    7.69    0.92
   2   1   6    7.43    0.99
  -3  -1  -6   18.10    2.02
  -3  -1  -6   21.04    1.77
   3   1   6   18.66    1.70
   3   1   6   21.27    1.93
  -4  -1  -6   21.36    2.31
  -4  -1  -6   23.77    2.02
   4   1   6   24.00    2.17
   4   1   6   25.30    2.00
  -5  -1  -6    8.69    1.61
  -5  -1  -6   11.53    1.48
   5   1   6   11.43    1.58
   5   1   6   11.59    1.42
  -6  -1  -6    1.12    1.16
  -6  -1  -6    0.35    0.99
   6   1   6   -0.14    0.70
   6   1   6   -0.54    0.78
  -7  -1  -6    0.50    1.09
  -7  -1  -6    0.17    1.00
  -7  -1  -6    3.39    1.35
   7   1   6    1.62    0.92
   7   1   6    2.29    1.12
  -8  -1  -6    0.08    1.17
  -8  -1  -6    0.62    1.25
   8   1   6    1.51    0.92
   8   1   6    0.32    0.90
  12  -2  -6    0.46    0.83
  12  -2  -6    0.49    0.84
 -12   2   6    0.76    1.30
  11  -2  -6   10.49    1.54
  11  -2  -6   11.05    1.55
 -11   2   6    9.26    1.91
  10  -2  -6    0.87    0.82
  10  -2  -6    2.14    0.88
 -10   2   6   -0.45    1.06
   9  -2  -6    6.03    1.22
   9  -2  -6    7.32    1.22
  -9   2   6    6.70    1.55
   8  -2  -6   44.13    3.29
   8  -2  -6   48.57    3.34
  -8   2   6   42.99    3.66
   7  -2  -6   37.08    2.84
   7  -2  -6   34.06    2.47
   7  -2  -6   41.77    2.87
  -7   2   6   40.94    2.42
  -7   2   6   35.01    3.12
   6  -2  -6   12.42    1.07
   6  -2  -6   13.59    1.62
   6  -2  -6   13.14    1.19
   6  -2  -6   12.71    1.40
  -6   2   6   14.15    1.79
  -6   2   6   14.19    1.14
   5  -2  -6   32.76    2.58
   5  -2  -6   35.12    2.52
   5  -2  -6   33.69    2.14
   5  -2  -6   35.54    2.28
  -5   2   6   31.69    2.74
   4  -2  -6   66.99    4.38
   4  -2  -6   72.60    4.44
   4  -2  -6   70.28    4.17
   4  -2  -6   66.14    4.00
  -4   2   6   71.02    4.42
  -4   2   6   63.79    4.51
   3  -2  -6    4.23    0.85
   3  -2  -6    6.24    1.04
  -3   2   6    4.27    0.95
  -3   2   6    4.73    0.91
   2  -2  -6    1.54    0.60
  -2   2   6    0.73    0.64
  -2   2   6    1.01    0.40
  -2   2   6    0.21    0.59
   1  -2  -6   25.00    1.96
   1  -2  -6   23.13    2.05
   1  -2  -6   26.45    1.96
  -1   2   6   26.26    2.08
  -1   2   6   24.94    1.76
  -1   2   6   25.94    1.99
   0  -2  -6    3.86    0.79
   0  -2  -6    1.95    0.78
   0  -2  -6    3.54    0.80
   0   2   6    2.00    0.70
   0   2   6    2.48    0.55
   0   2   6    2.54    0.72
  -1  -2  -6   38.63    2.90
  -1  -2  -6   42.68    2.71
   1   2   6   37.41    2.83
   1   2   6   41.98    2.79
   1   2   6   38.46    2.49
  -2  -2  -6   43.48    2.70
  -2  -2  -6   35.57    2.97
   2   2   6   42.69    2.85
   2   2   6   36.31    2.54
   2   2   6   40.86    2.93
  -3  -2  -6    6.64    1.27
   3   2   6    9.00    1.19
   3   2   6    6.77    0.88
   3   2   6    9.67    1.35
  -4  -2  -6   10.16    1.55
   4   2   6   10.73    1.53
   4   2   6   12.43    1.47
  -5  -2  -6    1.64    1.04
  -5  -2  -6    1.61    1.22
   5   2   6    1.42    0.90
   5   2   6    0.14    0.74
  -6  -2  -6    9.84    1.65
  -6  -2  -6    8.44    1.83
   6   2   6   11.05    1.57
   6   2   6   10.23    1.66
  -7  -2  -6    4.74    1.61
  -7  -2  -6    2.56    1.29
   7   2   6    1.00    1.02
   7   2   6    1.86    1.02
  11  -3  -6    0.00    0.82
  11  -3  -6    0.12    1.16
 -11   3   6   -0.21    1.26
  10  -3  -6    0.60    0.82
 -10   3   6    0.34    1.21
   9  -3  -6   13.22    1.47
   9  -3  -6   12.45    1.63
  -9   3   6   10.12    1.91
   8  -3  -6   57.90    3.90
   8  -3  -6   58.02    3.79
   8  -3  -6   57.20    3.61
  -8   3   6   49.08    4.29
   7  -3  -6   26.44    2.12
   7  -3  -6   25.55    1.94
   7  -3  -6   24.08    1.89
  -7   3   6   16.55    2.28
   6  -3  -6   20.07    1.87
   6  -3  -6   24.17    1.80
  -6   3   6   16.29    2.22
   5  -3  -6    9.03    1.16
   5  -3  -6    7.02    0.70
   5  -3  -6    8.92    1.04
   5  -3  -6    6.23    0.96
  -5   3   6    6.93    1.32
   4  -3  -6    9.02    1.23
   4  -3  -6    6.95    1.00
   4  -3  -6    8.96    1.06
  -4   3   6    8.79    1.35
  -4   3   6   10.71    1.49
   3  -3  -6   18.21    1.60
   3  -3  -6   19.56    1.81
  -3   3   6   18.75    1.89
  -3   3   6   18.24    1.92
   2  -3  -6    7.52    0.99
   2  -3  -6    9.72    1.15
   2  -3  -6    7.91    1.27
  -2   3   6    8.04    1.19
  -2   3   6    7.97    1.23
   1  -3  -6   17.11    1.63
   1  -3  -6   19.30    1.81
   1  -3  -6   16.52    1.52
  -1   3   6   18.87    1.34
  -1   3   6   18.34    1.83
  -1   3   6   18.43    1.77
   0  -3  -6    9.06    1.24
   0  -3  -6    9.61    1.49
   0  -3  -6    8.49    1.09
   0  -3  -6   12.01    1.36
   0   3   6    9.18    1.29
   0   3   6   10.46    1.33
   0   3   6    8.11    0.83
  -1  -3  -6  154.47   10.08
  -1  -3  -6  163.60   10.28
  -1  -3  -6  175.12   10.09
   1   3   6  180.85   10.23
   1   3   6  172.14   10.21
  -2  -3  -6   19.66    2.04
  -2  -3  -6   24.91    2.43
  -2  -3  -6   28.77    2.19
   2   3   6   29.04    2.22
   2   3   6   25.84    2.22
  -3  -3  -6    6.20    1.14
  -3  -3  -6    6.56    1.53
   3   3   6    6.72    1.20
   3   3   6    7.26    1.22
  -4  -3  -6   21.47    2.44
  -4  -3  -6   16.08    1.84
   4   3   6   22.24    2.03
   4   3   6   20.43    2.09
  -5  -3  -6    4.82    1.18
  -5  -3  -6    3.64    1.60
   5   3   6    3.48    1.12
   5   3   6    4.22    1.15
  -6  -3  -6    2.43    1.19
  -6  -3  -6    2.17    1.65
   6   3   6    1.04    0.91
   6   3   6    1.49    0.95
  10  -4  -6    2.21    0.98
 -10   4   6    1.57    1.51
   9  -4  -6    0.73    0.84
   9  -4  -6    0.71    0.82
  -9   4   6    0.33    1.22
   8  -4  -6   13.10    1.61
   8  -4  -6   13.18    1.55
  -8   4   6   11.29    2.00
   7  -4  -6    0.43    0.76
   7  -4  -6    3.08    0.89
   7  -4  -6    0.61    0.81
  -7   4   6    1.30    1.24
   6  -4  -6   20.09    2.02
   6  -4  -6   21.41    2.00
   6  -4  -6   22.43    2.26
   6  -4  -6   23.71    1.98
  -6   4   6   21.56    2.50
   5  -4  -6    2.97    0.90
   5  -4  -6    5.74    1.18
   5  -4  -6    4.25    1.23
  -5   4   6    4.99    1.35
   4  -4  -6   16.71    1.88
   4  -4  -6   14.70    1.58
   4  -4  -6   14.63    1.72
   4  -4  -6   12.10    1.29
  -4   4   6   11.53    1.72
  -4   4   6   15.15    2.01
   3  -4  -6    8.18    1.39
   3  -4  -6    7.05    1.32
  -3   4   6    6.04    1.22
  -3   4   6    8.20    1.50
   2  -4  -6    4.45    1.21
   2  -4  -6    1.68    1.11
  -2   4   6    2.87    1.09
  -2   4   6    4.26    1.04
   1  -4  -6    5.24    1.31
   1  -4  -6    5.48    1.31
  -1   4   6    4.30    1.01
  -1   4   6    5.59    1.22
   0  -4  -6   20.50    2.29
   0  -4  -6   26.58    2.31
   0   4   6   23.04    2.29
   0   4   6   23.39    2.13
  -1  -4  -6   -0.13    1.13
  -1  -4  -6    0.35    1.00
   1   4   6    1.51    0.79
   1   4   6    0.28    0.81
  -2  -4  -6    3.99    1.23
  -2  -4  -6    3.56    1.43
   2   4   6    5.08    1.15
   2   4   6    4.54    1.07
  -3  -4  -6    9.24    1.98
   3   4   6   12.04    1.65
   3   4   6   13.26    1.75
  -4  -4  -6    7.52    1.82
   4   4   6    5.96    1.28
   4   4   6   10.16    1.65
   5   4   6    0.98    0.96
   5   4   6   -0.02    0.94
  -7   5   6    3.38    1.53
   6  -5  -6    0.41    1.26
   6  -5  -6    1.20    1.05
   6  -5  -6   -0.28    0.83
  -6   5   6    0.06    1.20
   5  -5  -6    1.04    0.97
   5  -5  -6    0.03    1.16
   5  -5  -6    0.53    0.86
  -5   5   6    0.36    1.13
  -5   5   6   -0.34    1.21
   4  -5  -6    1.43    1.09
   4  -5  -6    0.60    1.26
  -4   5   6   -0.48    1.18
  -4   5   6   -0.19    1.01
   3  -5  -6   -0.16    1.04
   3  -5  -6   -0.97    1.22
  -3   5   6   -0.58    1.13
  -3   5   6    0.31    0.94
   2  -5  -6   13.87    1.89
   2  -5  -6    8.54    1.65
  -2   5   6   10.10    2.13
  -2   5   6   11.72    1.89
   1  -5  -6   14.42    2.14
   1  -5  -6   15.79    2.07
  -1   5   6   12.34    1.93
   0  -5  -6    6.36    1.50
   0  -5  -6    1.61    1.35
   0   5   6    3.81    1.25
  -1  -5  -6    2.78    1.44
  -1  -5  -6    2.10    1.32
   1   5   6    4.06    1.26
  -2  -5  -6    7.81    1.68
   2   5   6    9.58    1.68
   6   5  -7    0.12    1.15
   5   5  -7   14.46    2.08
   5   5  -7    7.66    1.60
  -5  -5   7    9.89    1.54
   4   5  -7    4.66    1.57
   4   5  -7    3.24    1.27
  -4  -5   7    3.50    1.18
   3   5  -7    2.44    1.29
   3   5  -7    2.51    1.48
  -3  -5   7    1.71    1.03
   2   5  -7    2.70    1.46
  -2  -5   7    2.34    1.09
   1   5  -7    7.25    1.71
  -1  -5   7    3.86    1.19
  -1  -5   7    5.02    1.35
   0   5  -7    5.76    1.72
   0  -5   7    4.75    1.33
   0  -5   7    3.31    1.31
   9   4  -7    0.22    1.33
  -9  -4   7    1.48    0.95
   8   4  -7   33.04    3.27
  -8  -4   7   31.91    2.75
  -7  -4   7   23.81    2.30
   6   4  -7   63.60    4.73
  -6  -4   7   64.69    4.37
  -6  -4   7   67.10    4.49
   5   4  -7    2.47    1.05
  -5  -4   7    1.67    0.86
  -5  -4   7    0.67    0.86
   4   4  -7    1.64    1.24
   4   4  -7    0.34    0.87
  -4  -4   7    1.45    0.81
   3   4  -7    5.19    1.13
   3   4  -7    6.46    1.57
  -3  -4   7    4.54    1.07
   2   4  -7    0.73    0.73
   2   4  -7    1.11    1.20
  -2  -4   7    0.51    0.68
  -2  -4   7    2.47    0.94
   1   4  -7   29.91    2.54
   1   4  -7   31.48    2.93
   1   4  -7   28.88    2.33
  -1  -4   7   34.05    2.61
  -1  -4   7   32.90    2.57
   0   4  -7   10.10    1.72
   0   4  -7   10.94    1.55
   0  -4   7    9.34    1.36
   0  -4   7    8.84    1.34
  -1   4  -7    2.66    1.15
  -1   4  -7    4.13    1.49
   1  -4   7    4.08    1.14
   1  -4   7    4.02    1.03
  -2   4  -7   19.44    2.46
  -2   4  -7   20.23    2.45
   2  -4   7   23.66    2.29
   2  -4   7   20.64    2.23
  -3   4  -7   21.68    2.61
  -3   4  -7   16.06    2.34
   3  -4   7   24.98    2.32
   3  -4   7   17.35    2.03
  11   3  -7   -0.13    0.72
  11   3  -7    0.28    1.20
 -11  -3   7    1.97    1.00
  10   3  -7    1.08    0.76
  10   3  -7    1.57    1.24
 -10  -3   7    0.11    0.81
   9   3  -7    1.95    0.82
   9   3  -7    2.98    1.35
  -9  -3   7    2.77    0.89
   8   3  -7    2.87    1.27
   8   3  -7    4.26    0.91
  -8  -3   7    4.06    0.95
   7   3  -7   22.56    1.97
   7   3  -7   22.58    2.46
  -7  -3   7   27.33    2.04
  -7  -3   7   26.63    2.16
   6   3  -7    6.88    1.32
   6   3  -7    6.83    1.00
  -6  -3   7    5.78    0.99
  -6  -3   7    7.47    1.14
   5   3  -7    0.39    0.79
   5   3  -7    0.02    0.49
  -5  -3   7    0.79    0.67
  -5  -3   7   -0.31    0.65
   4   3  -7    9.41    0.89
   4   3  -7   14.79    1.69
   4   3  -7   11.88    1.25
  -4  -3   7   16.72    1.45
  -4  -3   7   11.63    1.39
   3   3  -7    3.15    0.72
   3   3  -7    2.32    0.44
   3   3  -7    1.96    1.13
   3   3  -7    2.81    0.89
  -3  -3   7    3.14    0.87
   2   3  -7    2.75    0.75
   2   3  -7    1.40    0.46
   2   3  -7    2.48    0.76
   2   3  -7    2.73    1.16
  -2  -3   7    2.34    0.87
  -2  -3   7    2.62    0.69
   1   3  -7   39.61    3.09
   1   3  -7   36.61    2.64
  -1  -3   7   37.01    2.67
  -1  -3   7   37.99    2.77
   0   3  -7    3.58    1.04
   0   3  -7    5.48    1.27
   0   3  -7    4.01    0.74
   0  -3   7    3.45    0.81
   0  -3   7    3.11    0.98
  -1   3  -7   30.23    2.80
  -1   3  -7   36.16    2.98
   1  -3   7   32.56    2.33
   1  -3   7   37.01    2.72
   1  -3   7   35.83    2.58
  -2   3  -7   31.49    2.82
  -2   3  -7   29.53    2.79
   2  -3   7   29.11    2.27
   2  -3   7   34.39    2.50
   2  -3   7   31.25    2.60
  -3   3  -7    6.23    1.63
  -3   3  -7    8.90    1.65
   3  -3   7    7.92    1.16
   3  -3   7   10.02    1.48
   3  -3   7    7.75    1.24
  -4   3  -7    4.76    1.54
  -4   3  -7    3.31    1.44
   4  -3   7    2.40    0.88
   4  -3   7    4.56    1.26
   4  -3   7    3.87    1.00
  -5   3  -7    1.72    1.36
  -5   3  -7    0.71    1.26
   5  -3   7    0.46    1.02
   5  -3   7    0.64    0.87
  12   2  -7    9.73    1.79
  12   2  -7    6.25    1.27
 -12  -2   7   10.41    1.59
  11   2  -7    0.61    0.99
  11   2  -7    0.46    0.70
 -11  -2   7    1.63    0.80
 -11  -2   7    1.80    0.91
  10   2  -7    0.80    0.99
  10   2  -7    0.59    0.67
 -10  -2   7   -0.35    0.75
 -10  -2   7    0.43    0.69
   9   2  -7   22.19    2.47
   9   2  -7   23.77    2.17
  -9  -2   7   27.52    2.04
  -9  -2   7   28.74    2.30
   8   2  -7   32.78    2.59
   8   2  -7   34.87    2.92
  -8  -2   7   34.87    2.40
  -8  -2   7   35.25    2.64
   7   2  -7   54.09    3.75
   7   2  -7   52.78    3.98
  -7  -2   7   56.57    3.54
  -7  -2   7   55.89    3.53
  -7  -2   7   58.28    3.76
  -7  -2   7   58.42    3.58
   6   2  -7   20.07    1.51
   6   2  -7   20.90    2.01
   6   2  -7   18.40    1.69
  -6  -2   7   18.66    1.69
  -6  -2   7   20.97    1.61
  -6  -2   7   20.34    1.49
  -6  -2   7   20.98    1.54
   5   2  -7   79.77    5.09
   5   2  -7   73.40    4.87
   5   2  -7   76.95    4.69
  -5  -2   7   77.61    4.67
  -5  -2   7   78.67    4.85
  -5  -2   7   77.00    4.70
  -5  -2   7   80.11    4.78
   4   2  -7   10.93    0.97
   4   2  -7   11.36    1.30
   4   2  -7   13.09    1.42
  -4  -2   7    9.47    0.98
  -4  -2   7   13.62    1.24
  -4  -2   7   10.51    0.98
  -4  -2   7   10.47    1.15
   3   2  -7   14.90    1.14
   3   2  -7   17.12    1.52
   3   2  -7   19.01    1.90
   3   2  -7   17.78    1.62
  -3  -2   7   15.12    1.40
  -3  -2   7   16.83    1.31
  -3  -2   7   16.70    1.31
  -3  -2   7   18.69    1.53
   2   2  -7    8.28    1.30
   2   2  -7    6.26    1.04
   2   2  -7    7.72    0.78
   2   2  -7   10.56    1.20
  -2  -2   7    8.21    0.92
  -2  -2   7    9.06    0.96
  -2  -2   7    9.16    1.16
  -2  -2   7    6.87    0.97
  -2  -2   7    9.16    0.91
   1   2  -7   29.58    2.54
   1   2  -7   37.39    2.34
   1   2  -7   27.97    2.07
   1   2  -7   29.10    2.10
  -1  -2   7   31.48    2.25
  -1  -2   7   32.47    2.17
  -1  -2   7   30.98    2.19
  -1  -2   7   33.18    2.22
   0   2  -7   28.12    2.45
   0   2  -7   30.67    2.50
   0   2  -7   29.84    1.97
   0   2  -7   31.64    2.17
   0  -2   7   30.83    2.17
   0  -2   7   27.86    2.15
   0  -2   7   29.90    2.10
   0  -2   7   29.01    2.10
  -1   2  -7   13.54    1.75
  -1   2  -7   16.13    1.88
   1  -2   7   15.04    1.43
   1  -2   7   13.40    1.41
   1  -2   7   16.36    1.39
   1  -2   7   15.19    1.26
  -2   2  -7   70.81    4.85
  -2   2  -7   67.00    4.90
   2  -2   7   74.09    4.60
  -3   2  -7   -0.11    1.01
  -3   2  -7    0.51    1.05
   3  -2   7    0.05    0.67
  -4   2  -7   -0.48    1.04
  -4   2  -7    1.09    1.19
   4  -2   7    0.40    0.72
  -5   2  -7    2.60    1.33
  -5   2  -7    2.30    1.40
   5  -2   7    2.75    0.98
  -6   2  -7    1.64    1.45
  -6   2  -7    3.77    1.47
   6  -2   7    2.58    1.05
  13   1  -7    4.03    1.18
  13   1  -7    3.26    1.28
 -13  -1   7    5.14    1.52
  12   1  -7    1.56    0.90
  12   1  -7    2.91    1.19
 -12  -1   7    2.34    1.25
  11   1  -7   -0.19    0.66
  11   1  -7    0.54    0.92
 -11  -1   7    0.27    0.97
  10   1  -7    4.18    1.02
  10   1  -7    3.92    1.13
 -10  -1   7    3.35    1.09
   9   1  -7    7.71    1.37
   9   1  -7    4.90    0.96
  -9  -1   7    5.21    1.13
   8   1  -7   16.92    1.80
   8   1  -7   15.01    1.58
  -8  -1   7   16.00    1.74
   7   1  -7   53.49    3.49
   7   1  -7   52.46    3.61
  -7  -1   7   45.55    3.36
  -7  -1   7   52.77    3.47
  -7  -1   7   48.88    3.07
   6   1  -7    9.42    1.19
   6   1  -7   10.27    1.39
  -6  -1   7    8.67    0.88
  -6  -1   7    9.30    1.17
  -6  -1   7    7.96    1.09
   5   1  -7   43.30    3.06
   5   1  -7   44.58    3.16
   5   1  -7   41.36    2.70
  -5  -1   7   49.52    2.87
  -5  -1   7   46.97    3.03
  -5  -1   7   44.12    2.91
  -5  -1   7   44.06    2.98
   4   1  -7    7.16    1.04
   4   1  -7    6.47    0.96
  -4  -1   7    5.37    0.81
  -4  -1   7    6.74    0.77
  -4  -1   7    4.52    0.81
   3   1  -7    4.30    0.85
   3   1  -7    2.68    0.71
   3   1  -7    3.94    0.46
  -3  -1   7    3.51    0.73
  -3  -1   7    4.02    0.73
  -3  -1   7    3.51    0.60
   2   1  -7   29.26    2.24
   2   1  -7   26.83    1.84
   2   1  -7   28.90    2.15
   2   1  -7   30.24    2.29
  -2  -1   7   26.80    1.88
  -2  -1   7   29.00    2.07
  -2  -1   7   28.86    2.13
  -2  -1   7   28.97    2.13
   1   1  -7   26.29    2.00
   1   1  -7   23.62    1.74
   1   1  -7   27.58    2.14
   1   1  -7   23.13    1.74
  -1  -1   7   26.10    1.71
  -1  -1   7   27.79    1.97
  -1  -1   7   27.29    1.98
  -1  -1   7   25.91    2.01
  -1  -1   7   28.37    1.84
   0   1  -7   15.16    1.16
   0   1  -7   16.00    1.78
   0   1  -7   14.85    1.60
   0  -1   7   15.31    1.30
   0  -1   7   14.38    1.32
   0  -1   7   14.59    1.42
  -1   1  -7    4.18    1.11
  -1   1  -7    5.42    1.07
  -1   1  -7    4.64    0.67
   1  -1   7    6.30    0.84
   1  -1   7    5.89    0.85
   1  -1   7    7.63    1.09
  -2   1  -7   10.36    1.44
  -2   1  -7   11.70    1.04
  -2   1  -7    8.90    1.45
   2  -1   7    9.99    1.21
   2  -1   7    7.96    0.98
   2  -1   7   12.82    1.43
  -3   1  -7    4.47    1.30
  -3   1  -7    2.49    1.04
   3  -1   7    5.09    1.06
   3  -1   7    4.21    0.86
  -4   1  -7   14.05    1.98
  -4   1  -7   23.22    2.24
   4  -1   7   18.47    1.89
   4  -1   7   17.66    1.71
  -5   1  -7    2.93    1.18
  -5   1  -7    2.26    1.25
   5  -1   7    2.46    0.96
  -6   1  -7    1.52    1.37
  -6   1  -7    3.43    1.32
   6  -1   7    3.27    1.08
  -7   1  -7    5.04    1.59
  -7   1  -7   12.22    1.99
   7  -1   7    5.54    1.32
  13   0  -7    0.91    0.85
  13   0  -7    0.41    0.89
 -13   0   7   -0.03    1.26
  12   0  -7   20.00    2.06
  12   0  -7   10.83    1.69
 -12   0   7   17.24    2.31
  11   0  -7    7.67    1.37
  11   0  -7    4.63    1.07
 -11   0   7    7.90    1.69
  10   0  -7    0.86    0.69
  10   0  -7    1.05    0.82
 -10   0   7    0.76    1.00
   9   0  -7   15.01    1.63
   9   0  -7   16.33    1.77
  -9   0   7   12.74    1.84
   8   0  -7   34.00    2.55
   8   0  -7   29.44    2.42
  -8   0   7   28.15    2.65
   7   0  -7    4.45    0.90
   7   0  -7    3.46    0.92
  -7   0   7    5.41    0.49
  -7   0   7    2.85    0.93
   6   0  -7    7.37    1.05
   6   0  -7    7.03    1.12
  -6   0   7    3.30    0.92
   5   0  -7   42.77    2.97
   5   0  -7   40.25    2.88
  -5   0   7   40.23    2.95
   4   0  -7    0.22    0.52
   4   0  -7   -0.27    0.47
  -4   0   7    0.00    0.28
  -4   0   7   -0.49    0.52
   3   0  -7   31.35    1.97
   3   0  -7   26.20    2.24
   3   0  -7   29.74    2.26
  -3   0   7   29.00    2.23
  -3   0   7   27.45    1.90
  -3   0   7   32.75    1.93
   2   0  -7   39.13    2.62
   2   0  -7   36.00    2.74
   2   0  -7   36.02    2.70
   2   0  -7   37.50    2.42
  -2   0   7   38.33    2.66
  -2   0   7   35.04    2.28
  -2   0   7   40.99    2.42
   1   0  -7   61.76    4.07
   1   0  -7   63.60    3.97
  -1   0   7   66.35    3.96
  -1   0   7   65.50    4.17
   0   0  -7   38.26    2.61
   0   0  -7   35.45    2.84
   0   0   7   35.34    2.46
   0   0   7   38.89    2.69
  -1   0  -7    3.86    0.86
  -1   0  -7    5.24    1.16
   1   0   7    4.56    0.78
   1   0   7    4.62    0.85
  -2   0  -7   23.38    2.34
  -2   0  -7   27.54    2.14
   2   0   7   26.02    2.17
   2   0   7   24.32    1.94
  -3   0  -7    0.84    1.02
  -3   0  -7    2.44    0.87
   3   0   7    2.18    0.68
   3   0   7    2.31    0.85
  -4   0  -7    1.35    0.99
  -4   0  -7    2.46    0.94
   4   0   7    1.85    0.80
   4   0   7    1.17    0.69
  -5   0  -7    0.89    0.98
  -5   0  -7   -0.82    0.94
   5   0   7    0.63    0.85
   5   0   7    0.50    0.64
  -6   0  -7    2.00    1.29
  -6   0  -7    2.19    1.39
   6   0   7    3.52    1.11
   6   0   7    4.27    1.02
  -7   0  -7    0.65    1.16
  -7   0  -7    0.21    1.22
   7   0   7    0.79    0.91
   7   0   7    1.09    0.83
  13  -1  -7    6.71    1.40
  13  -1  -7    5.26    1.23
 -13   1   7    4.40    1.76
  12  -1  -7    0.98    0.93
  12  -1  -7    2.96    1.06
 -12   1   7    2.27    1.46
  11  -1  -7    0.73    0.85
  11  -1  -7   -0.02    0.68
 -11   1   7    0.54    1.17
  10  -1  -7    3.98    1.00
  10  -1  -7    6.25    1.25
 -10   1   7    3.24    1.31
   9  -1  -7    5.37    1.05
   9  -1  -7    6.91    1.25
  -9   1   7    6.29    1.43
   8  -1  -7   17.26    1.78
   8  -1  -7   17.31    1.70
  -8   1   7   13.39    1.90
   7  -1  -7   43.77    3.21
   7  -1  -7   45.75    3.27
  -7   1   7   46.43    3.48
   6  -1  -7    6.86    1.12
   6  -1  -7    7.77    1.09
  -6   1   7    6.23    1.23
   5  -1  -7   44.60    3.05
   5  -1  -7   42.96    3.06
  -5   1   7   35.29    3.08
  -5   1   7   47.79    2.86
   4  -1  -7    4.69    0.92
   4  -1  -7    7.58    1.12
  -4   1   7    6.32    1.08
  -4   1   7    5.30    0.77
   3  -1  -7    3.23    0.81
   3  -1  -7    3.12    0.83
   3  -1  -7    4.15    0.64
  -3   1   7    2.22    0.77
  -3   1   7    3.33    0.64
   2  -1  -7   27.24    1.89
   2  -1  -7   27.21    2.31
   2  -1  -7   28.80    2.06
  -2   1   7   27.57    2.24
  -2   1   7   30.98    2.02
   1  -1  -7   24.55    1.74
  -1   1   7   24.36    2.05
  -1   1   7   26.95    1.89
   0  -1  -7   15.81    1.30
   0  -1  -7   16.09    1.33
   0  -1  -7   15.70    1.70
   0   1   7   15.01    1.57
   0   1   7   16.91    1.43
  -1  -1  -7    3.67    0.68
  -1  -1  -7    2.86    0.96
  -1  -1  -7    6.12    0.73
   1   1   7    5.54    0.97
   1   1   7    5.41    0.81
   1   1   7    4.86    0.84
  -2  -1  -7    7.95    1.42
  -2  -1  -7    8.62    1.07
   2   1   7    9.09    1.16
   2   1   7    9.76    1.34
  -3  -1  -7    2.59    1.08
  -3  -1  -7    3.21    0.88
   3   1   7    5.87    1.14
   3   1   7    4.40    0.90
  -4  -1  -7   18.33    1.79
  -4  -1  -7   12.91    1.94
   4   1   7   17.45    1.94
   4   1   7   18.27    1.71
  -5  -1  -7    0.88    0.90
  -5  -1  -7    0.43    1.07
   5   1   7    2.78    1.05
   5   1   7    2.71    0.89
  -6  -1  -7    4.50    1.53
  -6  -1  -7    2.22    1.14
   6   1   7    5.34    1.34
   6   1   7    2.68    0.93
  -7  -1  -7    6.38    1.60
  -7  -1  -7    8.39    1.76
  -7  -1  -7    6.98    1.54
   7   1   7    6.22    1.49
   7   1   7    8.11    1.44
  12  -2  -7   11.37    1.69
  12  -2  -7    9.50    1.56
 -12   2   7    6.76    1.84
  11  -2  -7    0.12    0.72
  11  -2  -7    1.36    0.94
 -11   2   7    1.51    1.47
  10  -2  -7    0.33    0.72
  10  -2  -7    1.55    0.87
 -10   2   7    0.70    1.19
   9  -2  -7   29.80    2.38
   9  -2  -7   21.82    2.20
  -9   2   7   21.13    2.63
   8  -2  -7   34.86    2.67
   8  -2  -7   32.13    2.62
  -8   2   7   29.30    3.00
   7  -2  -7   50.69    3.40
   7  -2  -7   55.35    3.76
   7  -2  -7   59.58    3.91
   7  -2  -7   53.32    3.44
  -7   2   7   44.31    3.98
  -7   2   7   60.38    3.37
   6  -2  -7   19.03    1.49
   6  -2  -7   22.06    1.88
   6  -2  -7   21.57    1.92
   6  -2  -7   19.67    1.41
  -6   2   7   14.30    1.97
   5  -2  -7   74.06    4.38
   5  -2  -7   75.65    4.49
   5  -2  -7   74.76    4.81
  -5   2   7   76.37    4.78
  -5   2   7   67.59    4.93
   4  -2  -7   10.13    1.29
  -4   2   7    9.90    1.23
  -4   2   7    6.83    1.23
   3  -2  -7   17.79    1.79
  -3   2   7   17.70    1.68
  -3   2   7   16.57    1.77
  -2   2   7    7.32    1.15
  -2   2   7    8.83    1.14
  -2   2   7    7.79    0.82
   1  -2  -7   33.75    2.35
   1  -2  -7   30.29    2.51
  -1   2   7   30.74    2.48
  -1   2   7   31.67    2.36
  -1   2   7   30.70    2.11
   0  -2  -7   31.20    2.16
   0  -2  -7   26.37    2.38
   0   2   7   26.95    2.17
   0   2   7   26.06    2.29
   0   2   7   30.04    1.99
  -1  -2  -7   16.33    1.53
  -1  -2  -7   16.82    1.90
  -1  -2  -7   15.87    1.26
   1   2   7   14.62    1.25
   1   2   7   15.34    1.67
   1   2   7   15.94    1.61
  -2  -2  -7   80.40    4.83
  -2  -2  -7   73.46    5.26
  -2  -2  -7   79.82    4.81
   2   2   7   75.96    4.81
   2   2   7   80.69    5.20
   2   2   7   79.34    5.04
  -3  -2  -7    0.00    0.92
  -3  -2  -7    1.17    0.68
   3   2   7    0.71    0.80
   3   2   7    0.61    0.75
  -4  -2  -7   -0.43    0.97
   4   2   7    0.03    0.79
   4   2   7    0.57    0.77
  -5  -2  -7    3.42    1.62
  -5  -2  -7    2.76    1.24
   5   2   7    2.56    0.92
   5   2   7    1.83    1.01
  -6  -2  -7    2.50    1.25
  -6  -2  -7    2.88    1.63
   6   2   7    2.19    1.12
   6   2   7    2.31    1.03
  11  -3  -7    0.90    0.96
  11  -3  -7    1.01    0.90
 -11   3   7   -0.66    1.28
  10  -3  -7    0.89    0.84
  10  -3  -7    1.32    0.77
 -10   3   7   -0.51    1.23
   9  -3  -7    2.04    0.78
   9  -3  -7    2.43    0.93
  -9   3   7    0.01    1.14
   8  -3  -7    2.13    0.74
   8  -3  -7    3.13    0.95
  -8   3   7    2.21    1.31
   7  -3  -7   26.74    2.27
   7  -3  -7   25.16    2.03
  -7   3   7   25.36    2.71
   6  -3  -7    7.61    1.22
   6  -3  -7    7.13    0.96
  -6   3   7    4.93    1.33
   5  -3  -7   -0.86    0.66
   5  -3  -7    0.64    0.53
  -5   3   7    0.81    0.92
  -5   3   7   -1.15    0.77
  -4   3   7   11.79    1.61
  -4   3   7   12.63    1.63
   3  -3  -7    3.44    1.05
   3  -3  -7    3.27    0.77
  -3   3   7    4.24    1.03
  -3   3   7    2.26    0.92
   2  -3  -7    2.84    0.79
   2  -3  -7    4.64    1.14
   2  -3  -7    1.74    0.81
  -2   3   7    2.75    0.55
  -2   3   7    2.29    0.88
  -2   3   7    2.07    0.89
   1  -3  -7   36.77    2.70
   1  -3  -7   34.59    2.84
   1  -3  -7   29.71    2.63
  -1   3   7   38.07    2.79
  -1   3   7   33.72    2.77
  -1   3   7   38.44    2.34
   0  -3  -7    2.29    0.93
   0  -3  -7    4.27    1.08
   0   3   7    2.71    0.87
   0   3   7    3.61    0.94
  -1  -3  -7   36.35    2.62
  -1  -3  -7   31.08    2.62
   1   3   7   34.97    2.71
   1   3   7   31.21    2.61
  -2  -3  -7   29.00    2.59
  -2  -3  -7   28.59    2.84
  -2  -3  -7   36.06    2.54
   2   3   7   34.57    2.73
   2   3   7   33.75    2.71
  -3  -3  -7   10.43    1.80
  -3  -3  -7    7.59    1.34
   3   3   7    8.39    1.41
   3   3   7    7.63    1.32
  -4  -3  -7    3.23    1.56
  -4  -3  -7    2.25    1.03
   4   3   7    4.40    1.15
   4   3   7    3.36    1.11
  -5  -3  -7    1.64    1.07
  -5  -3  -7    1.64    1.49
   5   3   7   -0.24    0.83
   5   3   7   -0.06    0.88
   9  -4  -7   -0.19    0.83
   9  -4  -7    1.33    0.81
  -9   4   7   -1.69    1.20
   8  -4  -7   28.43    2.48
   8  -4  -7   29.07    2.43
  -8   4   7   29.14    3.19
   7  -4  -7   21.65    2.07
   7  -4  -7   21.92    2.13
   7  -4  -7   24.63    2.06
  -7   4   7   20.21    2.67
   6  -4  -7   64.37    4.43
   6  -4  -7   59.94    4.19
   6  -4  -7   61.58    4.18
   5  -4  -7    3.39    1.14
   5  -4  -7    0.15    1.12
   5  -4  -7    0.66    0.72
  -5   4   7    1.20    1.07
  -5   4   7    1.61    1.18
   4  -4  -7    0.80    1.17
   4  -4  -7   -0.64    0.60
   4  -4  -7    0.20    0.95
  -4   4   7   -0.34    0.86
  -4   4   7    0.59    1.02
   3  -4  -7    4.14    0.88
   3  -4  -7    4.55    1.26
   3  -4  -7    5.50    1.35
  -3   4   7    4.90    1.32
  -3   4   7    5.82    1.25
   2  -4  -7   -1.96    0.96
   2  -4  -7    0.38    0.69
   2  -4  -7   -0.52    1.12
  -2   4   7    1.47    0.98
  -2   4   7    0.73    0.82
   1  -4  -7   26.54    2.62
   1  -4  -7   29.65    2.67
  -1   4   7   28.52    2.57
  -1   4   7   27.40    2.48
   0  -4  -7    6.16    1.62
   0  -4  -7   11.56    1.63
   0   4   7   12.65    1.70
   0   4   7   11.24    1.56
  -1  -4  -7    3.92    1.41
  -1  -4  -7    3.96    1.25
   1   4   7    4.25    1.11
   1   4   7    3.56    1.04
  -2  -4  -7   14.41    2.15
  -2  -4  -7   16.93    1.90
   2   4   7   17.02    1.98
   2   4   7   18.15    2.07
  -3  -4  -7   11.92    2.15
   3   4   7   18.82    2.25
   3   4   7   18.34    2.10
   6  -5  -7    0.85    0.90
   6  -5  -7    0.78    1.11
   6  -5  -7   -1.49    1.23
  -6   5   7   -0.67    1.13
  -6   5   7   -1.24    1.21
   5  -5  -7   13.17    2.09
   5  -5  -7    9.39    1.55
  -5   5   7   11.69    2.10
  -5   5   7   12.02    1.95
   4  -5  -7    4.13    1.45
   4  -5  -7    4.20    1.37
  -4   5   7    3.31    1.27
  -4   5   7    2.83    1.38
   3  -5  -7    2.11    1.23
   3  -5  -7    2.69    1.45
  -3   5   7    2.79    1.14
  -3   5   7    1.67    1.24
   2  -5  -7    1.04    1.41
   2  -5  -7    2.90    1.45
  -2   5   7    1.75    1.19
  -2   5   7    2.50    1.32
   1  -5  -7    3.94    1.39
   1  -5  -7    3.87    1.43
  -1   5   7    4.05    1.35
   0  -5  -7    2.60    1.46
   0  -5  -7    4.00    1.52
   0   5   7    5.18    1.38
   9   4  -8    5.02    1.66
  -9  -4   8    5.56    1.24
   8   4  -8    2.40    1.36
  -8  -4   8    1.98    0.95
   7   4  -8    6.38    1.52
  -7  -4   8    6.62    1.22
  -7  -4   8    7.37    1.34
   6   4  -8    2.98    1.15
  -6  -4   8    3.74    1.02
  -6  -4   8    3.48    1.04
   5   4  -8    7.10    1.43
   5   4  -8    7.25    1.74
  -5  -4   8    7.80    1.28
  -5  -4   8    5.89    1.19
   4   4  -8    0.83    0.91
   4   4  -8    2.10    1.28
  -4  -4   8    1.16    0.93
   3   4  -8   -0.96    1.19
   3   4  -8    0.18    0.76
  -3  -4   8    0.11    0.85
   2   4  -8    5.98    1.10
   2   4  -8    6.29    1.56
  -2  -4   8    5.19    1.16
  -2  -4   8    3.83    0.96
   1   4  -8    6.21    1.65
   1   4  -8    8.93    1.73
  -1  -4   8    6.22    1.24
  -1  -4   8    5.48    1.19
   0   4  -8    7.32    1.45
   0   4  -8    6.11    1.64
   0  -4   8    8.24    1.35
   0  -4   8    8.52    1.50
  -1   4  -8    3.71    1.50
  -1   4  -8    2.80    1.30
   1  -4   8    5.39    1.31
   1  -4   8    4.47    1.11
  -2   4  -8   13.64    2.22
  -2   4  -8   13.01    2.13
   2  -4   8   16.22    2.04
   2  -4   8   16.28    1.98
  11   3  -8   -0.63    0.63
  11   3  -8    0.07    1.11
 -11  -3   8   -0.08    0.83
  10   3  -8    0.60    0.67
  10   3  -8    1.14    1.15
 -10  -3   8    1.80    0.93
   9   3  -8    1.22    1.19
   9   3  -8    2.43    0.83
  -9  -3   8    2.32    0.90
   8   3  -8    5.02    1.39
   8   3  -8    3.68    0.93
  -8  -3   8    7.86    1.26
   7   3  -8    0.70    0.64
   7   3  -8    1.08    0.95
  -7  -3   8    1.89    0.78
  -7  -3   8    1.20    0.78
   6   3  -8    3.76    0.86
   6   3  -8    3.54    1.15
  -6  -3   8    2.30    0.84
  -6  -3   8    2.97    0.84
   5   3  -8    9.78    1.31
   5   3  -8   12.23    1.66
  -5  -3   8   11.51    1.37
  -5  -3   8   11.19    1.36
   4   3  -8   14.85    1.54
   4   3  -8   17.12    1.80
   4   3  -8   15.68    2.05
  -4  -3   8   16.61    1.60
  -4  -3   8   14.13    1.54
   3   3  -8    3.57    0.87
   3   3  -8    2.89    1.26
   3   3  -8    6.63    1.12
  -3  -3   8    4.14    0.98
   2   3  -8    5.36    1.42
   2   3  -8    6.28    1.05
  -2  -3   8    5.08    0.87
  -2  -3   8    2.93    0.95
   1   3  -8   12.99    1.87
   1   3  -8   14.96    1.48
  -1  -3   8   13.27    1.39
  -1  -3   8   13.14    1.58
   0   3  -8    7.29    1.51
   0   3  -8    6.73    1.32
   0   3  -8    8.27    1.04
   0  -3   8    9.19    1.18
   0  -3   8    6.84    0.93
   0  -3   8    7.43    1.34
  -1   3  -8   16.81    2.10
  -1   3  -8   15.93    2.11
   1  -3   8   18.34    1.77
   1  -3   8   19.83    2.01
   1  -3   8   15.84    1.54
  -2   3  -8    0.09    1.07
  -2   3  -8   -1.19    1.05
   2  -3   8    0.61    0.71
   2  -3   8   -1.11    0.99
   2  -3   8    1.32    0.72
  -3   3  -8   10.63    1.98
  -3   3  -8    9.98    1.93
   3  -3   8   12.36    1.53
   3  -3   8   12.29    1.46
   3  -3   8   13.52    1.74
  -4   3  -8    2.61    1.43
  -4   3  -8    2.97    1.45
   4  -3   8    1.77    1.16
   4  -3   8    1.31    0.86
   4  -3   8    1.18    0.91
  12   2  -8    0.80    0.78
  12   2  -8    0.67    1.06
 -12  -2   8    1.07    0.96
  11   2  -8    0.38    0.69
  11   2  -8    1.17    1.04
 -11  -2   8   -0.08    0.82
 -11  -2   8    0.23    0.78
  10   2  -8    0.81    0.67
  10   2  -8   -0.14    0.84
 -10  -2   8    1.02    0.85
 -10  -2   8    0.09    0.63
   9   2  -8   16.56    1.75
   9   2  -8   16.01    2.10
  -9  -2   8   19.24    1.65
  -9  -2   8   20.76    1.93
   8   2  -8    2.47    0.74
   8   2  -8    2.31    1.02
  -8  -2   8    1.70    0.58
  -8  -2   8    1.60    0.64
  -8  -2   8    2.83    0.79
   7   2  -8   14.64    1.52
   7   2  -8   14.86    1.90
   7   2  -8   17.65    1.47
  -7  -2   8   14.86    1.32
  -7  -2   8   15.54    1.56
  -7  -2   8   15.19    1.39
   6   2  -8    9.24    1.25
   6   2  -8    8.26    1.39
   6   2  -8    8.18    0.85
  -6  -2   8    8.20    1.07
  -6  -2   8    6.73    1.07
  -6  -2   8    8.23    1.01
  -6  -2   8    6.76    0.86
   5   2  -8    1.83    0.46
   5   2  -8    3.18    0.92
   5   2  -8    1.42    0.64
  -5  -2   8    1.65    0.52
  -5  -2   8    2.26    0.70
  -5  -2   8    1.86    0.64
  -5  -2   8    2.15    0.57
   4   2  -8   18.48    1.70
   4   2  -8   21.53    1.84
  -4  -2   8   18.01    1.56
  -4  -2   8   16.95    1.45
  -4  -2   8   19.34    1.65
  -4  -2   8   17.98    1.46
   3   2  -8    9.35    1.26
   3   2  -8   11.26    1.59
   3   2  -8    8.72    0.83
   3   2  -8   13.11    1.45
  -3  -2   8    9.87    1.09
  -3  -2   8   14.42    1.41
  -3  -2   8   10.13    1.11
  -3  -2   8    7.17    0.97
   2   2  -8    7.71    0.85
   2   2  -8   11.25    1.28
   2   2  -8    6.89    1.17
   2   2  -8   10.38    1.53
  -2  -2   8   10.19    0.94
  -2  -2   8    7.40    0.99
  -2  -2   8   10.29    1.13
   1   2  -8    5.05    0.90
   1   2  -8    6.32    1.28
   1   2  -8    4.09    0.69
  -1  -2   8    5.35    0.89
  -1  -2   8    5.34    0.75
  -1  -2   8    6.25    0.94
   0   2  -8   31.71    1.98
   0   2  -8   26.52    2.54
   0   2  -8   25.49    2.52
   0  -2   8   28.25    2.25
   0  -2   8   30.69    2.24
   0  -2   8   28.69    2.21
   0  -2   8   27.63    2.05
  -1   2  -8   13.86    1.70
  -1   2  -8    8.71    1.57
   1  -2   8   13.61    1.28
   1  -2   8   12.31    1.42
  -2   2  -8   50.73    3.51
  -2   2  -8   37.40    3.47
   2  -2   8   42.61    3.09
  -3   2  -8    0.41    1.17
  -3   2  -8    0.75    1.27
   3  -2   8    0.67    0.74
  -4   2  -8    6.71    1.55
  -4   2  -8    8.24    1.83
   4  -2   8    5.63    1.21
  -5   2  -8    5.03    1.62
  -5   2  -8    6.41    1.64
   5  -2   8    5.17    1.22
  13   1  -8    0.69    0.85
  13   1  -8    3.05    1.21
 -13  -1   8    3.58    1.35
  12   1  -8    2.81    1.00
  12   1  -8    2.40    1.13
 -12  -1   8    2.98    1.18
  11   1  -8    9.20    1.49
  11   1  -8    9.24    1.60
 -11  -1   8   10.77    1.62
  10   1  -8   35.71    2.94
  10   1  -8   31.68    2.70
 -10  -1   8   33.24    2.85
   9   1  -8   17.22    1.84
   9   1  -8   20.26    2.12
  -9  -1   8   21.72    2.03
   8   1  -8   48.82    3.62
   8   1  -8   48.19    3.43
  -8  -1   8   45.91    2.95
  -8  -1   8   51.91    3.49
   7   1  -8   36.96    2.89
   7   1  -8   37.71    2.74
  -7  -1   8   34.58    2.72
  -7  -1   8   37.98    2.40
   6   1  -8   25.67    2.15
   6   1  -8   22.26    2.01
  -6  -1   8   23.28    1.98
  -6  -1   8   25.68    1.89
  -6  -1   8   22.25    2.22
  -6  -1   8   26.17    1.78
   5   1  -8   21.63    1.88
   5   1  -8   20.26    1.96
  -5  -1   8   22.27    1.79
  -5  -1   8   20.86    1.66
  -5  -1   8   22.37    1.83
   4   1  -8   12.30    1.44
   4   1  -8   17.43    1.77
  -4  -1   8   11.80    1.17
  -4  -1   8   12.56    1.29
  -4  -1   8   12.70    1.35
   3   1  -8    3.64    0.96
   3   1  -8    3.51    0.48
   3   1  -8    3.18    0.83
   3   1  -8    2.33    0.75
  -3  -1   8    2.87    0.55
  -3  -1   8    4.07    0.76
  -3  -1   8    3.45    0.81
   2   1  -8    2.83    0.82
   2   1  -8    1.86    0.71
   2   1  -8    1.89    0.44
   2   1  -8    1.72    0.83
  -2  -1   8    2.61    0.52
  -2  -1   8    2.10    0.64
   1   1  -8   26.20    2.24
   1   1  -8   27.58    2.15
   1   1  -8   19.50    1.87
  -1  -1   8   26.69    1.70
  -1  -1   8   26.06    1.84
  -1  -1   8   26.90    2.05
   0   1  -8   25.81    2.27
   0   1  -8   24.91    1.79
   0   1  -8   26.53    2.41
   0  -1   8   30.68    2.19
   0  -1   8   24.61    1.95
  -1   1  -8   29.65    2.74
  -1   1  -8   33.46    2.67
  -1   1  -8   30.08    2.11
   1  -1   8   33.73    2.51
   1  -1   8   33.87    2.35
  -2   1  -8   16.73    1.89
  -2   1  -8   13.78    1.98
   2  -1   8   15.60    1.72
   2  -1   8   12.36    1.45
  -3   1  -8    7.50    1.41
  -3   1  -8    4.68    1.41
   3  -1   8   10.12    1.45
   3  -1   8    8.84    1.25
  -4   1  -8    6.93    1.60
  -4   1  -8    9.05    1.64
   4  -1   8    9.56    1.53
   4  -1   8   10.11    1.36
  -5   1  -8    0.10    1.12
  -5   1  -8    1.29    1.30
   5  -1   8    0.66    0.90
  -6   1  -8   -0.50    1.20
  -6   1  -8    0.42    1.24
   6  -1   8   -0.15    0.80
  13   0  -8    0.39    0.88
  13   0  -8    0.51    0.80
 -13   0   8    3.33    1.52
  12   0  -8    5.81    1.26
  12   0  -8   10.17    1.64
 -12   0   8    7.78    1.78
  11   0  -8    7.38    1.39
  11   0  -8    4.12    1.01
 -11   0   8    4.54    1.44
  10   0  -8    2.64    0.96
  10   0  -8    1.84    0.86
 -10   0   8    1.49    1.17
   9   0  -8    0.28    0.70
   9   0  -8   -0.91    0.51
  -9   0   8    0.00    0.86
   8   0  -8   12.46    1.67
   8   0  -8   11.24    1.49
  -8   0   8    8.83    1.45
   7   0  -8    7.32    1.24
   7   0  -8    6.48    1.08
  -7   0   8    4.59    1.08
   6   0  -8    1.33    0.77
   6   0  -8    2.12    0.66
  -6   0   8    0.73    0.73
   5   0  -8   77.65    5.01
   5   0  -8   74.77    4.97
  -5   0   8   79.85    4.54
  -5   0   8   73.87    4.98
   4   0  -8    0.98    0.65
   4   0  -8    1.04    0.61
  -4   0   8    0.46    0.36
  -4   0   8    0.24    0.60
  -4   0   8    0.93    0.39
   3   0  -8    4.47    0.92
   3   0  -8    4.58    0.98
   3   0  -8    6.31    0.77
   3   0  -8    6.16    0.97
  -3   0   8    9.45    0.84
  -3   0   8    6.98    0.67
  -3   0   8    5.04    0.90
   2   0  -8   26.28    2.51
   2   0  -8   34.78    2.39
   2   0  -8   32.75    2.21
  -2   0   8   33.43    2.18
  -2   0   8   34.52    2.48
   1   0  -8    1.65    0.69
  -1   0   8    2.55    0.57
  -1   0   8    1.99    0.65
   0   0  -8    2.60    0.75
   0   0  -8    1.18    0.85
   0   0   8    3.40    0.82
   0   0   8    2.31    0.61
  -1   0  -8    0.84    0.90
  -1   0  -8   -0.35    0.66
   1   0   8    0.53    0.51
   1   0   8   -0.50    0.58
  -2   0  -8   11.61    1.48
  -2   0  -8   14.37    1.87
   2   0   8   14.47    1.68
   2   0   8   12.16    1.38
  -3   0  -8   12.46    1.53
  -3   0  -8    9.71    1.87
   3   0   8   12.38    1.56
   3   0   8   12.08    1.42
  -4   0  -8    0.54    0.93
  -4   0  -8   -2.09    0.91
   4   0   8    0.12    0.76
   4   0   8    0.02    0.59
  -5   0  -8    1.36    1.31
  -5   0  -8   -0.21    1.03
   5   0   8    1.87    0.78
   5   0   8    0.60    0.93
  -6   0  -8    0.94    1.27
  -6   0  -8    0.40    1.20
   6   0   8   -0.26    0.76
   6   0   8   -0.01    0.87
  13  -1  -8    0.94    0.89
  13  -1  -8    3.67    1.17
 -13   1   8    1.92    1.53
  12  -1  -8    2.89    1.11
  12  -1  -8    2.53    1.00
 -12   1   8    3.32    1.53
  11  -1  -8    9.76    1.52
  11  -1  -8   12.19    1.77
 -11   1   8    6.07    1.64
  10  -1  -8   32.99    2.73
  10  -1  -8   33.75    2.81
 -10   1   8   29.87    3.09
   9  -1  -8   15.90    1.79
   9  -1  -8   19.07    1.93
  -9   1   8   18.41    2.25
   8  -1  -8   51.30    3.55
   8  -1  -8   48.87    3.46
  -8   1   8   41.49    3.66
   7  -1  -8   37.23    2.89
   7  -1  -8   39.24    2.83
  -7   1   8   34.02    3.00
  -7   1   8   37.03    2.58
   6  -1  -8   23.63    2.08
   6  -1  -8   21.66    2.06
  -6   1   8   23.23    2.29
  -6   1   8   26.32    1.85
   5  -1  -8   22.85    1.96
   5  -1  -8   21.70    1.93
  -5   1   8   17.19    2.00
  -5   1   8   23.35    1.70
   4  -1  -8    8.89    1.30
   4  -1  -8   12.72    1.55
  -4   1   8   13.34    1.17
  -4   1   8    9.95    1.37
   3  -1  -8    2.96    0.59
   3  -1  -8    0.63    0.66
  -3   1   8    2.23    0.58
  -3   1   8    2.33    0.78
   2  -1  -8    1.36    0.50
  -2   1   8    2.47    0.63
  -2   1   8    2.03    0.73
   1  -1  -8   22.07    2.20
   1  -1  -8   23.37    1.76
  -1   1   8   26.68    2.14
  -1   1   8   25.21    1.89
   0  -1  -8   28.15    2.03
   0  -1  -8   27.72    2.48
   0  -1  -8   29.18    2.02
   0   1   8   29.31    2.15
   0   1   8   27.17    2.33
  -1  -1  -8   32.35    2.30
  -1  -1  -8   33.58    2.16
  -1  -1  -8   29.05    2.80
   1   1   8   32.95    2.66
   1   1   8   33.67    2.42
  -2  -1  -8   15.97    1.52
  -2  -1  -8   12.52    1.91
   2   1   8   15.41    1.53
   2   1   8   14.21    1.77
  -3  -1  -8    8.81    1.70
  -3  -1  -8   10.65    1.31
   3   1   8    7.53    1.36
   3   1   8    7.82    1.21
  -4  -1  -8    6.33    1.62
  -4  -1  -8   10.45    1.42
   4   1   8    9.77    1.36
   4   1   8   10.44    1.58
  -5  -1  -8    1.16    1.31
  -5  -1  -8    0.55    0.97
   5   1   8    0.75    0.95
   5   1   8    1.10    0.80
  -6  -1  -8    0.31    1.10
  -6  -1  -8    0.56    1.26
   6   1   8    0.17    0.80
   6   1   8   -0.17    0.89
  12  -2  -8    1.66    0.96
  12  -2  -8    3.56    1.17
 -12   2   8    3.20    1.65
  11  -2  -8    0.32    0.84
  11  -2  -8   -0.79    0.67
 -11   2   8   -0.59    1.20
  10  -2  -8    0.41    0.74
  10  -2  -8    0.41    0.82
 -10   2   8    0.49    1.17
   9  -2  -8   18.78    1.99
   9  -2  -8   21.10    1.99
  -9   2   8   12.89    2.13
   8  -2  -8    1.91    0.55
   8  -2  -8    1.62    0.89
   8  -2  -8    1.47    0.78
  -8   2   8    2.76    1.16
   7  -2  -8   15.10    1.74
   7  -2  -8   14.40    1.22
   7  -2  -8   14.13    1.82
  -7   2   8   11.93    1.89
   6  -2  -8    6.97    1.23
   6  -2  -8    6.51    0.76
   6  -2  -8    7.53    0.79
   6  -2  -8    4.76    1.07
  -6   2   8    6.97    1.16
  -6   2   8    4.14    1.23
   5  -2  -8    1.77    0.38
   5  -2  -8    1.49    0.83
  -5   2   8    1.37    0.90
  -5   2   8    1.87    0.80
   4  -2  -8   18.09    1.97
  -4   2   8   18.55    2.00
  -4   2   8   21.08    1.82
  -3   2   8    7.65    1.25
  -3   2   8    9.84    1.24
  -2   2   8    9.05    1.33
  -2   2   8    9.63    1.22
  -2   2   8    9.57    0.91
   1  -2  -8    5.04    1.19
   1  -2  -8    2.94    0.93
   1  -2  -8    4.26    0.49
  -1   2   8    4.09    0.90
  -1   2   8    5.82    0.70
  -1   2   8    4.74    0.99
   0  -2  -8   23.95    1.80
   0  -2  -8   28.42    2.16
   0  -2  -8   23.74    2.42
   0   2   8   27.44    2.39
   0   2   8   31.15    2.03
   0   2   8   32.38    2.28
  -1  -2  -8   13.68    1.84
  -1  -2  -8   11.80    1.19
  -1  -2  -8   14.08    1.35
   1   2   8   12.79    1.65
   1   2   8   13.79    1.51
  -2  -2  -8   38.86    3.45
  -2  -2  -8   42.49    2.91
  -2  -2  -8   45.02    2.92
   2   2   8   44.52    3.37
   2   2   8   47.26    3.24
  -3  -2  -8    1.22    1.14
  -3  -2  -8    0.56    0.71
   3   2   8    1.08    0.80
   3   2   8    1.36    0.92
  -4  -2  -8    5.65    1.40
  -4  -2  -8    6.18    1.55
   4   2   8    6.84    1.48
   4   2   8    7.75    1.30
  -5  -2  -8    6.55    1.70
  -5  -2  -8    4.39    1.44
   5   2   8    7.04    1.49
   5   2   8    2.47    1.04
  11  -3  -8    0.42    0.74
  11  -3  -8    0.12    0.87
 -11   3   8   -1.80    1.29
  10  -3  -8    2.11    0.80
  10  -3  -8    2.39    0.99
 -10   3   8    1.24    1.43
   9  -3  -8    2.71    0.97
   9  -3  -8    2.17    0.73
  -9   3   8    1.23    1.24
   8  -3  -8    5.88    0.92
   8  -3  -8    5.37    1.20
  -8   3   8    3.67    1.42
   7  -3  -8    1.62    0.62
   7  -3  -8    1.16    0.88
  -7   3   8    1.70    1.22
   6  -3  -8    3.10    1.01
   6  -3  -8    3.91    0.75
  -6   3   8    3.32    1.24
  -6   3   8    3.98    1.21
   5  -3  -8    9.37    1.44
  -5   3   8    8.85    1.54
  -5   3   8   11.95    1.56
  -4   3   8   18.24    1.92
  -4   3   8   12.93    1.80
   3  -3  -8    5.21    1.11
   3  -3  -8    4.77    1.25
  -3   3   8    6.42    1.16
  -3   3   8    3.32    1.05
   2  -3  -8    2.98    0.99
   2  -3  -8    4.78    1.17
  -2   3   8    4.90    1.06
  -2   3   8    4.92    1.10
   1  -3  -8   12.41    1.56
   1  -3  -8   13.62    1.59
  -1   3   8   14.45    1.66
  -1   3   8   11.60    1.60
   0  -3  -8    3.74    1.12
   0  -3  -8    8.66    1.29
   0   3   8    4.68    1.11
   0   3   8    7.68    1.30
  -1  -3  -8   16.69    1.68
  -1  -3  -8   12.17    1.72
   1   3   8   16.54    1.96
   1   3   8   16.58    1.83
  -2  -3  -8    0.56    1.32
  -2  -3  -8    0.69    0.96
  -2  -3  -8    1.65    0.88
   2   3   8    0.03    0.82
   2   3   8    0.32    0.83
  -3  -3  -8   11.28    1.74
  -3  -3  -8   12.44    2.15
   3   3   8   14.53    1.79
   3   3   8   11.89    1.78
  -4  -3  -8    1.15    1.63
  -4  -3  -8    1.44    1.12
   4   3   8    2.03    1.06
   4   3   8    2.33    1.05
   9  -4  -8    5.49    1.28
   9  -4  -8    6.55    1.18
  -9   4   8    5.06    1.78
   8  -4  -8    2.60    1.17
   8  -4  -8    2.58    0.92
   8  -4  -8    4.03    1.17
  -8   4   8    2.43    1.42
   7  -4  -8    7.19    1.35
   7  -4  -8    6.85    1.13
   7  -4  -8    9.00    1.42
  -7   4   8    4.99    1.57
   6  -4  -8    3.55    0.90
   6  -4  -8    5.64    1.40
   6  -4  -8    3.04    1.17
  -6   4   8    5.55    1.47
  -6   4   8    3.31    1.41
   5  -4  -8    5.93    1.52
   5  -4  -8    5.23    1.35
  -5   4   8    4.70    1.39
  -5   4   8    5.03    1.42
   4  -4  -8    1.11    1.10
   4  -4  -8    1.67    0.83
   4  -4  -8   -0.30    1.16
  -4   4   8    0.01    0.89
  -4   4   8   -0.25    1.01
   3  -4  -8   -0.28    1.10
   3  -4  -8    0.31    0.73
   3  -4  -8   -0.75    1.04
  -3   4   8    0.43    1.03
  -3   4   8   -1.18    0.73
   2  -4  -8    5.83    1.16
   2  -4  -8    3.29    1.35
   2  -4  -8    7.41    1.55
  -2   4   8    4.18    1.20
  -2   4   8    4.70    1.21
   1  -4  -8    6.45    1.53
   1  -4  -8    6.14    1.38
  -1   4   8    5.14    1.23
  -1   4   8    5.32    1.28
   0  -4  -8    5.57    1.53
   0  -4  -8    5.56    1.37
   0   4   8    4.91    1.21
   0   4   8    4.96    1.21
  -1  -4  -8    2.69    1.46
  -1  -4  -8    5.90    1.34
   1   4   8    5.08    1.31
   1   4   8    4.95    1.23
  -2  -4  -8   15.36    2.22
  -2  -4  -8   16.43    1.87
   2   4   8   16.66    2.08
   2   4   8   13.79    1.99
   8   4  -9    2.94    1.39
  -8  -4   9    3.90    1.10
   7   4  -9   15.16    2.12
  -7  -4   9   10.39    1.53
  -7  -4   9   12.88    1.74
   6   4  -9    2.91    1.24
  -6  -4   9    4.02    1.09
  -6  -4   9    2.57    0.92
   5   4  -9    5.40    1.28
   5   4  -9    5.10    1.68
  -5  -4   9    4.70    1.14
   4   4  -9    1.52    0.91
   4   4  -9    1.27    1.46
  -4  -4   9    2.87    1.09
   3   4  -9    1.49    0.85
   3   4  -9    1.19    1.50
  -3  -4   9    3.52    1.07
   2   4  -9    3.43    1.53
  -2  -4   9    6.70    1.33
  -2  -4   9    6.04    1.13
   1   4  -9    0.58    1.33
  -1  -4   9    1.30    0.82
  -1  -4   9   -0.86    1.04
   0   4  -9    0.77    1.92
   0   4  -9   -0.46    1.27
   0  -4   9    0.94    0.81
   0  -4   9    2.04    1.21
  -1   4  -9    5.06    1.83
  10   3  -9    1.82    0.83
  10   3  -9    1.52    1.17
 -10  -3   9    1.03    0.89
   9   3  -9    0.09    0.61
   9   3  -9    2.97    1.25
  -9  -3   9    2.21    0.93
   8   3  -9    0.69    0.64
   8   3  -9   -0.79    0.96
  -8  -3   9    0.84    0.76
  -8  -3   9   -0.51    0.63
   7   3  -9    0.09    0.55
   7   3  -9    0.12    0.92
  -7  -3   9   -0.14    0.71
  -7  -3   9   -0.12    0.61
   6   3  -9    2.10    0.96
   6   3  -9    0.38    0.61
  -6  -3   9   -0.34    0.73
  -6  -3   9    0.85    0.70
   5   3  -9   53.72    3.77
   5   3  -9   47.26    3.48
  -5  -3   9   49.72    3.48
  -5  -3   9   49.74    3.48
   4   3  -9    9.41    1.35
   4   3  -9    9.88    1.72
   4   3  -9   10.18    1.41
  -4  -3   9    9.37    1.34
  -4  -3   9    9.17    1.23
   3   3  -9    8.76    1.37
   3   3  -9   15.68    1.69
   3   3  -9   13.82    1.99
  -3  -3   9   13.28    1.56
   2   3  -9    1.39    1.13
   2   3  -9    0.50    0.65
  -2  -3   9    0.79    0.59
  -2  -3   9    0.43    0.85
   1   3  -9    1.32    1.05
   1   3  -9    1.29    0.70
   1   3  -9    2.05    1.18
  -1  -3   9    1.70    1.02
  -1  -3   9    0.70    0.62
   0   3  -9    8.13    1.69
   0   3  -9    8.34    1.64
   0  -3   9    8.95    1.24
   0  -3   9   13.09    1.70
  -1   3  -9    1.31    1.19
  -1   3  -9    0.89    1.21
   1  -3   9    1.72    0.74
   1  -3   9    1.81    1.16
  -2   3  -9   17.02    2.31
  -2   3  -9   22.38    2.72
   2  -3   9   20.34    2.82
   2  -3   9   21.99    2.00
   2  -3   9   23.37    2.32
  -3   3  -9    1.30    1.48
  -3   3  -9   -0.33    1.32
   3  -3   9    0.97    1.75
   3  -3   9    1.94    0.87
   3  -3   9    1.04    1.24
  12   2  -9    0.90    0.80
  12   2  -9    1.52    1.28
 -12  -2   9    3.72    1.15
  11   2  -9    2.38    0.94
  11   2  -9    1.79    1.14
 -11  -2   9    2.08    1.01
 -11  -2   9    2.15    1.06
  10   2  -9    0.16    0.99
  10   2  -9    0.16    0.67
 -10  -2   9    0.24    0.63
 -10  -2   9    0.06    0.79
   9   2  -9   31.79    2.84
   9   2  -9   27.26    2.44
  -9  -2   9   30.70    2.49
  -9  -2   9   31.02    2.28
   8   2  -9   21.42    1.96
   8   2  -9   22.30    2.33
  -8  -2   9   20.59    1.92
  -8  -2   9   21.34    1.75
  -8  -2   9   23.19    1.75
   7   2  -9    1.73    0.72
   7   2  -9    1.64    0.94
  -7  -2   9    1.91    0.73
  -7  -2   9    1.34    0.67
  -7  -2   9    1.63    0.57
   6   2  -9    7.20    1.11
   6   2  -9    8.27    1.38
  -6  -2   9    7.48    1.07
  -6  -2   9    8.26    1.08
  -6  -2   9    8.49    0.99
   5   2  -9    3.28    0.85
   5   2  -9    5.06    1.14
  -5  -2   9    3.43    0.86
  -5  -2   9    4.75    0.85
  -5  -2   9    4.77    0.76
   4   2  -9   30.25    2.85
   4   2  -9   33.21    2.58
   4   2  -9   35.82    2.73
  -4  -2   9   32.37    2.32
  -4  -2   9   30.66    2.35
  -4  -2   9   35.19    2.50
   3   2  -9    8.11    1.46
   3   2  -9    7.31    1.21
   3   2  -9    4.60    0.68
   3   2  -9    5.06    0.99
  -3  -2   9    8.57    1.03
   2   2  -9    5.61    1.06
   2   2  -9    2.62    1.11
  -2  -2   9    4.46    0.85
  -2  -2   9    5.26    0.70
   1   2  -9   16.73    1.64
   1   2  -9   13.96    1.79
  -1  -2   9   13.61    1.25
  -1  -2   9   15.18    1.51
   0   2  -9   20.29    2.20
   0   2  -9   14.70    2.08
   0  -2   9   19.54    1.54
   0  -2   9   17.17    1.72
  -1   2  -9   46.41    3.41
  -1   2  -9   40.13    3.45
   1  -2   9   39.38    3.02
   1  -2   9   41.29    2.88
  -2   2  -9    7.49    1.54
  -2   2  -9    7.87    1.75
   2  -2   9    5.71    1.11
  -3   2  -9    0.39    1.23
  -3   2  -9    0.11    1.24
   3  -2   9    1.39    0.87
  -4   2  -9    0.84    1.43
  -4   2  -9   -0.10    1.30
   4  -2   9    1.59    0.96
  12   1  -9   -0.09    0.92
  12   1  -9    0.25    0.72
 -12  -1   9    1.63    1.16
  11   1  -9    5.52    1.35
  11   1  -9    6.06    1.26
 -11  -1   9    5.50    1.24
  10   1  -9    1.84    1.02
  10   1  -9    1.79    0.80
 -10  -1   9    1.55    0.94
   9   1  -9   21.84    2.26
   9   1  -9   19.75    2.00
  -9  -1   9   24.40    2.19
   8   1  -9   59.41    4.17
   8   1  -9   57.02    4.00
  -8  -1   9   60.07    4.02
  -8  -1   9   60.26    3.56
  -8  -1   9   51.30    3.78
   7   1  -9   15.32    1.63
   7   1  -9   19.24    2.06
  -7  -1   9   14.38    1.48
  -7  -1   9   15.36    1.66
  -7  -1   9   14.98    1.33
   6   1  -9   55.89    3.91
   6   1  -9   56.23    3.80
  -6  -1   9   51.76    3.52
  -6  -1   9   53.92    3.68
   5   1  -9    4.64    0.95
   5   1  -9    4.43    1.01
  -5  -1   9    4.97    0.89
  -5  -1   9    4.54    0.72
   4   1  -9   37.01    2.76
   4   1  -9   34.42    2.71
   4   1  -9   36.57    2.79
  -4  -1   9   36.03    2.60
  -4  -1   9   33.88    2.38
   3   1  -9    6.04    0.74
   3   1  -9    6.01    1.21
   3   1  -9    6.34    1.12
   3   1  -9    8.32    1.24
  -3  -1   9    8.35    0.84
  -3  -1   9    6.81    1.05
   2   1  -9    0.54    0.73
   2   1  -9    0.65    0.39
   2   1  -9    0.06    0.59
  -2  -1   9    0.21    0.42
  -2  -1   9    0.62    0.57
   1   1  -9    5.05    1.14
  -1  -1   9    9.38    1.30
  -1  -1   9    7.36    0.75
  -1  -1   9    7.04    0.93
   0   1  -9   31.82    2.82
   0   1  -9   32.14    2.63
   0  -1   9   31.13    2.51
   0  -1   9   31.07    2.29
  -1   1  -9   10.50    1.82
  -1   1  -9   12.09    1.63
   1  -1   9   10.74    1.43
   1  -1   9   10.86    1.29
  -2   1  -9   18.46    2.41
  -2   1  -9   27.70    2.46
   2  -1   9   24.08    2.04
   2  -1   9   26.98    2.30
  -3   1  -9   36.45    3.03
  -3   1  -9   30.50    3.25
   3  -1   9   37.23    2.92
   3  -1   9   32.37    2.63
  -4   1  -9    1.43    1.17
  -4   1  -9    1.78    1.37
   4  -1   9    1.50    0.98
  -5   1  -9    0.95    1.37
  -5   1  -9    1.44    1.31
   5  -1   9    0.99    0.94
  13   0  -9    0.70    0.94
  13   0  -9   -0.48    0.74
 -13   0   9    0.63    1.38
  12   0  -9    6.81    1.37
  12   0  -9    8.48    1.59
 -12   0   9    4.95    1.55
  11   0  -9   -1.11    0.78
  11   0  -9    0.61    0.71
 -11   0   9    0.01    1.09
  10   0  -9    1.59    0.94
  10   0  -9    0.94    0.75
 -10   0   9    1.10    1.11
   9   0  -9    9.80    1.53
   9   0  -9    6.16    1.12
  -9   0   9    7.23    1.47
   8   0  -9   31.85    2.65
   8   0  -9   34.93    2.80
  -8   0   9   33.43    2.84
   7   0  -9  132.10    8.36
   7   0  -9  145.85    8.52
  -7   0   9  127.68    8.42
   6   0  -9    4.98    1.07
   6   0  -9    5.34    1.08
  -6   0   9    2.49    0.89
   5   0  -9   13.09    1.63
   5   0  -9    9.92    1.36
  -5   0   9    9.64    1.41
  -5   0   9   13.61    1.00
   4   0  -9    0.37    0.67
   4   0  -9   -0.06    0.55
   4   0  -9    0.25    0.60
  -4   0   9   -0.11    0.34
  -4   0   9    0.17    0.57
  -4   0   9   -0.12    0.33
   3   0  -9    3.93    0.94
   3   0  -9    5.49    0.95
   3   0  -9    5.66    0.77
   3   0  -9    2.75    0.88
  -3   0   9    7.58    0.83
  -3   0   9    5.29    0.59
  -3   0   9    5.40    0.97
   2   0  -9    7.45    1.11
  -2   0   9    8.25    1.27
  -2   0   9   10.67    1.07
   1   0  -9   92.27    6.41
   1   0  -9  100.28    6.16
  -1   0   9   99.76    6.29
  -1   0   9  100.99    6.00
   0   0  -9    4.80    1.02
   0   0  -9    4.98    1.32
   0   0   9    6.03    1.12
   0   0   9    6.54    0.91
  -1   0  -9    4.52    1.03
  -1   0  -9    5.78    1.40
   1   0   9    4.15    1.08
   1   0   9    5.42    0.92
  -2   0  -9   46.34    3.16
  -2   0  -9   31.62    3.34
   2   0   9   40.16    2.91
   2   0   9   43.88    3.24
  -3   0  -9   13.37    1.68
  -3   0  -9   10.70    1.91
   3   0   9   17.84    2.06
   3   0   9   14.88    1.62
  -4   0  -9    0.20    0.98
  -4   0  -9    0.53    1.15
   4   0   9   -0.01    0.66
   4   0   9   -0.45    0.80
  -5   0  -9    6.33    1.85
  -5   0  -9    9.01    1.62
   5   0   9    7.39    1.48
   5   0   9    7.07    1.27
  12  -1  -9    0.97    0.92
  12  -1  -9    0.73    0.82
 -12   1   9    0.61    1.27
  11  -1  -9    5.21    1.16
  11  -1  -9    6.86    1.46
 -11   1   9    5.03    1.54
  10  -1  -9    1.14    0.79
  10  -1  -9    3.24    1.10
 -10   1   9    0.09    1.07
   9  -1  -9   19.72    2.01
   9  -1  -9   20.87    2.12
  -9   1   9   18.01    2.33
   8  -1  -9   54.65    3.77
   8  -1  -9   56.33    3.87
  -8   1   9   43.11    3.92
  -8   1   9   53.56    3.44
   7  -1  -9   13.85    1.79
   7  -1  -9   13.79    1.78
  -7   1   9   16.45    1.42
  -7   1   9   14.09    1.85
   6  -1  -9   51.55    3.75
   6  -1  -9   51.14    3.79
  -6   1   9   47.08    3.85
  -6   1   9   60.12    3.45
   5  -1  -9    3.98    0.98
   5  -1  -9    3.89    0.94
  -5   1   9    4.72    0.77
  -5   1   9    2.98    0.97
   4  -1  -9   30.26    2.69
   4  -1  -9   31.30    2.72
   4  -1  -9   35.18    2.36
  -4   1   9   37.65    2.36
  -4   1   9   32.92    2.72
   3  -1  -9    7.76    0.89
   3  -1  -9    4.71    1.13
  -3   1   9    9.09    1.04
  -3   1   9    5.61    1.14
   2  -1  -9    0.25    0.45
  -2   1   9    0.14    0.62
  -2   1   9    0.24    0.55
   1  -1  -9    1.64    0.96
   1  -1  -9    5.75    0.80
  -1   1   9    8.00    1.02
  -1   1   9    5.75    1.12
   0  -1  -9   28.31    2.76
   0  -1  -9   29.30    2.24
   0  -1  -9   32.79    2.16
   0   1   9   30.86    2.61
   0   1   9   34.06    2.40
  -1  -1  -9    9.92    1.22
  -1  -1  -9   12.02    1.13
  -1  -1  -9   10.18    1.78
   1   1   9   12.36    1.64
   1   1   9   14.52    1.48
  -2  -1  -9   25.07    2.10
  -2  -1  -9   19.77    2.54
   2   1   9   26.11    2.12
   2   1   9   26.64    2.46
  -3  -1  -9   37.60    2.86
   3   1   9   38.83    3.19
   3   1   9   35.48    2.83
  -4  -1  -9    0.04    1.20
  -4  -1  -9    2.56    1.06
   4   1   9    2.69    1.11
   4   1   9    1.27    0.82
  -5  -1  -9    1.60    1.47
  -5  -1  -9   -0.35    0.98
   5   1   9    0.92    1.03
   5   1   9    1.17    0.87
  12  -2  -9    3.39    1.21
  12  -2  -9    1.84    0.99
 -12   2   9    1.03    1.40
  11  -2  -9    2.20    0.96
  11  -2  -9    1.78    0.91
 -11   2   9    3.03    1.50
  10  -2  -9    0.53    0.77
  10  -2  -9    1.71    0.98
  10  -2  -9    0.27    0.55
 -10   2   9    1.52    1.38
   9  -2  -9   30.75    2.64
   9  -2  -9   25.21    1.96
   9  -2  -9   29.85    2.47
  -9   2   9   23.39    2.89
   8  -2  -9   25.08    2.37
   8  -2  -9   22.43    2.14
   8  -2  -9   21.58    1.66
  -8   2   9   16.75    2.40
  -8   2   9   25.16    2.19
   7  -2  -9    1.76    0.88
   7  -2  -9    1.03    0.81
   7  -2  -9    0.93    0.44
  -7   2   9    2.43    0.88
  -7   2   9    0.91    1.00
   6  -2  -9    6.70    1.25
  -6   2   9    8.81    1.22
  -6   2   9    6.06    1.33
   5  -2  -9    4.73    1.19
   5  -2  -9    4.10    0.56
  -5   2   9    3.70    1.15
  -5   2   9    3.70    0.95
   4  -2  -9   32.45    2.78
  -4   2   9   37.14    2.55
  -4   2   9   28.03    2.73
  -3   2   9    3.96    1.06
  -3   2   9    8.00    1.09
   2  -2  -9    3.02    1.02
   2  -2  -9    5.02    1.06
  -2   2   9    3.97    1.06
  -2   2   9    3.88    0.90
   1  -2  -9   14.65    1.52
   1  -2  -9   13.16    1.81
  -1   2   9   13.61    1.71
  -1   2   9   15.38    1.58
   0  -2  -9   19.39    2.33
   0  -2  -9   19.90    1.75
   0   2   9   18.78    2.11
   0   2   9   17.54    1.81
  -1  -2  -9   40.37    2.63
  -1  -2  -9   27.76    3.03
   1   2   9   39.59    3.09
   1   2   9   39.64    2.88
  -2  -2  -9    7.15    1.61
   2   2   9    9.79    1.40
   2   2   9    4.30    1.18
  -3  -2  -9    0.70    1.17
   3   2   9   -0.31    0.76
   3   2   9    1.04    0.93
  -4  -2  -9    0.41    1.22
   4   2   9    0.40    0.90
   4   2   9    1.73    1.13
  10  -3  -9    1.48    0.98
 -10   3   9    0.60    1.39
   9  -3  -9    0.44    0.81
   9  -3  -9    1.20    0.69
  -9   3   9   -0.85    1.17
   8  -3  -9    0.28    0.56
   8  -3  -9    0.82    0.89
  -8   3   9   -1.36    0.94
  -8   3   9   -0.81    1.09
   7  -3  -9   -0.53    0.49
   7  -3  -9   -0.28    0.79
  -7   3   9    0.89    0.98
  -7   3   9   -0.27    1.02
   6  -3  -9    0.60    0.86
  -6   3   9    0.46    0.94
  -6   3   9    1.58    1.12
   5  -3  -9   46.31    3.61
  -5   3   9   47.92    3.55
   4  -3  -9   12.31    1.54
  -4   3   9    9.96    1.50
  -4   3   9    5.97    1.34
   3  -3  -9   14.08    1.70
   3  -3  -9    9.60    1.48
  -3   3   9    9.42    1.50
  -3   3   9   10.03    1.45
   2  -3  -9   -1.42    0.94
   2  -3  -9   -0.43    0.83
  -2   3   9    0.64    0.87
  -2   3   9    0.88    0.81
   1  -3  -9    1.38    0.95
   1  -3  -9    2.95    1.09
  -1   3   9    0.28    0.81
  -1   3   9    0.82    0.89
   0  -3  -9   10.05    1.41
   0  -3  -9    8.20    1.51
   0   3   9   10.29    1.59
   0   3   9    7.97    1.39
  -1  -3  -9    2.21    1.02
  -1  -3  -9    4.44    1.28
   1   3   9    2.35    1.05
   1   3   9    2.00    0.98
  -2  -3  -9   17.41    2.23
   2   3   9   16.81    2.01
   2   3   9   20.25    2.21
  -3  -3  -9    0.06    1.12
  -3  -3  -9   -2.31    1.36
   3   3   9    0.16    0.91
   3   3   9    0.66    0.93
   8  -4  -9    3.23    1.15
   8  -4  -9    3.94    1.17
  -8   4   9    2.48    1.49
  -8   4   9    5.38    1.61
   7  -4  -9   13.70    1.62
   7  -4  -9   11.99    1.53
   7  -4  -9   12.22    1.71
  -7   4   9    8.61    1.82
  -7   4   9   10.14    1.84
   6  -4  -9    2.39    1.39
   6  -4  -9    2.15    1.09
  -6   4   9    1.34    1.17
  -6   4   9    1.47    1.31
   5  -4  -9    4.26    1.40
   5  -4  -9    5.38    1.61
  -5   4   9    4.00    1.36
  -5   4   9    2.95    1.25
   4  -4  -9    2.07    1.40
   4  -4  -9    2.16    0.94
   4  -4  -9    2.28    1.34
  -4   4   9    1.10    1.10
  -4   4   9    1.36    1.10
   3  -4  -9    2.01    1.33
   3  -4  -9    0.75    0.93
   3  -4  -9    3.27    1.28
  -3   4   9    1.50    1.07
  -3   4   9    1.79    1.09
   2  -4  -9    4.77    1.45
   2  -4  -9    4.42    1.43
  -2   4   9    3.09    1.17
  -2   4   9    5.50    1.32
   1  -4  -9    1.04    1.34
   1  -4  -9    1.14    1.23
  -1   4   9    0.15    0.96
  -1   4   9    1.10    1.00
   0  -4  -9    2.74    1.34
   0  -4  -9   -0.45    1.17
   0   4   9    0.43    0.88
   0   4   9    0.22    0.92
   1   4   9    6.16    1.44
   6   4 -10    4.64    1.31
   6   4 -10    3.22    1.53
  -6  -4  10    3.42    1.03
  -6  -4  10    3.55    1.14
   5   4 -10    1.42    1.01
   5   4 -10    2.77    1.45
  -5  -4  10    0.18    0.95
   4   4 -10    5.05    1.24
   4   4 -10    6.28    1.73
  -4  -4  10    5.02    1.24
   3   4 -10    1.01    1.38
  -3  -4  10    0.73    0.96
   2   4 -10   12.96    2.06
  -2  -4  10    9.32    1.56
  10   3 -10    1.49    0.82
  10   3 -10    0.56    1.18
 -10  -3  10    1.73    0.96
   9   3 -10    7.92    1.33
   9   3 -10   12.61    2.01
  -9  -3  10    8.31    1.40
   8   3 -10    0.15    0.63
   8   3 -10    1.89    1.13
  -8  -3  10   -1.53    0.71
  -8  -3  10    0.46    0.76
   7   3 -10    3.19    0.95
   7   3 -10    2.38    1.13
  -7  -3  10    4.19    0.97
  -7  -3  10    3.22    0.93
   6   3 -10    8.25    1.26
   6   3 -10    7.43    1.41
  -6  -3  10    5.97    1.11
  -6  -3  10    6.94    1.17
   5   3 -10    8.24    1.75
   5   3 -10    8.98    1.51
   5   3 -10    7.67    1.25
  -5  -3  10    9.53    1.37
  -5  -3  10   10.82    1.37
   4   3 -10   10.55    1.87
   4   3 -10    6.38    1.21
   4   3 -10   10.80    1.56
  -4  -3  10    8.13    1.35
   3   3 -10   16.60    1.82
   3   3 -10   13.92    2.07
  -3  -3  10   13.09    1.67
   2   3 -10    0.01    0.70
   2   3 -10    0.01    1.12
  -2  -3  10   -0.68    0.91
   1   3 -10    4.83    1.39
   1   3 -10    6.42    1.55
  -1  -3  10    7.63    1.44
   0   3 -10    1.18    1.32
   0   3 -10    0.73    1.20
   0  -3  10    1.34    1.15
  -1   3 -10    5.92    1.58
  -1   3 -10    4.49    1.44
   1  -3  10    7.41    1.45
  11   2 -10    3.36    0.97
  11   2 -10    3.08    1.34
 -11  -2  10    4.11    1.16
  10   2 -10    3.02    0.88
  10   2 -10    6.63    1.47
 -10  -2  10    5.69    1.17
 -10  -2  10    3.80    0.96
   9   2 -10    0.67    0.98
   9   2 -10    0.79    0.72
  -9  -2  10    0.74    0.73
  -9  -2  10    0.28    0.57
   8   2 -10   10.36    1.47
   8   2 -10    9.43    1.60
  -8  -2  10    9.86    1.33
  -8  -2  10    9.92    1.18
  -8  -2  10    8.36    1.09
   7   2 -10    8.98    1.51
   7   2 -10    6.21    1.22
  -7  -2  10    5.45    0.89
  -7  -2  10    6.52    1.02
  -7  -2  10    5.69    1.03
   6   2 -10    0.89    0.87
   6   2 -10    0.15    0.59
  -6  -2  10    0.53    0.60
  -6  -2  10    0.30    0.49
  -6  -2  10   -0.49    0.68
   5   2 -10    3.87    1.15
   5   2 -10    3.83    0.97
   5   2 -10    2.51    1.23
  -5  -2  10    3.10    0.74
  -5  -2  10    2.99    0.91
  -5  -2  10    2.42    0.71
   4   2 -10    0.02    0.97
   4   2 -10    0.15    0.73
   4   2 -10   -0.68    0.61
  -4  -2  10   -0.13    0.49
  -4  -2  10    0.09    0.46
  -4  -2  10    0.97    0.83
   3   2 -10    2.14    1.13
   3   2 -10    0.82    0.77
   3   2 -10    1.09    0.74
  -3  -2  10    0.71    0.62
   2   2 -10    8.92    1.30
   2   2 -10    7.87    1.48
  -2  -2  10    8.45    1.19
   1   2 -10    2.64    1.20
   1   2 -10    3.23    1.23
  -1  -2  10    3.80    0.94
   0   2 -10    9.21    1.63
   0   2 -10   10.92    1.71
   0  -2  10   10.38    1.41
  -1   2 -10    1.87    1.27
  -1   2 -10    3.25    1.27
   1  -2  10    3.12    0.96
  -2   2 -10    3.39    1.41
  -2   2 -10    0.80    1.37
   2  -2  10    2.20    0.91
  -3   2 -10    3.93    1.48
  -3   2 -10    0.37    1.46
   3  -2  10    3.32    1.03
  12   1 -10    6.73    1.44
  12   1 -10    4.75    1.12
 -12  -1  10    6.79    1.52
  11   1 -10    3.15    1.15
  11   1 -10    1.68    0.84
 -11  -1  10    1.81    1.04
  10   1 -10    2.08    1.02
  10   1 -10    0.96    0.76
 -10  -1  10    1.30    0.92
   9   1 -10    1.85    0.96
   9   1 -10    1.25    0.71
  -9  -1  10    0.04    0.60
  -9  -1  10    0.48    0.76
   8   1 -10   17.02    1.76
   8   1 -10   20.18    2.35
  -8  -1  10   11.23    1.51
  -8  -1  10   17.35    1.83
  -8  -1  10   20.17    1.47
   7   1 -10   33.77    2.81
   7   1 -10   39.15    3.03
  -7  -1  10   35.66    2.79
  -7  -1  10   37.32    2.50
  -7  -1  10   35.01    2.60
   6   1 -10   13.73    1.75
   6   1 -10    9.95    1.42
  -6  -1  10   10.18    1.31
  -6  -1  10   10.58    1.14
   5   1 -10    1.17    0.76
   5   1 -10    1.78    0.84
  -5  -1  10    1.45    0.66
  -5  -1  10    0.59    0.52
   4   1 -10    0.67    0.69
   4   1 -10    0.40    0.89
   4   1 -10    1.80    0.82
  -4  -1  10    0.89    0.66
  -4  -1  10    1.09    0.48
   3   1 -10    2.35    0.83
   3   1 -10    2.65    0.87
   3   1 -10    5.72    1.03
   3   1 -10    3.76    1.06
  -3  -1  10    4.99    0.99
   2   1 -10   19.48    1.97
   2   1 -10   18.31    1.96
  -2  -1  10   18.78    1.80
  -2  -1  10   17.46    1.49
   1   1 -10    3.31    1.21
   1   1 -10    4.12    1.17
  -1  -1  10    4.66    0.79
  -1  -1  10    4.35    1.01
   0   1 -10    7.59    1.40
   0   1 -10    6.20    1.53
   0  -1  10    7.86    1.09
   0  -1  10    9.59    1.39
  -1   1 -10    9.40    1.53
  -1   1 -10    6.22    1.58
   1  -1  10    6.92    1.09
   1  -1  10    7.59    1.32
  -2   1 -10   19.73    2.24
  -2   1 -10   18.64    2.43
   2  -1  10   18.65    1.86
   2  -1  10   22.33    2.17
  -3   1 -10    0.49    1.34
  -3   1 -10    0.63    1.18
   3  -1  10    1.78    0.99
  -4   1 -10    0.37    1.20
  -4   1 -10    1.61    1.51
   4  -1  10    0.51    0.92
  12   0 -10    5.45    1.38
  12   0 -10    4.66    1.09
 -12   0  10    6.45    1.56
  11   0 -10    5.31    1.23
  11   0 -10    4.45    1.34
 -11   0  10    6.33    1.55
  10   0 -10    5.34    1.22
  10   0 -10    5.52    1.37
 -10   0  10    6.40    1.53
   9   0 -10   23.39    2.23
   9   0 -10   24.92    2.40
  -9   0  10   22.86    2.50
   8   0 -10   18.54    2.10
   8   0 -10   14.12    1.67
  -8   0  10   12.06    1.79
   7   0 -10   84.72    5.69
   7   0 -10   88.52    5.79
  -7   0  10   85.33    5.73
   6   0 -10    3.41    1.01
   6   0 -10    3.30    1.01
  -6   0  10    2.02    0.87
   5   0 -10   13.07    1.68
   5   0 -10   12.74    1.66
  -5   0  10    9.90    1.05
  -5   0  10   11.59    1.01
  -5   0  10   11.81    1.52
   4   0 -10    1.00    0.78
   4   0 -10    0.81    0.73
   4   0 -10    1.11    0.79
  -4   0  10    2.28    0.53
  -4   0  10    1.30    0.42
  -4   0  10    1.23    0.74
   3   0 -10    1.88    0.89
   3   0 -10    2.28    0.81
   3   0 -10    1.50    0.77
  -3   0  10    2.31    0.78
  -3   0  10    1.98    0.57
   2   0 -10   20.04    1.91
  -2   0  10   20.56    1.99
  -2   0  10   21.57    1.69
   1   0 -10   11.70    1.41
   1   0 -10    9.90    1.79
  -1   0  10   10.55    1.21
  -1   0  10    9.71    1.41
   0   0 -10    1.22    0.82
   0   0 -10    0.04    0.95
   0   0  10    0.99    0.80
   0   0  10    1.41    0.68
  -1   0 -10   -0.44    1.12
  -1   0 -10    1.53    0.91
   1   0  10   -0.65    0.72
   1   0  10    1.20    0.64
  -2   0 -10    1.19    0.95
  -2   0 -10   -1.05    1.10
   2   0  10    0.57    0.68
   2   0  10    1.01    0.85
  -3   0 -10   -0.33    1.30
  -3   0 -10    0.43    1.02
   3   0  10   -0.06    0.68
   3   0  10    0.37    0.85
  -4   0 -10    2.76    1.23
  -4   0 -10    4.10    1.56
   4   0  10    3.70    1.28
   4   0  10    3.22    0.94
  12  -1 -10    5.45    1.32
  12  -1 -10    5.20    1.23
 -12   1  10    6.01    1.75
  11  -1 -10    1.43    0.89
  11  -1 -10    2.40    1.07
 -11   1  10    0.42    1.23
  10  -1 -10    2.27    1.03
  10  -1 -10    0.69    0.82
 -10   1  10    0.32    1.14
   9  -1 -10    1.55    0.78
   9  -1 -10    1.46    0.84
  -9   1  10    2.15    1.18
   8  -1 -10   14.82    1.71
   8  -1 -10   13.54    1.84
  -8   1  10   16.07    1.40
  -8   1  10    9.97    1.73
   7  -1 -10   31.30    2.79
   7  -1 -10   32.18    2.83
  -7   1  10   39.19    2.45
   6  -1 -10    9.69    1.44
   6  -1 -10    6.94    1.34
  -6   1  10    9.23    1.50
  -6   1  10   11.55    1.12
   5  -1 -10    0.83    0.61
   5  -1 -10    0.39    0.78
   5  -1 -10    1.18    0.81
  -5   1  10    0.84    0.56
  -5   1  10    1.28    0.81
   4  -1 -10    0.87    0.75
   4  -1 -10    1.27    0.56
  -4   1  10    0.16    0.78
  -4   1  10    0.61    0.59
   3  -1 -10    3.30    0.70
  -3   1  10    4.33    0.81
  -3   1  10    4.83    1.11
   2  -1 -10   17.16    1.51
  -2   1  10   18.17    1.65
  -2   1  10   19.45    2.01
   1  -1 -10    2.27    1.18
   1  -1 -10    2.63    0.69
   1  -1 -10    4.40    0.88
  -1   1  10    3.93    0.86
  -1   1  10    3.20    0.98
   0  -1 -10    4.81    1.37
   0  -1 -10    8.77    1.49
   0  -1 -10    7.85    1.05
   0   1  10    8.83    1.18
   0   1  10    7.07    1.32
  -1  -1 -10    7.64    1.71
  -1  -1 -10    8.08    1.16
   1   1  10    8.80    1.51
   1   1  10    8.24    1.21
  -2  -1 -10   24.40    2.90
  -2  -1 -10   22.95    2.11
   2   1  10   25.21    2.54
   2   1  10   23.69    2.15
  -3  -1 -10    1.52    1.05
  -3  -1 -10    1.04    1.38
   3   1  10    2.25    0.87
   3   1  10    2.54    1.11
  -4  -1 -10   -0.17    1.24
   4   1  10    0.94    1.01
   4   1  10   -0.62    0.77
  11  -2 -10    3.79    1.30
  11  -2 -10    2.70    1.06
 -11   2  10    1.51    1.43
  10  -2 -10    5.27    1.27
  10  -2 -10    3.72    1.29
 -10   2  10    6.95    1.79
   9  -2 -10   -0.27    0.86
   9  -2 -10    1.47    0.83
  -9   2  10   -0.46    1.03
  -9   2  10    0.71    0.91
   8  -2 -10   10.79    1.57
   8  -2 -10    8.93    1.60
  -8   2  10   10.22    1.43
  -8   2  10    7.78    1.69
   7  -2 -10    5.13    1.25
   7  -2 -10    7.14    1.35
  -7   2  10    5.38    1.10
  -7   2  10    5.56    1.40
   6  -2 -10   -0.68    0.70
  -6   2  10    0.19    0.92
  -6   2  10    0.94    0.80
   5  -2 -10    3.56    1.07
  -5   2  10    3.91    0.94
  -5   2  10    1.62    1.02
  -4   2  10    0.32    0.68
  -4   2  10   -0.19    0.79
  -3   2  10   -0.17    0.67
  -3   2  10    0.22    0.83
   2  -2 -10    9.14    1.32
   2  -2 -10    6.70    1.53
  -2   2  10    6.37    1.36
  -2   2  10    9.60    1.31
   1  -2 -10    0.81    1.06
   1  -2 -10    3.74    1.01
  -1   2  10    4.70    1.02
  -1   2  10    4.12    1.11
   0  -2 -10   14.25    2.08
   0  -2 -10   12.17    1.37
   0   2  10   13.48    1.87
   0   2  10   11.87    1.56
  -1  -2 -10    1.60    1.26
   1   2  10    5.84    1.35
   1   2  10    2.99    1.03
  -2  -2 -10    0.63    1.28
   2   2  10    2.23    1.13
   2   2  10    2.51    0.97
  -3  -2 -10    1.13    1.33
   3   2  10    2.85    1.21
   3   2  10    4.57    1.14
  10  -3 -10    3.38    1.11
 -10   3  10   -0.08    1.36
   9  -3 -10    9.95    1.68
  -9   3  10    7.26    1.60
  -9   3  10    8.89    1.92
   8  -3 -10    1.57    0.96
  -8   3  10    0.71    1.06
  -8   3  10   -1.65    1.01
   7  -3 -10    3.46    1.14
  -7   3  10    4.17    1.25
  -7   3  10    1.95    1.21
   6  -3 -10    6.29    1.39
  -6   3  10    7.68    1.41
  -6   3  10    4.17    1.36
  -5   3  10    6.79    1.47
  -5   3  10    7.53    1.38
   4  -3 -10    8.18    1.52
  -4   3  10   10.44    1.51
  -4   3  10    5.97    1.48
   3  -3 -10   17.77    2.10
   3  -3 -10   13.29    1.78
  -3   3  10   11.29    1.63
  -3   3  10   12.34    1.90
   2  -3 -10    0.18    1.01
   2  -3 -10   -1.02    0.89
  -2   3  10    0.37    0.81
  -2   3  10   -0.41    0.76
   1  -3 -10    7.87    1.55
   1  -3 -10    7.21    1.39
  -1   3  10    6.37    1.41
  -1   3  10    6.42    1.31
   0  -3 -10    4.11    1.24
   0  -3 -10    1.58    1.07
   0   3  10    0.83    0.94
   0   3  10    2.51    1.13
  -1  -3 -10    6.88    1.62
   1   3  10    6.89    1.39
   1   3  10    7.54    1.54
   6  -4 -10    4.26    1.49
  -6   4  10    2.55    1.42
  -6   4  10    3.02    1.36
   5  -4 -10    1.26    1.42
   5  -4 -10    0.72    0.95
  -5   4  10    0.73    1.13
  -5   4  10   -0.23    1.05
   4  -4 -10    4.11    1.22
   4  -4 -10    5.68    1.54
  -4   4  10    6.30    1.49
  -4   4  10    5.06    1.41
   3  -4 -10    0.80    1.20
   3  -4 -10    1.85    1.37
   3  -4 -10    0.40    1.31
  -3   4  10    2.17    1.18
  -3   4  10    0.33    1.07
   2  -4 -10   11.46    1.77
   2  -4 -10    9.09    1.86
  -2   4  10    8.73    1.65
  -2   4  10    8.00    1.58
   9   3 -11    0.65    0.74
   9   3 -11   -0.29    1.02
   8   3 -11    3.38    1.27
   8   3 -11    1.71    0.84
  -8  -3  11    1.95    0.87
   7   3 -11    2.45    1.10
   7   3 -11    1.50    0.82
  -7  -3  11    1.49    0.80
  -7  -3  11    3.45    1.00
   6   3 -11   10.27    1.69
   6   3 -11   10.34    2.01
   6   3 -11    9.11    1.43
  -6  -3  11    9.05    1.32
  -6  -3  11   11.15    1.46
   5   3 -11    1.50    1.36
   5   3 -11    2.67    1.08
   5   3 -11    0.84    0.80
  -5  -3  11    1.06    0.98
   4   3 -11    3.20    1.02
   4   3 -11    5.63    1.25
   4   3 -11    2.77    1.43
  -4  -3  11    4.71    1.18
   3   3 -11    0.38    0.82
   3   3 -11   -1.35    1.13
  -3  -3  11    0.52    1.05
   2   3 -11    7.84    1.69
   2   3 -11    2.88    1.38
  -2  -3  11    6.31    1.40
   1   3 -11    5.79    1.53
   1   3 -11    8.34    1.79
  -1  -3  11    8.71    1.57
  10   2 -11    3.95    1.03
  10   2 -11    5.67    1.42
 -10  -2  11    5.89    1.16
   9   2 -11    5.27    1.39
   9   2 -11    4.70    1.02
  -9  -2  11    5.96    1.15
  -9  -2  11    5.60    1.01
   8   2 -11   -0.24    0.90
   8   2 -11    0.36    0.70
  -8  -2  11    0.81    0.69
  -8  -2  11    0.41    0.57
  -8  -2  11    0.64    0.99
   7   2 -11    5.20    1.19
   7   2 -11    7.17    1.50
  -7  -2  11    6.00    1.02
  -7  -2  11    4.94    0.91
  -7  -2  11    7.90    1.15
   6   2 -11    4.08    1.19
   6   2 -11    2.54    0.90
   6   2 -11    4.02    1.39
  -6  -2  11    2.89    0.76
  -6  -2  11    2.55    0.74
  -6  -2  11    2.59    0.91
   5   2 -11   16.49    2.03
   5   2 -11    9.22    1.45
   5   2 -11   13.22    1.95
  -5  -2  11   11.89    1.40
  -5  -2  11   12.08    1.36
  -5  -2  11   14.07    1.60
   4   2 -11    7.36    1.34
   4   2 -11    6.68    1.32
   4   2 -11    8.28    1.61
  -4  -2  11   10.46    1.35
  -4  -2  11    8.82    1.39
   3   2 -11    2.54    0.89
   3   2 -11    2.20    1.19
  -3  -2  11    2.46    0.82
   2   2 -11    1.95    0.92
   2   2 -11    1.28    1.09
  -2  -2  11    1.86    0.80
   1   2 -11   12.47    2.02
   1   2 -11   20.03    2.27
  -1  -2  11   18.86    1.84
   0   2 -11   25.87    2.97
   0   2 -11   25.49    2.61
   0  -2  11   23.51    2.25
  -1   2 -11    3.01    1.38
  -1   2 -11    3.19    1.49
   1  -2  11    2.70    0.99
  11   1 -11    0.15    0.94
  11   1 -11   -0.57    0.62
 -11  -1  11   -0.20    0.82
 -11  -1  11    0.13    0.76
  10   1 -11    2.12    0.83
  10   1 -11    2.00    1.12
 -10  -1  11    0.49    0.76
 -10  -1  11    2.37    0.93
   9   1 -11    0.33    0.73
   9   1 -11    0.72    0.96
  -9  -1  11    0.52    0.82
  -9  -1  11    0.20    0.67
   8   1 -11   10.69    1.65
   8   1 -11    7.01    1.43
  -8  -1  11    5.74    1.12
  -8  -1  11    7.80    1.52
  -8  -1  11    5.87    1.02
   7   1 -11   16.24    2.00
   7   1 -11    9.37    1.46
  -7  -1  11    9.42    1.37
  -7  -1  11   12.91    1.34
  -7  -1  11   10.74    1.23
   6   1 -11   19.73    2.18
   6   1 -11   21.22    2.10
  -6  -1  11   23.27    2.02
  -6  -1  11   21.54    1.76
   5   1 -11   22.61    2.31
   5   1 -11   19.00    2.01
   5   1 -11   19.30    2.09
  -5  -1  11   18.47    1.84
  -5  -1  11   19.87    1.58
   4   1 -11    2.52    0.95
   4   1 -11    2.22    0.90
   4   1 -11    2.19    1.09
  -4  -1  11    2.76    0.57
  -4  -1  11    1.92    0.82
   3   1 -11   -0.10    0.83
   3   1 -11   -0.63    0.68
  -3  -1  11    0.65    0.68
   2   1 -11    0.36    0.93
  -2  -1  11    0.25    0.71
   1   1 -11    1.05    0.99
   1   1 -11    0.37    1.13
  -1  -1  11    0.89    0.59
  -1  -1  11    0.53    0.79
   0   1 -11    9.23    1.81
   0   1 -11   11.76    1.73
   0  -1  11   11.21    1.35
   0  -1  11   13.41    1.79
  -1   1 -11    2.82    1.32
  -1   1 -11    3.12    1.38
   1  -1  11    4.50    1.18
   1  -1  11    4.30    0.91
  -2   1 -11   45.68    3.53
  -2   1 -11   37.19    3.78
   2  -1  11   41.39    3.39
  12   0 -11    2.73    1.16
  12   0 -11    1.36    0.92
 -12   0  11    1.53    1.23
  11   0 -11    0.17    0.86
  11   0 -11    0.17    0.67
 -11   0  11    0.48    1.09
  10   0 -11   11.78    1.77
  10   0 -11   16.45    2.05
 -10   0  11   12.07    1.91
   9   0 -11    3.19    1.11
   9   0 -11    1.72    0.80
  -9   0  11    0.37    0.97
   8   0 -11   34.63    2.87
   8   0 -11   36.73    3.00
  -8   0  11   30.31    2.89
   7   0 -11   71.43    4.66
   7   0 -11   60.60    4.48
  -7   0  11   58.81    4.02
  -7   0  11   64.79    4.53
   6   0 -11  118.33    7.68
   6   0 -11  121.90    7.70
  -6   0  11  123.10    7.19
  -6   0  11  115.61    7.63
   5   0 -11   14.56    1.59
   5   0 -11   11.85    1.67
   5   0 -11    7.76    1.34
  -5   0  11   11.97    1.05
  -5   0  11    8.07    1.34
  -5   0  11   11.01    1.04
   4   0 -11   16.15    1.72
   4   0 -11   14.86    1.94
   4   0 -11   12.92    1.84
  -4   0  11   19.28    1.40
  -4   0  11   13.00    1.15
  -4   0  11   18.36    1.98
   3   0 -11    2.84    0.93
  -3   0  11    3.31    0.70
  -3   0  11    2.32    0.94
   2   0 -11    1.83    0.87
  -2   0  11    3.77    0.78
  -2   0  11    3.80    1.03
   1   0 -11   25.19    2.16
   1   0 -11   24.70    2.81
  -1   0  11   23.46    2.30
  -1   0  11   21.75    1.94
   0   0 -11    4.26    1.15
   0   0 -11    4.64    1.58
   0   0  11    6.08    1.03
   0   0  11    5.50    1.29
  -1   0 -11   16.15    2.35
  -1   0 -11   11.82    1.68
   1   0  11   13.32    1.57
   1   0  11   15.28    1.99
  -2   0 -11    2.51    1.11
  -2   0 -11    4.50    1.66
   2   0  11    4.13    0.99
   2   0  11    3.68    1.14
  11  -1 -11    0.81    0.80
  11  -1 -11   -0.13    0.85
 -11   1  11    1.31    1.27
  10  -1 -11    1.30    0.94
  10  -1 -11    1.54    0.87
 -10   1  11    1.52    1.24
   9  -1 -11    1.86    0.92
   9  -1 -11    0.46    0.77
  -9   1  11    1.62    1.19
   8  -1 -11    5.08    1.17
   8  -1 -11    8.01    1.42
  -8   1  11    2.94    1.19
   7  -1 -11    7.90    1.41
   7  -1 -11   11.05    1.51
  -7   1  11    7.58    1.49
  -7   1  11    9.41    1.05
   6  -1 -11   18.18    1.77
   6  -1 -11   23.35    2.51
   6  -1 -11   18.81    2.21
  -6   1  11   21.52    1.70
   5  -1 -11   18.41    1.69
   5  -1 -11   20.71    2.19
  -5   1  11   20.52    1.65
  -5   1  11   16.79    2.11
   4  -1 -11    3.10    0.70
   4  -1 -11    1.22    0.95
  -4   1  11    1.32    0.85
  -4   1  11    1.79    0.67
   3  -1 -11   -0.05    0.52
  -3   1  11    0.05    0.60
  -3   1  11    0.15    0.77
   2  -1 -11    0.58    0.61
   2  -1 -11    0.76    1.01
  -2   1  11    0.82    0.80
  -2   1  11    0.68    0.65
   1  -1 -11    1.61    1.12
   1  -1 -11    0.75    0.79
  -1   1  11    1.14    0.90
  -1   1  11    1.61    0.75
   0  -1 -11   12.34    2.11
   0   1  11   10.99    1.74
   0   1  11   12.10    1.48
  -1  -1 -11    3.41    1.53
   1   1  11    3.66    1.00
   1   1  11    4.71    1.28
  -2  -1 -11   33.35    3.66
   2   1  11   45.41    3.56
   2   1  11   39.78    3.08
  10  -2 -11    2.90    1.21
  10  -2 -11    4.18    1.12
 -10   2  11    3.45    1.50
   9  -2 -11    4.71    1.28
   9  -2 -11    5.03    1.36
  -9   2  11    3.23    1.40
   8  -2 -11   -0.53    0.80
   8  -2 -11    1.06    0.90
  -8   2  11    0.48    0.82
  -8   2  11   -0.77    1.05
   7  -2 -11    8.38    1.47
  -7   2  11    5.60    1.05
  -7   2  11    2.38    1.21
   6  -2 -11    1.56    1.01
  -6   2  11    3.64    0.95
  -6   2  11    3.37    1.18
   5  -2 -11   10.40    1.59
  -5   2  11    8.49    1.61
  -5   2  11   12.54    1.45
  -4   2  11    8.16    1.23
  -4   2  11    6.49    1.43
   3  -2 -11    2.46    1.14
  -3   2  11    2.85    0.90
  -3   2  11    2.25    1.07
   2  -2 -11    2.37    1.22
   2  -2 -11    2.45    1.04
  -2   2  11    0.75    0.89
  -2   2  11    0.60    0.79
   1  -2 -11   18.77    2.45
  -1   2  11   17.40    2.15
  -1   2  11   17.29    1.89
   0  -2 -11   23.28    2.81
   0   2  11   23.53    2.56
   0   2  11   25.82    2.31
  -1  -2 -11    3.68    1.47
   1   2  11    3.36    1.07
   1   2  11    2.07    1.15
   9  -3 -11    1.74    1.06
  -9   3  11    0.60    1.28
   8  -3 -11    0.53    1.04
  -8   3  11    2.03    1.15
  -8   3  11    1.21    1.28
   7  -3 -11    3.16    1.21
  -7   3  11    1.86    1.10
  -7   3  11    2.60    1.41
  -6   3  11    8.06    1.79
  -6   3  11   10.45    1.59
  -5   3  11    1.24    1.13
  -5   3  11    2.24    1.03
   4  -3 -11    3.81    1.17
   4  -3 -11    2.74    1.36
  -4   3  11    1.80    1.16
  -4   3  11    4.93    1.20
   3  -3 -11   -0.56    1.18
   3  -3 -11    0.13    0.95
  -3   3  11    1.18    0.92
  -3   3  11    0.25    0.93
   2  -3 -11    2.55    1.18
   2  -3 -11    3.05    1.25
  -2   3  11    1.45    1.01
  -2   3  11    4.60    1.30
   1  -3 -11    4.30    1.57
   1  -3 -11    7.12    1.66
  -1   3  11    5.36    1.28
  -1   3  11    6.74    1.51
   6   3 -12    1.48    1.00
   6   3 -12    1.43    0.86
  -6  -3  12    1.90    0.80
  -6  -3  12    0.19    1.00
   5   3 -12    1.86    1.07
   5   3 -12    1.06    1.39
   5   3 -12    1.41    0.82
  -5  -3  12    1.41    1.07
   4   3 -12    2.57    1.05
   4   3 -12    1.31    1.34
  -4  -3  12    0.25    1.04
   9   2 -12    3.20    0.98
   9   2 -12    5.00    1.41
  -9  -2  12    1.15    0.79
   8   2 -12    5.03    1.33
   8   2 -12    3.54    1.06
  -8  -2  12    3.60    0.95
  -8  -2  12    4.43    1.05
   7   2 -12    1.20    1.00
   7   2 -12    0.88    0.76
  -7  -2  12    1.89    0.88
  -7  -2  12    1.46    0.70
  -7  -2  12    0.65    0.65
   6   2 -12   17.73    2.23
   6   2 -12   13.03    1.89
   6   2 -12   16.81    2.36
  -6  -2  12   16.48    1.71
  -6  -2  12   11.76    1.43
  -6  -2  12   14.55    1.67
   5   2 -12   13.38    1.83
   5   2 -12   11.88    1.97
   5   2 -12   10.87    1.71
  -5  -2  12   16.49    1.80
  -5  -2  12   11.99    1.48
   4   2 -12    8.44    1.50
   4   2 -12    6.01    1.39
   4   2 -12    9.52    1.68
  -4  -2  12    6.84    1.17
   3   2 -12    5.40    1.28
   3   2 -12    7.18    1.56
  -3  -2  12    5.14    1.06
   2   2 -12    3.93    1.40
   2   2 -12    3.90    1.42
  -2  -2  12    5.97    1.13
   1   2 -12   -0.43    1.05
   1   2 -12    0.04    1.10
  -1  -2  12   -0.15    0.78
  10   1 -12    3.23    1.20
  10   1 -12    4.07    1.18
 -10  -1  12    2.47    1.01
 -10  -1  12    3.02    0.98
   9   1 -12    8.68    1.56
   9   1 -12    8.73    1.64
  -9  -1  12    7.53    1.19
  -9  -1  12    7.32    1.29
   8   1 -12    0.65    0.84
   8   1 -12    1.74    0.98
  -8  -1  12   -0.38    0.56
  -8  -1  12    0.45    0.72
   7   1 -12   12.87    1.84
   7   1 -12   15.57    1.98
  -7  -1  12   10.59    1.48
  -7  -1  12    8.89    1.16
   6   1 -12   47.52    3.74
   6   1 -12   49.08    3.78
   6   1 -12   51.96    3.86
  -6  -1  12   47.41    3.25
  -6  -1  12   49.04    3.57
   5   1 -12   48.03    3.75
   5   1 -12   46.70    3.79
   5   1 -12   54.34    3.84
  -5  -1  12   47.77    3.22
  -5  -1  12   51.73    3.63
   4   1 -12    8.94    1.61
   4   1 -12   12.68    1.72
   4   1 -12   12.08    1.80
  -4  -1  12   12.70    1.64
   3   1 -12    9.57    1.61
  -3  -1  12   10.52    1.52
   2   1 -12    2.91    1.14
   2   1 -12    1.72    1.28
  -2  -1  12    1.07    0.87
   1   1 -12    6.47    1.42
   1   1 -12    5.84    1.67
  -1  -1  12    6.01    1.36
   0   1 -12    4.44    1.69
   0   1 -12    9.23    1.66
   0  -1  12    7.26    1.40
  11   0 -12    0.00    0.89
  11   0 -12    0.45    0.78
 -11   0  12    0.75    1.07
  10   0 -12    6.07    1.28
  10   0 -12    7.09    1.57
 -10   0  12    4.09    1.27
   9   0 -12    2.47    1.07
   9   0 -12    3.10    1.11
  -9   0  12    0.98    1.01
   8   0 -12    8.36    1.59
   8   0 -12    9.50    1.62
  -8   0  12    6.65    1.00
  -8   0  12    6.00    1.36
   7   0 -12   19.56    2.13
   7   0 -12   20.23    2.12
  -7   0  12   16.05    1.55
  -7   0  12   16.11    2.05
   6   0 -12    8.67    1.50
   6   0 -12    9.92    1.44
   6   0 -12    9.07    1.63
  -6   0  12    5.81    1.25
  -6   0  12    7.00    0.92
   5   0 -12    0.40    0.85
   5   0 -12   -0.16    0.77
   5   0 -12    0.57    0.81
  -5   0  12    0.64    0.79
   4   0 -12   14.51    1.74
  -4   0  12   14.33    1.44
  -4   0  12   18.59    2.16
   3   0 -12    1.73    0.90
  -3   0  12    2.16    0.71
  -3   0  12    2.78    0.99
   2   0 -12    0.10    0.77
   2   0 -12    0.72    1.12
  -2   0  12    0.55    0.81
  -2   0  12    0.08    0.57
   1   0 -12    0.26    0.87
   1   0 -12   -0.40    1.03
  -1   0  12    0.53    0.88
  -1   0  12   -0.10    0.59
   0   0 -12    3.10    1.10
   0   0 -12    2.31    1.34
   0   0  12    2.96    1.18
   0   0  12    2.35    0.82
  -1   0 -12    1.06    1.10
  -1   0 -12    0.34    1.27
   1   0  12    0.54    0.73
   1   0  12    1.84    1.04
  10  -1 -12    2.91    1.10
  10  -1 -12    3.62    1.22
 -10   1  12    3.89    1.44
   9  -1 -12    7.84    1.55
   9  -1 -12   10.35    1.63
  -9   1  12    6.12    1.55
   8  -1 -12    1.08    0.92
   8  -1 -12    0.15    0.82
  -8   1  12   -0.34    0.99
   7  -1 -12   10.44    1.58
   7  -1 -12    8.16    1.56
  -7   1  12   11.20    1.76
   6  -1 -12   42.56    3.55
   6  -1 -12   44.31    3.60
  -6   1  12   45.30    3.63
   5  -1 -12   46.65    3.99
  -5   1  12   53.37    4.03
  -5   1  12   55.73    3.51
  -4   1  12   14.35    1.41
  -4   1  12    8.57    1.54
  -3   1  12   13.20    1.42
  -3   1  12   10.81    1.76
   2  -1 -12    0.01    1.07
  -2   1  12    3.21    0.84
  -2   1  12    1.82    1.01
   1  -1 -12    2.80    1.31
  -1   1  12    6.99    1.16
  -1   1  12    7.32    1.52
   0  -1 -12    4.74    1.60
   0   1  12    6.43    1.46
   0   1  12    5.89    1.19
   9  -2 -12    1.65    1.08
   9  -2 -12    2.95    1.17
  -9   2  12    0.44    1.23
   8  -2 -12    3.06    1.20
  -8   2  12    1.31    1.21
   7  -2 -12    1.26    1.01
  -7   2  12    0.47    1.07
  -7   2  12    1.18    0.89
   6  -2 -12    9.97    1.64
  -6   2  12   11.87    1.45
  -6   2  12   11.05    1.89
  -5   2  12   10.17    1.43
  -5   2  12   10.45    1.82
  -4   2  12    7.66    1.26
  -4   2  12    6.12    1.43
   3  -2 -12    5.10    1.51
   3  -2 -12    3.96    1.27
  -3   2  12    3.92    1.25
  -3   2  12    4.67    1.06
   2  -2 -12    1.83    1.23
  -2   2  12    5.00    1.15
  -2   2  12    5.14    1.38
   1  -2 -12    0.36    1.18
  -1   2  12    1.59    1.05
  -1   2  12    0.63    0.87
  -6   3  12    0.05    0.93
  -6   3  12    0.22    1.14
   5  -3 -12    0.51    1.20
  -5   3  12   -0.28    1.02
  -5   3  12    1.31    1.03
   4  -3 -12   -0.63    1.31
   4  -3 -12    2.29    1.21
  -4   3  12    2.31    1.04
  -4   3  12    0.16    1.04
   7   2 -13    3.46    1.05
   7   2 -13    2.79    1.18
  -7  -2  13    3.53    0.88
   6   2 -13    7.07    1.71
   6   2 -13    3.03    1.10
   6   2 -13    3.83    1.28
  -6  -2  13    5.84    1.23
  -6  -2  13    3.82    1.19
   5   2 -13    5.57    1.37
   5   2 -13    9.16    1.58
   5   2 -13    7.84    1.71
  -5  -2  13    7.43    1.31
  -5  -2  13   10.57    1.63
   4   2 -13    9.58    1.71
  -4  -2  13   12.80    1.69
   9   1 -13    3.84    1.20
   9   1 -13    2.47    1.01
  -9  -1  13    2.58    0.86
  -9  -1  13    3.36    1.02
   8   1 -13    1.99    0.92
   8   1 -13    2.09    1.10
  -8  -1  13    1.46    0.71
  -8  -1  13    0.77    0.78
   7   1 -13   22.38    2.39
   7   1 -13   28.55    2.79
   7   1 -13   24.05    2.56
  -7  -1  13   23.92    2.25
  -7  -1  13   19.81    2.22
   6   1 -13    3.07    1.14
   6   1 -13    1.17    1.14
   6   1 -13    2.50    1.04
  -6  -1  13    1.56    0.86
   5   1 -13    6.54    1.41
   5   1 -13    7.26    1.50
   5   1 -13    4.92    1.27
  -5  -1  13    8.28    1.34
   4   1 -13   12.62    1.81
   4   1 -13   14.08    1.98
  -4  -1  13   12.28    1.64
   3   1 -13    2.64    1.20
  -3  -1  13    2.48    0.97
   2   1 -13    9.77    1.63
   2   1 -13    7.71    1.89
  -2  -1  13    8.00    1.51
   9   0 -13   -0.13    0.77
   9   0 -13    1.30    0.98
  -9   0  13    1.63    1.08
  -9   0  13    0.96    0.75
   8   0 -13    8.36    1.55
   8   0 -13    7.10    1.33
  -8   0  13    5.24    1.26
   7   0 -13    1.52    1.04
   7   0 -13    2.26    1.08
   7   0 -13    0.57    0.91
  -7   0  13    1.09    0.92
   6   0 -13   23.37    2.73
   6   0 -13   21.04    2.42
   6   0 -13   22.28    2.22
  -6   0  13   18.04    2.26
   5   0 -13   12.64    1.63
  -5   0  13   11.10    1.74
   4   0 -13    5.06    1.13
  -4   0  13    2.58    1.01
   3   0 -13    1.93    1.32
   3   0 -13    3.09    1.03
  -3   0  13    3.89    1.16
   2   0 -13   -1.41    1.07
  -2   0  13   -0.12    0.82
  -2   0  13    0.81    0.67
   9  -1 -13    5.05    1.41
   9  -1 -13    4.71    1.36
  -9   1  13    4.12    1.43
   8  -1 -13    0.73    0.89
   8  -1 -13    1.29    1.03
  -8   1  13    1.81    1.16
   7  -1 -13   25.51    2.61
   7  -1 -13   22.82    2.56
  -7   1  13   21.15    2.59
   6  -1 -13    2.16    1.10
  -6   1  13    2.09    1.05
  -5   1  13    8.39    1.61
  -4   1  13   12.61    1.49
  -4   1  13   14.35    2.02
   3  -1 -13    0.83    1.19
  -3   1  13    2.76    1.13
  -3   1  13    2.13    0.84
  -2   1  13   11.48    1.47
  -2   1  13    8.87    1.66
   7  -2 -13    3.90    1.36
  -7   2  13    1.99    1.24
  -6   2  13    2.23    1.29
  -5   2  13    6.50    1.25
  -5   2  13    7.53    1.59
   4  -2 -13   11.01    2.07
  -4   2  13    7.86    1.64
  -4   2  13   11.32    1.47
   0   0   0    0.00    0.00
;
_shelx_hkl_checksum              46962
_olex2_submission_special_instructions 'No special instructions were received'
loop_
_space_group_symop_operation_xyz
'x, y, z'
'-x, y+1/2, -z'
loop_
_atom_site_label
_atom_site_type_symbol
_atom_site_fract_x
_atom_site_fract_y
_atom_site_fract_z
_atom_site_U_iso_or_equiv
_atom_site_adp_type
_atom_site_occupancy
_atom_site_site_symmetry_order
_atom_site_calc_flag
_atom_site_refinement_flags_posn
O1 O -1.13057(16) -1.1614(4) -1.19617(16) 0.0210(4) Uani 1 1 d .
O2 O -1.11134(17) -1.4746(4) -1.36567(16) 0.0226(4) Uani 1 1 d .
O3 O -1.43949(16) -1.6629(4) -1.04500(15) 0.0193(4) Uani 1 1 d .
H3 H -1.397407 -1.794406 -1.002720 0.029 Uiso 1 1 calc GR
O4 O -1.70189(17) -1.6121(4) -1.07920(15) 0.0206(5) Uani 1 1 d .
O5 O -1.74579(16) -1.9711(4) -1.20523(15) 0.0181(4) Uani 1 1 d .
C1 C -1.8648(3) -2.0137(6) -1.1856(3) 0.0238(7) Uani 1 1 d .
H1A H -1.839778 -2.068960 -1.096896 0.036 Uiso 1 1 calc GR
H1B H -1.918870 -2.151708 -1.244061 0.036 Uiso 1 1 calc GR
H1C H -1.915512 -1.848839 -1.202526 0.036 Uiso 1 1 calc GR
C2 C -1.6702(3) -1.7679(5) -1.1408(2) 0.0155(6) Uani 1 1 d .
C3 C -1.5449(2) -1.7500(5) -1.1594(2) 0.0153(6) Uani 1 1 d .
H3A H -1.523408 -1.926768 -1.184407 0.018 Uiso 1 1 calc R
C4 C -1.5646(2) -1.5466(5) -1.2647(2) 0.0172(6) Uani 1 1 d .
H4A H -1.642803 -1.596885 -1.343630 0.021 Uiso 1 1 calc R
H4B H -1.582008 -1.370960 -1.237257 0.021 Uiso 1 1 calc R
C5 C -1.4453(2) -1.5279(5) -1.2937(2) 0.0155(6) Uani 1 1 d .
C6 C -1.3444(3) -1.3459(5) -1.2294(2) 0.0154(6) Uani 1 1 d .
H6 H -1.351530 -1.230681 -1.167694 0.018 Uiso 1 1 calc R
C7 C -1.2346(3) -1.3318(5) -1.2546(2) 0.0165(6) Uani 1 1 d .
C8 C -1.2243(2) -1.5016(5) -1.3469(2) 0.0171(6) Uani 1 1 d .
C9 C -1.3235(2) -1.6812(6) -1.4094(2) 0.0185(6) Uani 1 1 d .
H9 H -1.316645 -1.797448 -1.470924 0.022 Uiso 1 1 calc R
C10 C -1.4340(3) -1.6939(5) -1.3833(2) 0.0180(6) Uani 1 1 d .
H10 H -1.502119 -1.817912 -1.427614 0.022 Uiso 1 1 calc R
C11 C -1.1396(3) -0.9851(6) -1.1033(2) 0.0212(6) Uani 1 1 d .
H11A H -1.142570 -1.087731 -1.032626 0.032 Uiso 1 1 calc GR
H11B H -1.220064 -0.878459 -1.143468 0.032 Uiso 1 1 calc GR
H11C H -1.062285 -0.868395 -1.070199 0.032 Uiso 1 1 calc GR
C12 C -1.0985(3) -1.6507(6) -1.4556(2) 0.0250(6) Uani 1 1 d .
H12A H -1.105261 -1.833598 -1.430899 0.038 Uiso 1 1 calc GR
H12B H -1.012460 -1.624087 -1.456960 0.038 Uiso 1 1 calc GR
H12C H -1.169013 -1.615931 -1.540987 0.038 Uiso 1 1 calc GR
loop_
_atom_site_aniso_label
_atom_site_aniso_U_11
_atom_site_aniso_U_22
_atom_site_aniso_U_33
_atom_site_aniso_U_23
_atom_site_aniso_U_13
_atom_site_aniso_U_12
O1 0.0230(10) 0.0212(10) 0.0234(10) -0.0074(9) 0.0144(8) -0.0058(8)
O2 0.0242(10) 0.0267(11) 0.0241(10) -0.0047(9) 0.0171(8) -0.0025(9)
O3 0.0209(10) 0.0206(10) 0.0133(9) 0.0014(8) 0.0044(7) -0.0009(9)
O4 0.0272(11) 0.0193(11) 0.0200(10) -0.0019(8) 0.0146(9) -0.0008(8)
O5 0.0179(10) 0.0223(11) 0.0172(9) -0.0026(8) 0.0103(8) -0.0058(8)
C1 0.0197(15) 0.0293(17) 0.0251(15) 0.0005(13) 0.0123(12) -0.0044(13)
C2 0.0190(14) 0.0154(14) 0.0133(13) 0.0043(11) 0.0079(12) 0.0010(12)
C3 0.0179(14) 0.0139(14) 0.0144(13) -0.0037(10) 0.0072(11) -0.0016(11)
C4 0.0182(14) 0.0185(14) 0.0153(13) 0.0015(11) 0.0074(11) -0.0023(11)
C5 0.0197(15) 0.0156(14) 0.0120(13) 0.0033(11) 0.0076(11) 0.0014(11)
C6 0.0208(15) 0.0146(14) 0.0132(13) 0.0022(10) 0.0097(12) 0.0026(11)
C7 0.0194(15) 0.0160(14) 0.0147(13) 0.0018(11) 0.0078(12) -0.0013(11)
C8 0.0198(14) 0.0195(15) 0.0147(13) 0.0045(12) 0.0100(11) 0.0030(12)
C9 0.0248(15) 0.0198(15) 0.0133(13) 0.0002(13) 0.0104(12) 0.0022(13)
C10 0.0205(14) 0.0176(15) 0.0147(13) 0.0009(12) 0.0063(11) -0.0017(12)
C11 0.0260(15) 0.0200(15) 0.0192(14) -0.0057(12) 0.0113(12) -0.0044(12)
C12 0.0317(16) 0.0304(16) 0.0212(14) -0.0019(14) 0.0191(13) 0.0027(14)
loop_
_atom_type_symbol
_atom_type_description
_atom_type_scat_dispersion_real
_atom_type_scat_dispersion_imag
_atom_type_scat_source
C C 0.0033 0.0016 'International Tables Vol C Tables 4.2.6.8 and 6.1.1.4'
H H 0.0000 0.0000 'International Tables Vol C Tables 4.2.6.8 and 6.1.1.4'
O O 0.0106 0.0060 'International Tables Vol C Tables 4.2.6.8 and 6.1.1.4'
loop_
_geom_angle_atom_site_label_1
_geom_angle_atom_site_label_2
_geom_angle_atom_site_label_3
_geom_angle
C7 O1 C11 116.2(2)
C8 O2 C12 116.1(2)
C3 O3 H3 109.5
C2 O5 C1 115.41(19)
O5 C1 H1A 109.5
O5 C1 H1B 109.5
O5 C1 H1C 109.5
H1A C1 H1B 109.5
H1A C1 H1C 109.5
H1B C1 H1C 109.5
O4 C2 O5 123.5(2)
O4 C2 C3 124.6(2)
O5 C2 C3 111.9(2)
O3 C3 C2 109.9(2)
O3 C3 H3A 109.9
O3 C3 C4 108.15(19)
C2 C3 H3A 109.9
C2 C3 C4 109.0(2)
C4 C3 H3A 109.9
C3 C4 H4A 109.2
C3 C4 H4B 109.2
H4A C4 H4B 107.9
C5 C4 C3 112.1(2)
C5 C4 H4A 109.2
C5 C4 H4B 109.2
C6 C5 C4 120.8(2)
C10 C5 C4 120.1(2)
C10 C5 C6 119.1(2)
C5 C6 H6 119.6
C7 C6 C5 120.7(2)
C7 C6 H6 119.6
O1 C7 C6 125.0(2)
O1 C7 C8 115.2(2)
C6 C7 C8 119.7(2)
O2 C8 C7 115.9(2)
C9 C8 O2 124.8(2)
C9 C8 C7 119.3(2)
C8 C9 H9 119.7
C8 C9 C10 120.5(2)
C10 C9 H9 119.7
C5 C10 C9 120.6(2)
C5 C10 H10 119.7
C9 C10 H10 119.7
O1 C11 H11A 109.5
O1 C11 H11B 109.5
O1 C11 H11C 109.5
H11A C11 H11B 109.5
H11A C11 H11C 109.5
H11B C11 H11C 109.5
O2 C12 H12A 109.5
O2 C12 H12B 109.5
O2 C12 H12C 109.5
H12A C12 H12B 109.5
H12A C12 H12C 109.5
H12B C12 H12C 109.5
loop_
_geom_bond_atom_site_label_1
_geom_bond_atom_site_label_2
_geom_bond_distance
O1 C7 1.372(3)
O1 C11 1.431(3)
O2 C8 1.379(3)
O2 C12 1.422(3)
O3 H3 0.8400
O3 C3 1.414(3)
O4 C2 1.212(3)
O5 C1 1.461(3)
O5 C2 1.337(3)
C1 H1A 0.9800
C1 H1B 0.9800
C1 H1C 0.9800
C2 C3 1.511(4)
C3 H3A 1.0000
C3 C4 1.535(3)
C4 H4A 0.9900
C4 H4B 0.9900
C4 C5 1.514(4)
C5 C6 1.398(4)
C5 C10 1.380(3)
C6 H6 0.9500
C6 C7 1.382(3)
C7 C8 1.412(4)
C8 C9 1.376(4)
C9 H9 0.9500
C9 C10 1.396(4)
C10 H10 0.9500
C11 H11A 0.9800
C11 H11B 0.9800
C11 H11C 0.9800
C12 H12A 0.9800
C12 H12B 0.9800
C12 H12C 0.9800
