#------------------------------------------------------------------------------
#$Date: 2019-10-28 11:16:17 +0200 (Mon, 28 Oct 2019) $
#$Revision: 220006 $
#$URL: file:///home/coder/svn-repositories/cod/cif/4/51/48/4514845.cif $
#------------------------------------------------------------------------------
#
# This file is available in the Crystallography Open Database (COD),
# http://www.crystallography.net/
#
# All data on this site have been placed in the public domain by the
# contributors.
#
data_4514845
loop_
_publ_author_name
'Romine, Andrew M.'
'Yang, Kin S.'
'Karunananda, Malkanthi K.'
'Chen, Jason S.'
'Engle, Keary M.'
_publ_section_title
;
 Synthetic and Mechanistic Studies of a Versatile Heteroaryl Thioether
 Directing Group for Pd(II) Catalysis
;
_journal_issue                   9
_journal_name_full               'ACS Catalysis'
_journal_page_first              7626
_journal_paper_doi               10.1021/acscatal.9b01471
_journal_volume                  9
_journal_year                    2019
_chemical_formula_moiety         'C32 H22 F6 N2 O4 Pd S4, C2 H4 Cl2'
_chemical_formula_sum            'C34 H26 Cl2 F6 N2 O4 Pd S4'
_chemical_formula_weight         946.11
_space_group_crystal_system      triclinic
_space_group_IT_number           2
_space_group_name_Hall           '-P 1'
_space_group_name_H-M_alt        'P -1'
_symmetry_space_group_name_Hall  '-P 1'
_symmetry_space_group_name_H-M   'P -1'
_atom_sites_solution_hydrogens   geom
_atom_sites_solution_primary     dual
_audit_creation_date             2018-05-01
_audit_creation_method
;
Olex2 1.2
(compiled 2017.08.10 svn.r3458 for OlexSys, GUI svn.r5381)
;
_cell_angle_alpha                68.768(3)
_cell_angle_beta                 89.673(5)
_cell_angle_gamma                88.327(3)
_cell_formula_units_Z            1
_cell_length_a                   9.0381(9)
_cell_length_b                   10.3207(12)
_cell_length_c                   10.3832(11)
_cell_measurement_reflns_used    1838
_cell_measurement_temperature    100(2)
_cell_measurement_theta_max      28.30
_cell_measurement_theta_min      2.38
_cell_volume                     902.40(17)
_computing_cell_refinement       'SAINT v8.37A (Bruker, 2016)'
_computing_data_collection       'APEX3 v2016.1-0 (Bruker, 2016)'
_computing_data_reduction        'SAINT v8.37A (Bruker, 2016)'
_computing_molecular_graphics    'Olex2 (Dolomanov et al., 2009)'
_computing_publication_material  'Olex2 (Dolomanov et al., 2009)'
_computing_structure_refinement  'XL (Sheldrick, 2008)'
_computing_structure_solution    'ShelXT (Sheldrick, 2015)'
_diffrn_ambient_temperature      100.0
_diffrn_detector_area_resol_mean 8.258
_diffrn_detector_type            'CCD Area Detector'
_diffrn_measured_fraction_theta_full 0.994
_diffrn_measured_fraction_theta_max 0.981
_diffrn_measurement_device       'Kappa Four-Circle Diffractometer'
_diffrn_measurement_device_type  'Bruker APEX-II CCD'
_diffrn_measurement_method       '\f and \w scans'
_diffrn_radiation_type           MoK\a
_diffrn_radiation_wavelength     0.71073
_diffrn_reflns_av_R_equivalents  0.0384
_diffrn_reflns_av_unetI/netI     0.0405
_diffrn_reflns_Laue_measured_fraction_full 0.994
_diffrn_reflns_Laue_measured_fraction_max 0.981
_diffrn_reflns_limit_h_max       12
_diffrn_reflns_limit_h_min       -12
_diffrn_reflns_limit_k_max       13
_diffrn_reflns_limit_k_min       -13
_diffrn_reflns_limit_l_max       13
_diffrn_reflns_limit_l_min       -13
_diffrn_reflns_number            10713
_diffrn_reflns_point_group_measured_fraction_full 0.994
_diffrn_reflns_point_group_measured_fraction_max 0.981
_diffrn_reflns_theta_full        25.242
_diffrn_reflns_theta_max         28.308
_diffrn_reflns_theta_min         2.104
_diffrn_standards_number         0
_exptl_absorpt_coefficient_mu    0.967
_exptl_absorpt_correction_T_max  0.7457
_exptl_absorpt_correction_T_min  0.6793
_exptl_absorpt_correction_type   multi-scan
_exptl_absorpt_process_details
;
SADABS-2016/2 (Bruker,2016/2) was used for absorption correction.
wR2(int) was 0.0657 before and 0.0481 after correction.
The Ratio of minimum to maximum transmission is 0.9110.
The \l/2 correction factor is Not present.
;
_exptl_crystal_colour            colourless
_exptl_crystal_colour_primary    colourless
_exptl_crystal_density_diffrn    1.741
_exptl_crystal_description       block
_exptl_crystal_F_000             474
_exptl_crystal_size_max          0.3
_exptl_crystal_size_mid          0.29
_exptl_crystal_size_min          0.28
_refine_diff_density_max         1.071
_refine_diff_density_min         -0.431
_refine_diff_density_rms         0.090
_refine_ls_extinction_method     none
_refine_ls_goodness_of_fit_ref   1.052
_refine_ls_hydrogen_treatment    constr
_refine_ls_matrix_type           full
_refine_ls_number_parameters     269
_refine_ls_number_reflns         4397
_refine_ls_number_restraints     15
_refine_ls_restrained_S_all      1.068
_refine_ls_R_factor_all          0.0369
_refine_ls_R_factor_gt           0.0317
_refine_ls_shift/su_max          0.001
_refine_ls_shift/su_mean         0.000
_refine_ls_structure_factor_coef Fsqd
_refine_ls_weighting_details
'w=1/[\s^2^(Fo^2^)+(0.0248P)^2^+1.3308P] where P=(Fo^2^+2Fc^2^)/3'
_refine_ls_weighting_scheme      calc
_refine_ls_wR_factor_gt          0.0773
_refine_ls_wR_factor_ref         0.0825
_reflns_Friedel_coverage         0.000
_reflns_number_gt                3984
_reflns_number_total             4397
_reflns_threshold_expression     'I > 2\s(I)'
_cod_data_source_file            cs9b01471_si_014.cif
_cod_data_source_block           engle114_0m_a
_cod_database_code               4514845
_shelx_shelxl_version_number     2016/6
_shelx_space_group_comment
;
The symmetry employed for this shelxl refinement is uniquely defined
by the following loop, which should always be used as a source of
symmetry information in preference to the above space-group names.
They are only intended as comments.
;
_shelx_estimated_absorpt_t_max   0.773
_shelx_estimated_absorpt_t_min   0.760
_olex2_refinement_description
;
1. Fixed Uiso
 At 1.2 times of:
  All C(H) groups, All C(H,H) groups
2. Restrained distances
 F3'-C15 \\sim F1'-C15 \\sim F2'-C15
 with sigma of 0.01
 F3'-C15 \\sim F1-C15 \\sim F1'-C15 \\sim F2-C15 \\sim F2'-C15 \\sim F3-C15
 with sigma of 0.01
3. Others
 Sof(F3)=Sof(F1)=Sof(F2)=1-FVAR(1)
 Sof(F2')=Sof(F3')=Sof(F1')=FVAR(1)
4.a Secondary CH2 refined with riding coordinates:
 C20(H20A,H20B), C7(H7A,H7B)
4.b Aromatic/amide H refined with riding coordinates:
 C5(H5), C2(H2), C9(H9), C13(H13), C11(H11), C10(H10), C3(H3), C12(H12), C4(H4)
;
_shelx_res_file
;
TITL engle114_0m_a.res in P-1
    engle114_0m_a.res
    created by SHELXL-2016/6 at 15:29:42 on 01-May-2018
REM Old TITL engle114_0m in P1
REM SHELXT solution in P-1
REM R1 0.105, Rweak 0.006, Alpha 0.045, Orientation as input
REM Formula found by SHELXT: C40 O6 Pd S6
CELL 0.71073 9.0381 10.3207 10.3832 68.768 89.673 88.327
ZERR 1 0.0009 0.0012 0.0011 0.003 0.005 0.003
LATT 1
SFAC C H Cl F N O Pd S
UNIT 34 26 2 6 2 4 1 4
SADI 0.01 F3' C15 F1' C15 F2' C15
SADI 0.01 F3' C15 F1 C15 F1' C15 F2 C15 F2' C15 F3 C15

L.S. 10
PLAN  20
SIZE 0.28 0.29 0.3
TEMP -173.15
BOND $H
LIST 6
fmap 2
acta
REM <olex2.extras>
REM <HklSrc "%.\\engle114_0m_a.hkl">
REM </olex2.extras>

WGHT    0.024800    1.330800
FVAR       0.62625   0.83812
PD1   7    0.500000    0.500000    0.500000    10.50000    0.01687    0.01313 =
         0.01657   -0.00646   -0.00050   -0.00245
S1    8    0.495605    0.254540    0.216911    11.00000    0.02832    0.01647 =
         0.01840   -0.00804   -0.00286   -0.00083
S2    8    0.374821    0.545157    0.186467    11.00000    0.03355    0.01439 =
         0.02331   -0.00541   -0.00811    0.00171
CL1   3    0.710108    0.098058    0.977605    11.00000    0.03344    0.02797 =
         0.04412   -0.01195   -0.01115   -0.00118
O1    6    0.288738    0.443613    0.536855    11.00000    0.01920    0.02027 =
         0.02623   -0.00776    0.00045   -0.00343
N1    5    0.525829    0.367886    0.398085    11.00000    0.01914    0.01398 =
         0.01836   -0.00645   -0.00062   -0.00153
PART 1
F2'   4    0.084583    0.162691    0.738819    21.00000    0.03610    0.03146 =
         0.06423   -0.00339    0.01189   -0.01094
F3'   4    0.046070    0.299575    0.532882    21.00000    0.04027    0.10649 =
         0.02826   -0.02732    0.00709   -0.04427
F1'   4    0.024237    0.370042    0.702524    21.00000    0.02896    0.04881 =
         0.07661   -0.04064    0.01427    0.00049
PART 0
O2    6    0.354645    0.253653    0.720890    11.00000    0.03274    0.03946 =
         0.03816    0.00465   -0.00214   -0.00712
C6    1    0.599129    0.163453    0.363937    11.00000    0.01593    0.01795 =
         0.02058   -0.00594    0.00185   -0.00267
C1    1    0.604737    0.240735    0.450066    11.00000    0.01524    0.01502 =
         0.02081   -0.00619    0.00247   -0.00232
C8    1    0.170037    0.391782    0.098324    11.00000    0.02447    0.02129 =
         0.01727   -0.00355   -0.00657    0.00334
C15   1    0.101589    0.292913    0.649869    11.00000    0.02593    0.02612 =
         0.02883   -0.01444    0.00910   -0.00635
C5    1    0.667476    0.032335    0.400571    11.00000    0.02207    0.01854 =
         0.02823   -0.00985    0.00486   -0.00163
AFIX  43
H5    2    0.661091   -0.021066    0.343168    11.00000   -1.20000
AFIX   0
C19   1    0.465436    0.389094    0.277413    11.00000    0.02122    0.01248 =
         0.02086   -0.00609    0.00112   -0.00267
C2    1    0.682235    0.189296    0.574738    11.00000    0.01918    0.02332 =
         0.02153   -0.00816   -0.00112   -0.00109
AFIX  43
H2    2    0.686980    0.241401    0.633494    11.00000   -1.20000
AFIX   0
C9    1    0.077728    0.374233    0.210461    11.00000    0.02496    0.03036 =
         0.02514   -0.01261   -0.00247    0.00293
AFIX  43
H9    2    0.085246    0.433599    0.261732    11.00000   -1.20000
AFIX   0
C13   1    0.157282    0.304145    0.024661    11.00000    0.02575    0.03280 =
         0.02030   -0.01151   -0.00049    0.00075
AFIX  43
H13   2    0.219547    0.315691   -0.052506    11.00000   -1.20000
AFIX   0
C14   1    0.266926    0.330881    0.638567    11.00000    0.02485    0.02296 =
         0.02219   -0.01211    0.00425   -0.00481
C11   1   -0.036722    0.183080    0.174780    11.00000    0.02341    0.03079 =
         0.02969   -0.00519   -0.00680   -0.00324
AFIX  43
H11   2   -0.106947    0.111498    0.201204    11.00000   -1.20000
AFIX   0
C10   1   -0.025580    0.270052    0.247818    11.00000    0.02103    0.03773 =
         0.02521   -0.01014   -0.00003    0.00069
AFIX  43
H10   2   -0.088859    0.258860    0.324248    11.00000   -1.20000
AFIX   0
C3    1    0.751866    0.060367    0.610230    11.00000    0.02158    0.02621 =
         0.02516   -0.00333   -0.00374    0.00072
AFIX  43
H3    2    0.805460    0.023312    0.694782    11.00000   -1.20000
AFIX   0

C20   1    0.559663    0.002348    0.950142    11.00000    0.03539    0.04224 =
         0.03628   -0.02318   -0.00670   -0.00513
AFIX  23
H20A  2    0.521504    0.047440    0.854582    11.00000   -1.20000
H20B  2    0.594217   -0.093370    0.962588    11.00000   -1.20000
AFIX   0

C12   1    0.054696    0.200009    0.062498    11.00000    0.03231    0.03241 =
         0.02852   -0.01571   -0.00640    0.00045
AFIX  43
H12   2    0.046969    0.140288    0.011629    11.00000   -1.20000
AFIX   0
C4    1    0.745217   -0.016928    0.524361    11.00000    0.02201    0.01905 =
         0.03207   -0.00233    0.00156    0.00355
AFIX  43
H4    2    0.795054   -0.105116    0.551435    11.00000   -1.20000
AFIX   0
C7    1    0.280747    0.506010    0.050876    11.00000    0.03148    0.02475 =
         0.01741   -0.00264   -0.00567   -0.00210
AFIX  23
H7A   2    0.228935    0.591938   -0.010257    11.00000   -1.20000
H7B   2    0.356605    0.480149   -0.005375    11.00000   -1.20000
AFIX   0
PART 2
F3    4    0.080555    0.176537    0.634237   -21.00000    0.03663    0.05062 =
         0.15572   -0.07000    0.00196   -0.00361
F1    4    0.009601    0.390096    0.567310   -21.00000    0.01197    0.04066 =
         0.17634    0.04150   -0.00027   -0.00199
F2    4    0.030347    0.276052    0.762372   -21.00000    0.08526    0.24158 =
         0.03959   -0.06315    0.03467   -0.09644
HKLF 4




REM  engle114_0m_a.res in P-1
REM R1 =  0.0317 for    3984 Fo > 4sig(Fo)  and  0.0369 for all    4397 data
REM    269 parameters refined using     15 restraints

END

WGHT      0.0251      1.3224

REM Highest difference peak  1.071,  deepest hole -0.431,  1-sigma level  0.090
Q1    1   0.5641  0.1946  0.2791  11.00000  0.05    1.07
Q2    1   0.6302  0.2127  0.5221  11.00000  0.05    0.65
Q3    1   0.0090  0.3918  0.5194  11.00000  0.05    0.56
Q4    1   0.6769  0.1219  0.5947  11.00000  0.05    0.53
Q5    1   0.4932  0.3380  0.2388  11.00000  0.05    0.47
Q6    1   0.3144  0.3160  0.7402  11.00000  0.05    0.46
Q7    1   0.3211  0.5770  0.2436  11.00000  0.05    0.44
Q8    1   0.5703  0.3024  0.4291  11.00000  0.05    0.44
Q9    1   0.2540  0.4204  0.6063  11.00000  0.05    0.43
Q10   1   0.4962  0.4141  0.4305  11.00000  0.05    0.41
Q11   1   0.3414  0.4953  0.1179  11.00000  0.05    0.41
Q12   1  -0.0364  0.2420  0.2008  11.00000  0.05    0.40
Q13   1   0.0615  0.2988  0.4991  11.00000  0.05    0.40
Q14   1  -0.0149  0.3995  0.6183  11.00000  0.05    0.40
Q15   1   0.5938  0.2006  0.4178  11.00000  0.05    0.39
Q16   1   0.4713  0.4849  0.5842  11.00000  0.05    0.39
Q17   1   0.0496  0.2315  0.7387  11.00000  0.05    0.38
Q18   1   0.1136  0.3846  0.1453  11.00000  0.05    0.37
Q19   1   0.5026 -0.0412  1.0016  11.00000  0.05    0.36
Q20   1   0.7241  0.0249  0.4600  11.00000  0.05    0.35
;
_shelx_res_checksum              7832
_shelx_hkl_file
;
  -1   0   0 2022.08 101.544   1
  -1   0   0 2089.05 97.8574   3
  -1   0   0 1963.27 101.563   1
   1   0   0 1939.53 101.266   1
  -2   0   0 2167.70 94.7740   1
  -2   0   0 1829.59 94.9565   3
  -2   0   0 1979.55 94.6098   1
   2   0   0 1856.92 95.0113   3
   2   0   0 1915.78 101.944   1
  -3   0   0 258.552 12.9424   4
  -3   0   0 239.010 13.5833   3
  -3   0   0 245.740 12.7538   1
  -3   0   0 280.410 12.8247   1
   3   0   0 254.236 13.7667   3
  -4   0   0 1663.33 79.9364   1
  -4   0   0 1638.20 79.6713   1
  -4   0   0 1685.99 79.8973   4
   4   0   0 1596.59 80.9116   3
  -5   0   0 1708.09 77.7312   1
  -5   0   0 1600.72 77.9275   4
  -5   0   0 1575.80 77.6344   1
   5   0   0 1516.81 79.1986   3
  -6   0   0 375.653 18.7245   1
  -6   0   0 369.635 18.5767   1
   6   0   0 362.042 20.6084   3
   6   0   0 362.620 18.5400   1
  -7   0   0 287.859 15.1415   1
  -7   0   0 291.531 15.0151   1
   7   0   0 286.541 14.9340   1
   7   0   0 299.647 17.5882   3
  -8   0   0 339.476 18.5157   1
   8   0   0 383.952 21.6125   3
  -9   0   0 752.593 38.1488   1
   9   0   0 772.663 41.4730   3
 -10   0   0 173.690 10.2722   1
  10   0   0 178.087 13.2901   3
 -11   0   0 29.1624 3.39425   1
  11   0   0 30.6627 6.52100   3
 -12   0   0 30.2996 3.46832   1
  12   0   0 31.5799 6.88735   3
  11  -1   0 13.1142 4.69095   3
 -11   1   0 9.09579 2.30875   1
  10  -1   0 209.365 15.1432   3
 -10   1   0 193.690 11.6021   1
   9  -1   0 301.719 19.8527   3
  -9   1   0 323.777 16.9693   1
   8  -1   0 643.236 34.5933   3
  -8   1   0 618.618 31.8304   1
   7  -1   0 466.176 26.3637   3
   7  -1   0 453.258 23.9384   1
  -7   1   0 492.265 24.1441   1
  -7   1   0 481.290 23.9391   1
   6  -1   0 472.348 23.6660   1
   6  -1   0 456.377 25.5598   3
  -6   1   0 470.636 23.6293   1
  -6   1   0 478.945 23.8120   1
   5  -1   0 196.273 12.2859   3
   5  -1   0 215.152 10.9507   1
  -5   1   0 214.538 10.9012   1
  -5   1   0 201.214 10.9529   1
   4  -1   0 43.2683 3.90032   3
   4  -1   0 33.5139 2.62727   1
  -4   1   0 39.1053 2.64228   1
  -4   1   0 43.0991 2.76499   1
   3  -1   0 1579.88 84.9036   3
   3  -1   0 1823.84 84.0971   1
   3  -1   0 1855.01 84.4366   1
  -3   1   0 1623.78 84.7720   3
  -3   1   0 1798.15 89.8094   1
  -3   1   0 1781.58 88.1165   1
   2  -1   0 0.05598 0.46681   1
   2  -1   0 1.51769 0.56465   1
   2  -1   0 1.69405 1.06418   3
  -2   1   0 0.26926 0.85156   3
  -2   1   0 1.41811 0.51231   1
   1  -1   0 1092.99 54.9302   1
   1  -1   0 1075.73 60.2383   1
  -1   1   0 1170.23 59.6486   1
  -1   1   0 1215.06 60.7834   1
   0  -1   0 1726.62 87.2504   1
   0  -1   0 1699.72 81.4687   1
   0   1   0 1633.53 81.3958   1
   0   1   0 1691.10 87.6421   1
  -1  -1   0 252.841 12.0726   2
  -1  -1   0 248.398 12.3893   3
  -1  -1   0 249.020 11.9862   1
  -1  -1   0 245.911 11.9877   1
   1   1   0 233.705 11.9744   1
   1   1   0 246.327 12.0771   2
  -2  -1   0 8098.09 422.199   2
  -2  -1   0 8564.95 434.436   3
  -2  -1   0 7989.87 412.626   1
  -2  -1   0 9999.99 415.475   1
   2   1   0 7768.34 420.638   2
   2   1   0 7926.52 434.569   3
   2   1   0 8452.69 411.763   1
  -3  -1   0 54.8558 3.08066   1
  -3  -1   0 55.7402 3.45929   2
  -3  -1   0 59.4262 4.15188   3
  -3  -1   0 55.3323 3.09143   1
   3   1   0 54.6876 3.00319   1
   3   1   0 57.9403 4.15010   3
   3   1   0 53.7044 2.99135   1
  -4  -1   0 616.267 30.7469   1
  -4  -1   0 634.182 31.3431   4
  -4  -1   0 628.766 30.7475   1
  -4  -1   0 654.966 31.3258   2
   4   1   0 640.154 30.6508   1
   4   1   0 603.815 30.5848   1
   4   1   0 629.355 32.1374   3
  -5  -1   0 12.8327 1.35162   1
  -5  -1   0 14.2132 1.48998   1
   5   1   0 12.0808 2.58169   3
   5   1   0 12.8352 1.20491   1
  -6  -1   0 708.331 34.7459   1
  -6  -1   0 671.669 34.7579   1
   6   1   0 705.766 36.8624   3
   6   1   0 738.507 34.5812   1
  -7  -1   0 211.604 11.1879   1
  -7  -1   0 211.636 11.3144   1
   7   1   0 207.040 13.5205   3
   7   1   0 217.102 10.9498   1
  -8  -1   0 143.234 8.09169   1
   8   1   0 138.293 10.4565   3
  -9  -1   0 164.862 9.41369   1
   9   1   0 168.349 12.5583   3
 -10  -1   0 24.0553 2.79873   1
  10   1   0 19.4830 5.09243   3
 -11  -1   0 69.1623 5.08850   1
  11   1   0 74.2069 9.37848   3
 -12  -1   0 24.3514 2.88945   1
  12   1   0 31.0421 6.73563   3
  11  -2   0 0.76845 3.34013   3
 -11   2   0 -3.8340 1.34919   1
  10  -2   0 9.69418 3.59042   3
 -10   2   0 7.89465 2.24874   1
   9  -2   0 -2.7031 2.81680   3
  -9   2   0 6.43648 2.04518   1
   8  -2   0 -0.6615 2.84063   3
  -8   2   0 5.81583 1.66682   1
   7  -2   0 74.6545 7.33303   3
   7  -2   0 83.7611 5.40252   1
  -7   2   0 83.8747 5.31504   1
  -7   2   0 81.1644 5.55115   1
   6  -2   0 221.143 14.3838   3
   6  -2   0 231.731 12.7860   1
  -6   2   0 241.135 12.9338   1
  -6   2   0 257.852 12.8008   1
   5  -2   0 437.905 23.2639   3
   5  -2   0 410.872 21.6891   1
  -5   2   0 420.165 21.6021   1
  -5   2   0 445.738 21.8229   1
   4  -2   0 3.77953 1.42741   3
   4  -2   0 1.66117 0.89606   1
  -4   2   0 3.53030 0.95288   1
  -4   2   0 2.28906 0.94915   1
   3  -2   0 18.3187 2.54103   3
   3  -2   0 17.5191 1.81641   1
  -3   2   0 20.2197 1.74311   1
   2  -2   0 786.400 38.5614   1
   2  -2   0 850.692 38.6477   1
  -2   2   0 744.187 38.5278   1
  -2   2   0 779.093 38.6461   1
   1  -2   0 8732.79 435.096   1
   1  -2   0 8355.78 431.361   1
  -1   2   0 8442.57 434.465   1
  -1   2   0 9186.14 439.018   1
   0  -2   0 35.9685 2.27907   1
   0  -2   0 35.2126 2.27315   1
   0   2   0 37.3311 2.27181   1
   0   2   0 41.5513 2.33387   1
  -1  -2   0 41.7713 2.31366   1
  -1  -2   0 41.3658 2.32212   1
   1   2   0 37.7261 2.28902   1
   1   2   0 38.9926 2.30057   1
   1   2   0 38.1287 2.36763   2
  -2  -2   0 956.965 47.2876   1
  -2  -2   0 981.871 47.1196   1
  -2  -2   0 973.633 47.2565   2
  -2  -2   0 971.920 47.9388   3
   2   2   0 948.625 47.0944   1
   2   2   0 1012.01 47.3128   2
  -3  -2   0 661.067 31.6244   2
  -3  -2   0 651.816 31.3173   1
  -3  -2   0 616.364 31.2620   1
   3   2   0 662.297 31.6832   2
   3   2   0 623.650 31.1720   1
   3   2   0 616.759 31.2312   1
   3   2   0 677.057 32.4788   3
  -4  -2   0 1175.70 54.8754   2
  -4  -2   0 1086.27 54.3396   1
  -4  -2   0 1088.12 54.3124   1
   4   2   0 1147.27 54.2018   1
   4   2   0 1109.12 54.1676   1
   4   2   0 1124.05 55.7848   3
  -5  -2   0 8.73309 1.11263   1
  -5  -2   0 9.24014 1.12178   1
   5   2   0 10.5129 0.92045   1
   5   2   0 5.86074 1.97856   3
  -6  -2   0 19.6459 1.83035   1
  -6  -2   0 24.6143 1.94118   1
   6   2   0 20.6248 3.67470   3
   6   2   0 20.5260 1.50078   1
  -7  -2   0 54.4065 3.56375   1
  -7  -2   0 54.7604 3.61171   1
   7   2   0 50.4006 5.31888   3
   7   2   0 56.7266 3.12542   1
  -8  -2   0 597.531 29.4979   1
   8   2   0 582.975 32.4478   3
  -9  -2   0 76.8972 4.92481   1
   9   2   0 75.5438 8.02453   3
 -10  -2   0 25.8837 2.75539   1
  10   2   0 30.9921 6.01348   3
 -11  -2   0 6.49915 1.54038   1
  11   2   0 11.2449 4.37126   3
  11  -3   0 59.3333 8.97465   3
 -11   3   0 60.4311 5.68677   1
  10  -3   0 60.0823 8.50484   3
 -10   3   0 61.1510 5.64851   1
   9  -3   0 132.806 11.7676   3
  -9   3   0 155.952 9.51752   1
   8  -3   0 23.2876 5.00337   3
  -8   3   0 23.6263 3.27525   1
   7  -3   0 336.639 20.2800   3
   7  -3   0 323.342 17.9522   1
  -7   3   0 356.768 18.2495   1
   6  -3   0 32.4105 4.77240   3
   6  -3   0 40.7462 3.29610   1
  -6   3   0 33.6841 3.17715   1
  -6   3   0 29.7615 2.88716   1
   5  -3   0 563.523 28.4652   3
   5  -3   0 483.880 26.7985   1
  -5   3   0 574.009 26.8776   1
  -5   3   0 508.163 26.8907   1
   4  -3   0 60.1928 4.12598   1
   4  -3   0 55.8027 4.92463   3
  -4   3   0 60.4567 4.11434   1
  -4   3   0 62.9425 4.05126   1
   3  -3   0 0.71425 0.83354   1
   3  -3   0 2.75111 1.20696   3
  -3   3   0 2.22888 0.84600   1
   2  -3   0 11.8000 1.59712   1
   2  -3   0 14.1787 1.63239   1
   2  -3   0 15.2662 1.10445   4
  -2   3   0 18.0613 1.59433   1
  -2   3   0 13.2195 1.71156   1
   1  -3   0 98.6631 5.86454   1
   1  -3   0 120.613 6.04954   1
  -1   3   0 109.426 5.92604   1
  -1   3   0 101.001 5.93755   1
   0  -3   0 275.391 14.4749   1
   0  -3   0 285.433 14.5063   1
   0   3   0 306.578 14.5106   1
   0   3   0 285.380 14.5085   1
  -1  -3   0 2284.92 117.958   1
  -1  -3   0 2540.50 128.865   1
   1   3   0 2243.86 117.878   2
   1   3   0 2549.22 118.729   1
   1   3   0 2655.85 118.878   1
  -2  -3   0 756.776 39.2722   1
  -2  -3   0 812.462 39.2875   1
  -2  -3   0 822.440 39.3931   2
   2   3   0 845.361 39.2837   1
   2   3   0 803.902 39.2835   1
   2   3   0 804.458 39.4070   2
  -3  -3   0 5.62196 1.02000   2
  -3  -3   0 5.01739 0.82011   1
  -3  -3   0 5.80389 0.86118   1
   3   3   0 5.69567 0.75303   1
   3   3   0 4.64637 0.81617   1
   3   3   0 5.13932 1.00183   2
  -4  -3   0 62.3179 3.62387   1
  -4  -3   0 56.6001 3.84166   2
  -4  -3   0 62.9450 3.57488   1
   4   3   0 58.9308 3.36473   1
   4   3   0 68.4320 4.06849   2
  -5  -3   0 175.674 8.62817   1
  -5  -3   0 150.953 8.46359   1
   5   3   0 165.628 8.24562   1
   5   3   0 161.665 10.2327   3
  -6  -3   0 99.9426 5.52182   1
  -6  -3   0 97.7327 5.58086   1
   6   3   0 94.4683 5.08646   1
   6   3   0 112.670 7.80335   3
  -7  -3   0 149.843 7.46856   1
  -7  -3   0 127.501 7.26918   1
   7   3   0 121.048 9.37045   3
  -8  -3   0 196.634 10.3175   1
   8   3   0 190.341 13.3026   3
  -9  -3   0 355.747 18.4651   1
   9   3   0 376.180 22.0945   3
 -10  -3   0 441.498 22.7110   1
  10   3   0 464.711 27.0051   3
  11   3   0 102.185 10.2512   3
  11  -4   0 108.358 11.2175   3
 -11   4   0 103.342 8.10612   1
  10  -4   0 59.4209 8.53974   3
 -10   4   0 54.4963 5.75967   1
   9  -4   0 40.0873 6.76157   3
  -9   4   0 42.0804 4.69138   1
   8  -4   0 458.279 26.3437   3
  -8   4   0 430.420 23.6309   1
   7  -4   0 809.626 41.6655   3
   7  -4   0 765.518 39.1634   1
  -7   4   0 749.964 39.2315   1
   6  -4   0 1011.92 49.0036   1
   6  -4   0 961.199 50.6505   3
  -6   4   0 968.684 48.9882   1
   5  -4   0 641.940 31.2417   1
   5  -4   0 603.483 32.5856   3
  -5   4   0 597.022 31.1729   1
   4  -4   0 9.58942 1.79786   1
   4  -4   0 9.63925 2.41889   3
   3  -4   0 1.34407 1.11242   1
  -3   4   0 0.02107 0.79421   1
   2  -4   0 158.199 9.22816   1
   2  -4   0 171.029 8.72140   4
  -2   4   0 180.524 9.44605   1
   1  -4   0 1927.98 93.5602   1
   1  -4   0 1902.84 93.5205   1
  -1   4   0 1954.39 93.6279   1
   0  -4   0 1080.35 52.6707   1
   0  -4   0 1073.37 52.6622   1
   0   4   0 1082.43 52.6765   1
  -1  -4   0 2238.14 103.593   1
  -1  -4   0 2238.31 103.200   1
   1   4   0 1999.46 103.094   1
   1   4   0 2058.75 103.214   2
  -2  -4   0 1042.78 50.6736   1
  -2  -4   0 1054.30 50.6455   1
   2   4   0 955.551 50.5786   1
   2   4   0 1109.24 50.8641   2
  -3  -4   0 1013.28 48.7850   1
  -3  -4   0 946.445 48.8208   2
  -3  -4   0 1028.43 48.7282   1
   3   4   0 1003.24 48.6539   1
   3   4   0 1011.06 48.9510   2
  -4  -4   0 403.803 20.8258   2
  -4  -4   0 426.177 20.6986   1
  -4  -4   0 402.850 20.5413   1
   4   4   0 423.760 21.0306   2
  -5  -4   0 25.6443 2.08212   1
  -5  -4   0 24.3207 1.97691   1
   5   4   0 24.6600 2.68752   2
   5   4   0 24.8989 1.74339   1
  -6  -4   0 23.7250 1.97045   1
  -6  -4   0 22.1470 2.01106   1
   6   4   0 22.7113 1.54302   1
  -7  -4   0 412.563 19.5421   1
  -7  -4   0 363.247 19.5790   1
  -8  -4   0 365.081 18.4493   1
  -9  -4   0 335.669 17.0922   1
   9   4   0 335.597 20.7211   3
 -10  -4   0 53.4668 3.72355   1
  10   4   0 59.8166 7.82134   3
  10  -5   0 100.338 10.4066   3
 -10   5   0 117.660 8.67999   1
   9  -5   0 116.507 10.8688   3
  -9   5   0 106.543 8.17854   1
   8  -5   0 239.654 16.3154   3
  -8   5   0 226.653 13.8774   1
   7  -5   0 102.787 7.57900   1
   7  -5   0 130.689 10.1692   3
  -7   5   0 113.982 7.87240   1
   6  -5   0 553.924 30.1143   3
   6  -5   0 537.505 28.1518   1
  -6   5   0 535.016 28.1721   1
   5  -5   0 529.726 26.2804   1
   5  -5   0 460.539 27.3612   3
  -5   5   0 523.302 26.2882   1
   4  -5   0 422.554 22.0378   1
   3  -5   0 15.3290 2.28259   1
  -3   5   0 12.5435 2.11580   1
   2  -5   0 0.91473 1.13664   1
   2  -5   0 1.04681 0.69895   4
  -2   5   0 0.42098 1.10175   1
   1  -5   0 61.6862 3.89332   4
   1  -5   0 55.2155 4.03420   1
  -1   5   0 57.5097 4.08059   1
   0  -5   0 264.905 12.5731   1
   0  -5   0 223.015 12.4077   1
   0   5   0 220.509 12.4179   1
  -1  -5   0 841.496 42.1251   1
  -1  -5   0 887.326 42.1632   1
   1   5   0 840.730 42.1237   1
   1   5   0 855.848 42.2788   2
  -2  -5   0 3.58561 0.98214   1
  -2  -5   0 4.44813 1.07881   1
   2   5   0 4.34220 1.12655   2
   2   5   0 4.37756 1.04540   1
  -3  -5   0 472.596 24.3233   1
  -3  -5   0 492.462 24.2820   1
   3   5   0 495.511 24.4807   2
   3   5   0 487.608 24.2467   1
  -4  -5   0 184.914 9.72623   1
  -4  -5   0 173.660 9.56967   1
  -4  -5   0 185.878 9.80849   2
   4   5   0 181.225 9.93021   2
  -5  -5   0 441.613 22.6411   1
  -5  -5   0 445.353 22.5093   1
   5   5   0 465.763 23.0604   2
  -6  -5   0 2.21163 0.88204   1
  -6  -5   0 2.79533 0.90402   1
  -7  -5   0 0.13761 0.74418   1
  -8  -5   0 155.679 8.40835   1
  -9  -5   0 280.135 14.3658   1
 -10  -5   0 180.791 9.56520   1
  10  -6   0 18.2021 5.66925   3
 -10   6   0 7.77296 3.04438   1
   9  -6   0 1.59751 2.69498   3
  -9   6   0 -2.1811 1.74784   1
   8  -6   0 48.2400 7.51400   3
  -8   6   0 46.0490 5.31202   1
   7  -6   0 101.548 7.19232   1
   7  -6   0 85.2937 8.81624   3
  -7   6   0 89.1858 7.09608   1
   6  -6   0 77.5422 7.87206   3
   6  -6   0 93.1155 6.65436   1
  -6   6   0 83.5502 6.47278   1
   5  -6   0 36.4111 4.00935   1
   5  -6   0 34.3215 5.16772   3
  -5   6   0 32.7285 3.93432   1
   4  -6   0 64.3035 5.09939   1
   3  -6   0 31.5199 3.45267   1
   2  -6   0 90.6382 5.97576   1
   2  -6   0 92.2116 5.44790   4
  -2   6   0 90.8889 6.08590   1
   1  -6   0 4.25244 1.54349   1
  -1   6   0 5.10506 1.50862   1
   0  -6   0 55.8207 4.23169   1
   0   6   0 64.8130 4.38604   1
  -1  -6   0 2.91781 1.10496   1
  -1  -6   0 4.55961 1.32922   1
   1   6   0 4.03458 1.32839   2
   1   6   0 2.86884 1.09054   1
  -2  -6   0 484.546 22.3096   1
  -2  -6   0 409.534 22.1004   1
   2   6   0 429.037 22.1101   1
   2   6   0 425.105 22.2695   2
  -3  -6   0 269.913 14.6958   1
  -3  -6   0 300.504 14.7771   1
   3   6   0 287.096 14.6606   1
   3   6   0 271.989 14.8325   2
  -4  -6   0 49.0219 3.60313   1
  -4  -6   0 54.8280 3.65117   1
   4   6   0 53.2275 3.84106   2
   4   6   0 46.6722 3.37834   1
  -5  -6   0 26.4067 2.59015   1
  -5  -6   0 29.1642 2.80282   1
   5   6   0 29.5825 2.91469   2
  -6  -6   0 45.2960 3.32772   1
   6   6   0 45.9523 3.87872   2
  -7  -6   0 16.6658 2.01528   1
  -8  -6   0 -0.8215 0.83526   1
  -9  -6   0 20.2941 2.12079   1
   9  -7   0 2.91753 3.80483   3
  -9   7   0 0.66236 2.19427   1
   8  -7   0 -4.3093 2.64353   3
  -8   7   0 -0.4712 2.05652   1
   7  -7   0 26.6300 5.73941   3
   7  -7   0 9.38434 3.29913   1
  -7   7   0 16.2148 3.35138   1
   6  -7   0 513.366 28.1302   3
   6  -7   0 483.879 25.9520   1
  -6   7   0 454.020 25.8425   1
   5  -7   0 597.931 29.6729   1
   5  -7   0 556.881 31.1191   3
  -5   7   0 536.202 29.4927   1
   4  -7   0 188.019 11.2730   1
   3  -7   0 0.95595 1.56765   1
   2  -7   0 -0.0822 1.37308   1
  -2   7   0 2.51882 1.28637   1
   1  -7   0 199.877 11.7504   1
  -1   7   0 216.731 11.9189   1
   0  -7   0 138.837 8.25825   1
   0   7   0 132.449 8.16988   1
  -1  -7   0 197.857 11.0418   1
   1   7   0 193.875 10.9812   1
   1   7   0 196.921 11.1218   2
  -2  -7   0 505.039 27.1289   1
  -2  -7   0 536.727 27.1978   1
   2   7   0 560.712 27.2388   1
   2   7   0 540.093 27.3425   2
  -3  -7   0 637.279 30.3931   1
  -3  -7   0 585.394 30.2231   1
   3   7   0 597.896 30.1969   1
   3   7   0 584.587 30.3516   2
  -4  -7   0 863.897 42.5878   1
   4   7   0 847.609 42.7456   2
   4   7   0 866.420 42.4976   1
  -5  -7   0 19.4021 2.35807   1
   5   7   0 20.2714 2.66607   2
  -6  -7   0 2.67624 1.24213   1
   6   7   0 1.07768 1.29022   2
  -7  -7   0 116.904 6.93527   1
  -8  -7   0 253.545 13.3943   1
  -9  -7   0 214.568 11.4540   1
   9  -8   0 56.2198 8.93654   3
  -9   8   0 65.3659 7.17004   1
   8  -8   0 108.925 11.1256   3
  -8   8   0 127.805 9.44125   1
   7  -8   0 208.864 14.9332   3
  -7   8   0 174.903 12.2292   1
   6  -8   0 160.537 10.8029   1
   6  -8   0 167.464 12.7661   3
  -6   8   0 156.258 10.7512   1
   5  -8   0 349.790 19.6249   1
  -5   8   0 351.641 19.7239   1
   4  -8   0 583.940 30.6620   1
   3  -8   0 440.564 23.5754   1
   2  -8   0 448.281 23.8304   1
  -2   8   0 453.187 23.9463   1
   1  -8   0 136.871 8.79147   1
  -1   8   0 146.373 8.97422   1
   0  -8   0 389.759 22.1583   1
   0   8   0 458.907 22.4907   1
  -1  -8   0 1357.93 65.7738   1
   1   8   0 1338.02 65.8994   2
   1   8   0 1296.95 65.7235   1
  -2  -8   0 797.773 41.5805   1
   2   8   0 893.318 41.9125   2
   2   8   0 801.620 41.5632   1
  -3  -8   0 776.908 38.2464   1
   3   8   0 766.543 38.1718   1
   3   8   0 740.682 38.3265   2
  -4  -8   0 404.787 21.2520   1
   4   8   0 413.576 21.3894   2
  -5  -8   0 270.399 14.5617   1
   5   8   0 270.311 14.7695   2
  -6  -8   0 471.575 24.1572   1
  -8  -8   0 173.535 9.80459   1
  -9  -8   0 70.7240 4.77577   1
   8  -9   0 18.7426 5.82852   3
  -8   9   0 17.7491 4.01827   1
   7  -9   0 168.126 13.7713   3
  -7   9   0 167.163 11.6961   1
   6  -9   0 268.429 16.0350   1
   6  -9   0 250.561 17.8266   3
  -6   9   0 263.409 15.9880   1
   5  -9   0 236.211 14.1809   1
  -5   9   0 220.880 14.0785   1
   4  -9   0 80.0977 6.64012   1
  -4   9   0 68.3691 6.14331   1
   3  -9   0 185.328 11.6646   1
   2  -9   0 418.739 22.6444   1
   1  -9   0 12.2259 2.74510   1
  -1   9   0 11.0349 2.47900   1
   0  -9   0 146.496 9.42161   1
   0   9   0 152.752 9.46170   1
  -1  -9   0 10.0481 2.31635   1
   1   9   0 12.8654 2.69206   2
   1   9   0 12.2037 2.34799   1
  -2  -9   0 640.694 32.2162   1
   2   9   0 584.724 32.1354   2
   2   9   0 663.272 33.1233   1
  -3  -9   0 836.646 41.6318   1
   3   9   0 814.226 41.6927   2
  -4  -9   0 373.070 18.9800   1
   4   9   0 335.881 18.8448   2
  -5  -9   0 54.9988 4.60269   1
  -6  -9   0 55.1801 4.59264   1
  -7  -9   0 150.269 9.01800   1
  -8  -9   0 42.0989 3.87270   1
   7 -10   0 -3.0819 2.86646   3
  -7  10   0 -2.0953 1.92037   1
   6 -10   0 27.1414 5.95803   3
   6 -10   0 14.1512 3.78838   1
  -6  10   0 24.9613 4.31659   1
   5 -10   0 91.4500 7.72612   1
  -5  10   0 89.3458 7.75979   1
   4 -10   0 150.141 10.3349   1
  -4  10   0 138.441 10.0347   1
   3 -10   0 195.967 12.5585   1
   2 -10   0 11.0012 3.08285   1
   1 -10   0 34.0522 4.27837   1
   0 -10   0 17.7089 3.23735   1
  -1 -10   0 5.57932 2.17483   1
   1  10   0 4.47713 2.12746   2
  -2 -10   0 43.6965 4.68785   1
   2  10   0 40.4448 4.55451   2
  -3 -10   0 22.8815 3.33835   1
   3  10   0 16.6536 3.51948   2
  -4 -10   0 194.193 11.5653   1
  -5 -10   0 246.707 14.0890   1
  -6 -10   0 35.8348 4.00133   1
  -7 -10   0 16.4810 2.71429   1
   5 -11   0 40.4036 5.59017   1
  -5  11   0 42.1634 5.63048   1
   4 -11   0 192.720 12.6165   1
  -4  11   0 171.917 12.2360   1
   3 -11   0 389.398 21.0138   1
  -3  11   0 335.000 20.5070   1
   2 -11   0 0.26681 2.27199   1
   1 -11   0 9.00458 2.91141   1
   0 -11   0 21.5978 3.76002   1
   0  11   0 27.2522 4.04832   2
  -1 -11   0 28.3702 4.09154   1
   1  11   0 28.1603 4.03245   2
  -2 -11   0 111.226 8.07885   1
  -3 -11   0 93.8737 7.21922   1
  -4 -11   0 4.25136 2.21665   1
  -5 -11   0 18.6008 3.34164   1
  -6 -11   0 124.315 8.49912   1
   3 -12   0 166.204 12.0312   1
  -3  12   0 173.578 12.9147   1
   2 -12   0 92.9766 8.19916   1
   1 -12   0 243.557 15.3080   1
  -1  12   0 249.594 15.4181   2
   0 -12   0 73.2086 6.94654   1
   0  12   0 76.9932 6.81819   2
  -1 -12   0 58.5055 6.04381   1
  -2 -12   0 58.7871 6.15377   1
  -3 -12   0 116.194 8.56018   1
  -4 -12   0 289.990 16.8332   1
  -3 -12   1 -3.9282 1.67003   1
  -2 -12   1 4.18211 2.76281   1
  -1 -12   1 92.9690 7.77546   1
   0  12  -1 31.5009 5.04434   2
   0 -12   1 34.1118 4.98248   1
  -1  12  -1 50.1017 6.18833   2
   1 -12   1 45.3815 5.81215   1
   2 -12   1 64.4865 6.95527   1
  -5 -11   1 41.8718 4.57941   1
  -4 -11   1 17.6000 3.15920   1
  -3 -11   1 -0.8732 1.77238   1
  -2 -11   1 19.2556 3.49447   1
   1  11  -1 6.14216 2.71897   2
  -1 -11   1 -0.1129 1.95524   1
   0  11  -1 141.937 10.0486   2
   0 -11   1 138.300 9.87858   1
  -1  11  -1 137.880 9.70203   2
   1 -11   1 114.717 9.11554   1
   2 -11   1 111.387 8.82662   1
  -3  11  -1 2.98588 2.10056   1
   3 -11   1 2.99833 2.62822   1
  -4  11  -1 5.56085 2.78119   1
   4 -11   1 7.44254 3.22467   1
  -5  11  -1 7.95356 2.96417   1
   5 -11   1 1.62629 2.83425   1
  -7 -10   1 276.461 15.2014   1
  -6 -10   1 301.698 16.5677   1
  -5 -10   1 150.921 9.47220   1
  -4 -10   1 139.914 9.01862   1
   3  10  -1 148.519 9.49683   2
  -3 -10   1 133.532 9.10164   1
   2  10  -1 355.120 19.7852   2
  -2 -10   1 351.261 19.3761   1
   1  10  -1 166.388 11.2998   2
  -1 -10   1 191.928 11.3024   1
   0  10  -1 25.4691 4.02949   2
   0 -10   1 11.7680 3.06674   1
  -1  10  -1 92.3572 7.04385   1
   1 -10   1 85.2932 7.12217   1
  -2  10  -1 553.315 28.5818   1
   2 -10   1 505.443 28.4002   1
  -3  10  -1 452.941 24.1354   1
   3 -10   1 410.954 23.9001   1
  -4  10  -1 85.7182 7.33863   1
   4 -10   1 80.8258 7.34634   1
  -5  10  -1 -0.0650 2.26320   1
   5 -10   1 4.40527 2.79715   1
  -6  10  -1 10.7095 3.22835   1
   6 -10   1 6.52202 3.20818   1
   6 -10   1 11.6127 4.71999   3
  -8  -9   1 85.3407 5.67755   1
  -7  -9   1 230.858 12.7375   1
  -6  -9   1 458.259 23.7607   1
  -5  -9   1 634.710 32.3259   1
   4   9  -1 313.259 17.4483   2
  -4  -9   1 315.326 17.0655   1
   3   9  -1 79.1118 6.33302   2
  -3  -9   1 86.0780 6.13208   1
   2   9  -1 288.303 16.2809   2
  -2  -9   1 287.406 15.9644   1
   1   9  -1 319.447 17.3516   2
  -1  -9   1 291.259 16.7737   1
   0   9  -1 410.492 22.4781   2
   0  -9   1 412.691 22.1295   1
   1  -9   1 439.438 23.6688   1
  -2   9  -1 381.395 21.7993   1
   2  -9   1 421.255 22.1008   1
  -3   9  -1 530.700 29.3764   1
   3  -9   1 575.994 29.6438   1
  -4   9  -1 219.676 13.5580   1
   4  -9   1 214.208 13.4822   1
  -5   9  -1 182.863 11.8280   1
   5  -9   1 169.355 11.7871   1
  -6   9  -1 -0.2559 2.09390   1
   6  -9   1 -5.6688 2.40878   3
   6  -9   1 -0.6513 2.29433   1
  -7   9  -1 36.6383 5.37423   1
   7  -9   1 39.0890 7.24052   3
  -8  -8   1 148.181 8.39051   1
  -7  -8   1 204.377 11.2254   1
  -6  -8   1 100.372 6.38388   1
   5   8  -1 261.609 14.9797   2
  -5  -8   1 272.736 14.4615   1
   4   8  -1 100.336 7.02520   2
  -4  -8   1 103.722 6.64916   1
   3   8  -1 477.579 25.1630   2
  -3  -8   1 478.434 24.7038   1
   2   8  -1 26.9053 3.50498   2
  -2  -8   1 28.3231 3.30974   1
   1   8  -1 69.7509 5.38527   2
  -1  -8   1 62.2964 5.05056   1
   0  -8   1 -2.5730 1.16379   1
   1  -8   1 203.230 11.9843   1
  -2   8  -1 1046.49 51.0649   1
   2  -8   1 979.461 50.9898   1
  -3   8  -1 156.948 10.1440   1
   3  -8   1 159.089 10.2315   1
  -4   8  -1 5.25862 2.21928   1
   4  -8   1 2.77736 2.19072   1
  -5   8  -1 6.08485 2.31924   1
   5  -8   1 2.83445 2.30792   1
  -6   8  -1 5.17911 2.64108   1
   6  -8   1 5.93946 2.83770   1
   6  -8   1 11.1818 4.18855   3
  -7   8  -1 104.943 8.50174   1
   7  -8   1 107.709 10.5196   3
  -8   8  -1 -3.5060 1.89020   1
   8  -8   1 1.49647 3.03657   3
  -8  -7   1 34.6227 2.85091   1
  -7  -7   1 53.0898 3.76075   1
   6   7  -1 359.425 19.6277   2
  -6  -7   1 368.315 18.7123   1
   5   7  -1 -0.3871 1.09757   2
  -5  -7   1 -0.0508 0.97289   1
   4   7  -1 7.67953 1.88045   2
  -4  -7   1 8.90276 1.72143   1
   3   7  -1 32.8935 3.70230   2
  -3  -7   1 33.7241 3.06673   1
  -3  -7   1 30.0702 3.97609   1
   2   7  -1 54.2678 4.40906   2
  -2  -7   1 54.8311 4.01675   1
  -2  -7   1 48.9144 3.99403   1
   1   7  -1 211.050 11.8403   2
  -1  -7   1 196.709 11.3834   1
   0  -7   1 64.2542 4.86583   1
   1  -7   1 6.41159 1.87477   1
   2  -7   1 220.033 12.6712   1
  -3   7  -1 229.652 13.2731   1
   3  -7   1 228.803 13.3164   1
  -4   7  -1 290.633 16.5858   1
   4  -7   1 296.355 16.5864   1
  -5   7  -1 9.07996 2.55961   1
   5  -7   1 7.37551 2.46314   1
   5  -7   1 2.43486 2.26867   3
  -6   7  -1 5.54664 2.56518   1
   6  -7   1 4.89555 2.44482   1
   6  -7   1 7.30538 3.29073   3
  -7   7  -1 -1.0428 1.70209   1
   7  -7   1 0.42647 2.90893   3
   7  -7   1 -2.0328 1.72722   1
  -8   7  -1 6.84060 2.96933   1
   8  -7   1 15.7549 4.55503   3
  -9   7  -1 25.8318 4.50778   1
   9  -7   1 31.6822 6.76229   3
  -9  -6   1 103.429 6.01069   1
  -8  -6   1 83.8638 4.85335   1
   7   6  -1 19.9733 2.96005   2
  -7  -6   1 12.7778 1.66293   1
   6   6  -1 125.424 8.27839   2
  -6  -6   1 136.850 7.37397   1
   5   6  -1 119.317 7.55768   2
  -5  -6   1 114.169 6.69913   1
  -5  -6   1 121.786 7.26283   1
   4   6  -1 1472.31 71.8847   2
  -4  -6   1 1448.54 71.2774   1
  -4  -6   1 1464.60 71.2505   1
   3   6  -1 129.808 7.51129   1
   3   6  -1 138.227 8.08316   2
  -3  -6   1 140.183 7.62023   1
  -3  -6   1 124.703 7.53923   1
   2   6  -1 36.3806 3.29147   2
   2   6  -1 35.0320 2.92529   1
  -2  -6   1 32.1009 2.79085   1
  -2  -6   1 29.0619 2.78703   1
   1   6  -1 86.1860 5.28836   1
   1   6  -1 76.3857 5.45296   2
  -1  -6   1 81.9317 5.17453   1
  -1  -6   1 75.1595 5.12908   1
   0  -6   1 49.3533 3.85213   1
   1  -6   1 937.027 46.5974   1
   2  -6   1 197.356 11.3001   1
  -3   6  -1 342.521 18.7039   1
   3  -6   1 354.604 18.7936   1
  -4   6  -1 401.761 21.0748   1
   4  -6   1 381.128 20.9209   1
  -5   6  -1 515.057 28.6759   1
   5  -6   1 553.808 30.2860   3
   5  -6   1 579.333 28.9293   1
  -6   6  -1 329.030 19.7220   1
   6  -6   1 356.995 19.8831   1
   6  -6   1 393.697 21.8873   3
  -7   6  -1 15.5210 3.28273   1
   7  -6   1 17.2254 4.72494   3
   7  -6   1 14.5968 3.12760   1
  -8   6  -1 49.5863 5.79793   1
   8  -6   1 56.0482 7.98337   3
  -9   6  -1 30.4074 4.69530   1
   9  -6   1 25.2559 6.07467   3
 -10   6  -1 254.604 16.3907   1
  10  -6   1 277.232 19.6581   3
  -9  -5   1 64.1449 3.60998   1
  -8  -5   1 42.3691 2.74249   1
  -7  -5   1 332.004 16.6461   1
   6   5  -1 88.0443 6.04838   2
  -6  -5   1 89.4104 5.06942   1
  -6  -5   1 81.4561 4.86673   1
   5   5  -1 316.215 15.8065   2
  -5  -5   1 286.362 14.8212   1
  -5  -5   1 272.828 14.6757   1
   4   5  -1 716.171 36.3666   2
  -4  -5   1 696.191 35.6233   1
  -4  -5   1 762.954 35.7557   1
   3   5  -1 1183.77 58.3686   2
   3   5  -1 1250.39 57.8749   1
  -3  -5   1 1143.22 57.8381   1
  -3  -5   1 1168.70 57.8556   1
   2   5  -1 2272.09 109.822   1
   2   5  -1 2262.93 110.232   2
  -2  -5   1 2240.97 109.822   1
  -2  -5   1 2293.05 109.830   1
   1   5  -1 113.750 7.02729   2
   1   5  -1 115.355 6.74638   1
  -1  -5   1 114.926 6.69889   1
  -1  -5   1 122.635 6.78246   1
   0   5  -1 0.23489 0.82147   1
   0  -5   1 -0.1307 0.78415   1
   0  -5   1 0.26281 0.86249   1
   1  -5   1 9.36057 1.72748   1
   2  -5   1 2019.65 98.5019   1
  -3   5  -1 1432.02 72.3767   1
   3  -5   1 1512.88 72.4578   1
  -4   5  -1 749.413 38.6359   1
   4  -5   1 775.791 37.0258   4
   4  -5   1 765.637 38.6696   1
  -5   5  -1 196.668 11.7669   1
   5  -5   1 199.253 13.0871   3
   5  -5   1 207.520 11.8738   1
  -6   5  -1 392.910 21.2558   1
   6  -5   1 404.112 21.2429   1
   6  -5   1 378.205 22.6843   3
  -7   5  -1 351.683 19.4635   1
   7  -5   1 357.359 19.3753   1
   7  -5   1 332.529 21.0397   3
  -8   5  -1 98.6467 7.54960   1
   8  -5   1 88.4122 9.08501   3
  -9   5  -1 13.2909 3.25942   1
   9  -5   1 9.96886 4.65761   3
 -10   5  -1 127.779 9.81078   1
  10  -5   1 159.204 13.3631   3
  -9  -4   1 78.6606 4.27548   1
  -8  -4   1 -0.1434 0.52637   1
  -7  -4   1 7.11488 0.97410   1
  -7  -4   1 8.26999 1.06464   1
   6   4  -1 61.8111 4.74712   2
  -6  -4   1 61.1834 3.50251   1
  -6  -4   1 58.8961 3.62115   1
   5   4  -1 863.824 44.1686   2
  -5  -4   1 878.768 43.2324   1
  -5  -4   1 914.256 43.1300   1
   4   4  -1 332.894 17.4322   2
  -4  -4   1 343.426 16.6296   1
  -4  -4   1 322.034 16.6365   1
   3   4  -1 280.841 14.1181   1
   3   4  -1 272.369 14.7299   2
  -3  -4   1 280.005 14.1848   1
  -3  -4   1 288.849 14.1877   1
   2   4  -1 0.57355 0.62993   1
   2   4  -1 0.94708 0.87691   2
  -2  -4   1 0.14436 0.59521   1
  -2  -4   1 1.69211 0.73382   1
   1   4  -1 38.2711 2.88450   1
   1   4  -1 44.9727 3.26202   2
  -1  -4   1 42.4435 2.94526   1
  -1  -4   1 44.9066 2.96784   1
   0   4  -1 455.523 23.3986   1
   0  -4   1 476.083 23.3854   1
   0  -4   1 467.340 23.4086   1
   1  -4   1 31.1218 2.58283   1
   1  -4   1 30.3885 2.64731   1
   2  -4   1 1.08265 1.14056   1
  -3   4  -1 184.721 9.87797   1
   3  -4   1 161.599 9.68203   1
  -4   4  -1 659.481 33.4602   1
   4  -4   1 628.445 34.3422   3
   4  -4   1 696.976 33.5580   1
  -5   4  -1 68.4740 5.06338   1
   5  -4   1 64.6568 5.02524   1
   5  -4   1 64.6566 5.81742   3
  -6   4  -1 7.66148 2.07200   1
   6  -4   1 9.57804 3.09552   3
   6  -4   1 4.80597 2.01953   1
  -7   4  -1 9.62926 2.49117   1
   7  -4   1 10.4100 2.48701   1
   7  -4   1 9.43600 3.60407   3
  -8   4  -1 51.9825 5.68393   1
   8  -4   1 77.6611 7.87211   3
  -9   4  -1 143.137 9.53436   1
   9  -4   1 128.623 11.1478   3
 -10   4  -1 38.6500 4.80650   1
  10  -4   1 36.9649 7.05666   3
 -11   4  -1 17.3796 3.60271   1
  11  -4   1 8.72413 5.31607   3
  11   3  -1 0.65084 3.47545   3
  10   3  -1 1.44969 3.25077   3
 -10  -3   1 7.06468 1.09033   1
   9   3  -1 47.3105 6.58658   3
  -9  -3   1 50.7349 3.07059   1
   8   3  -1 13.6268 3.39795   3
  -8  -3   1 13.6015 1.34282   1
   7   3  -1 103.866 8.35416   3
  -7  -3   1 108.764 5.74200   1
  -7  -3   1 109.587 5.80561   1
   6   3  -1 1.59456 1.40661   3
  -6  -3   1 1.64117 0.53632   1
  -6  -3   1 1.63095 0.58872   1
   5   3  -1 52.4728 4.01898   2
  -5  -3   1 60.0977 3.11601   1
  -5  -3   1 45.6209 2.89168   1
   4   3  -1 36.2707 2.14926   1
   4   3  -1 36.2363 3.19551   2
  -4  -3   1 42.9161 2.32502   1
  -4  -3   1 37.8364 2.36423   1
   3   3  -1 1531.34 74.2331   2
   3   3  -1 1540.98 73.5836   1
   3   3  -1 1481.44 73.4658   1
  -3  -3   1 1558.42 73.7897   1
  -3  -3   1 1503.31 74.1009   2
   2   3  -1 27.5626 1.88464   1
   2   3  -1 25.1540 2.38212   2
  -2  -3   1 32.0629 2.38820   2
  -2  -3   1 29.3282 1.98974   1
  -2  -3   1 32.7502 2.04116   1
   1   3  -1 48.6953 3.14658   1
   1   3  -1 50.4020 3.43596   2
   1   3  -1 49.7944 3.06853   1
  -1  -3   1 52.0758 3.15420   1
  -1  -3   1 56.7852 3.19659   1
   0   3  -1 204.020 10.7296   1
   0  -3   1 205.975 10.7849   1
   0  -3   1 216.622 10.8325   1
  -1   3  -1 1347.31 65.1244   1
   1  -3   1 1357.54 65.1742   1
   1  -3   1 1312.29 65.1875   1
  -2   3  -1 113.487 6.26699   1
  -2   3  -1 95.9772 6.24955   1
   2  -3   1 119.955 6.45133   1
  -3   3  -1 1003.65 47.3227   1
  -3   3  -1 971.638 47.4490   1
   3  -3   1 909.544 47.3592   1
  -4   3  -1 194.718 10.6676   1
  -4   3  -1 180.664 10.4388   1
   4  -3   1 193.126 10.5309   1
   4  -3   1 184.788 11.2798   3
  -5   3  -1 421.785 22.0324   1
   5  -3   1 425.439 23.3082   3
   5  -3   1 425.661 22.0229   1
  -6   3  -1 423.560 23.3878   1
   6  -3   1 488.919 23.5535   1
   6  -3   1 436.514 25.0243   3
  -7   3  -1 15.9051 2.71425   1
   7  -3   1 10.2520 2.29457   1
   7  -3   1 21.9237 4.35092   3
  -8   3  -1 169.578 10.4833   1
   8  -3   1 162.183 12.0954   3
  -9   3  -1 79.8210 6.49363   1
   9  -3   1 90.0098 8.99799   3
 -10   3  -1 85.9840 6.80941   1
  10  -3   1 73.1604 9.57783   3
 -11   3  -1 53.7292 5.65265   1
  11  -3   1 50.9401 8.37856   3
  11   2  -1 99.8862 10.2522   3
  10   2  -1 147.012 11.6575   3
 -10  -2   1 125.949 7.14922   1
   9   2  -1 81.1401 7.81109   3
  -9  -2   1 83.4379 4.85679   1
   8   2  -1 19.8235 4.23317   3
  -8  -2   1 18.9918 1.81134   1
  -8  -2   1 25.7801 1.85790   1
   7   2  -1 273.192 15.4380   3
  -7  -2   1 240.832 12.3332   1
  -7  -2   1 234.635 12.3431   1
   6   2  -1 277.810 17.0721   3
  -6  -2   1 306.774 14.9001   1
  -6  -2   1 305.741 14.8835   1
   5   2  -1 1374.12 62.2947   3
  -5  -2   1 1187.81 59.9364   1
  -5  -2   1 1181.23 59.9025   1
   4   2  -1 1108.84 55.8098   3
   4   2  -1 940.063 54.9224   2
  -4  -2   1 1285.02 54.4877   1
  -4  -2   1 1144.87 54.1170   1
   3   2  -1 4309.65 212.832   2
   3   2  -1 4570.05 212.533   1
   3   2  -1 4225.41 213.483   3
  -3  -2   1 4360.05 212.196   2
  -3  -2   1 4879.10 219.717   1
  -3  -2   1 3949.73 217.381   1
   2   2  -1 297.490 14.1079   1
   2   2  -1 281.688 14.6640   2
  -2  -2   1 283.678 14.5911   2
  -2  -2   1 290.895 15.0952   3
  -2  -2   1 296.234 14.1611   1
  -2  -2   1 278.403 14.1347   1
   1   2  -1 1783.73 87.1365   2
   1   2  -1 1798.71 94.1774   1
  -1  -2   1 1751.50 86.7115   1
  -1  -2   1 1842.99 87.2634   2
  -1  -2   1 1739.39 95.0106   1
   0   2  -1 94.8890 5.47962   1
   0  -2   1 107.786 5.58552   1
   0  -2   1 109.698 5.58132   1
  -1   2  -1 206.783 10.6538   1
  -1   2  -1 213.291 10.7515   1
   1  -2   1 219.423 10.7494   1
   1  -2   1 194.953 10.6931   1
  -2   2  -1 358.632 18.0340   1
  -2   2  -1 361.306 17.9520   1
   2  -2   1 376.154 18.0479   1
   2  -2   1 333.792 17.9864   1
  -3   2  -1 1970.02 96.3033   1
  -3   2  -1 1902.62 96.1402   1
   3  -2   1 2097.37 96.3432   1
   3  -2   1 1969.57 96.9766   3
  -4   2  -1 1168.57 54.5391   1
  -4   2  -1 1079.56 54.2524   1
   4  -2   1 1108.02 54.4119   1
   4  -2   1 1077.88 55.3462   3
  -5   2  -1 1238.50 62.9584   1
  -5   2  -1 1307.14 62.8169   1
   5  -2   1 1274.73 64.3802   3
   5  -2   1 1307.88 62.9536   1
  -6   2  -1 429.130 20.0337   1
  -6   2  -1 362.994 20.0325   1
   6  -2   1 372.250 21.6257   3
   6  -2   1 373.264 20.0091   1
  -7   2  -1 401.881 22.5371   1
  -7   2  -1 458.124 22.4526   1
   7  -2   1 450.542 24.7916   3
   7  -2   1 424.869 22.4728   1
  -8   2  -1 108.550 7.62399   1
   8  -2   1 143.007 10.4911   3
  -9   2  -1 19.7335 3.07285   1
   9  -2   1 19.9875 4.83928   3
 -10   2  -1 4.55595 2.19754   1
  10  -2   1 6.92512 4.03570   3
 -11   2  -1 25.7962 3.87567   1
  11  -2   1 25.7251 5.91858   3
  11   1  -1 119.583 11.1525   3
 -11  -1   1 109.812 6.62647   1
  10   1  -1 474.060 27.0263   3
 -10  -1   1 430.561 22.5842   1
   9   1  -1 307.266 19.4697   3
  -9  -1   1 311.963 15.9942   1
   8   1  -1 209.605 13.8486   3
  -8  -1   1 211.303 11.0790   1
   7   1  -1 19.1728 3.75201   3
  -7  -1   1 19.2183 1.64099   1
  -7  -1   1 18.5227 1.73910   1
   6   1  -1 211.268 13.3551   3
  -6  -1   1 215.920 11.2060   1
  -6  -1   1 228.927 11.1403   1
   5   1  -1 110.591 7.80931   3
  -5  -1   1 116.296 6.01776   1
  -5  -1   1 118.675 6.06463   1
   4   1  -1 4729.07 250.086   3
  -4  -1   1 5333.28 256.127   1
  -4  -1   1 5339.67 251.929   1
   3   1  -1 6399.85 339.751   3
  -3  -1   1 6456.47 306.909   1
  -3  -1   1 6775.75 307.601   1
  -3  -1   1 6069.50 305.586   3
  -3  -1   1 5856.79 304.501   2
   2   1  -1 8144.24 438.715   2
   2   1  -1 9588.78 442.344   3
  -2  -1   1 8844.84 417.162   1
  -2  -1   1 8386.12 416.781   1
  -2  -1   1 8107.36 437.504   2
   1   1  -1 2993.97 150.965   2
  -1  -1   1 3431.19 156.729   1
  -1  -1   1 2982.25 150.991   2
   0   1  -1 1326.25 74.3091   1
   0   1  -1 1395.79 68.4227   1
   0  -1   1 1403.10 74.6564   1
   0  -1   1 1522.60 75.2344   1
  -1   1  -1 1249.08 60.4731   1
  -1   1  -1 1106.83 56.9085   1
   1  -1   1 1077.04 56.8978   1
   1  -1   1 1337.81 60.2219   1
  -2   1  -1 4203.54 205.461   1
  -2   1  -1 3867.45 201.245   1
   2  -1   1 3792.11 186.373   3
   2  -1   1 3914.45 185.319   1
   2  -1   1 3461.36 189.910   1
  -3   1  -1 186.620 10.0368   3
  -3   1  -1 176.326 9.37709   1
  -3   1  -1 169.699 9.38983   1
   3  -1   1 171.403 9.27859   1
   3  -1   1 174.795 9.40419   1
   3  -1   1 195.480 10.2161   3
  -4   1  -1 1315.96 61.7555   1
  -4   1  -1 1256.18 61.5958   1
   4  -1   1 1274.65 62.7652   3
   4  -1   1 1210.79 61.6502   1
  -5   1  -1 2678.90 127.097   1
  -5   1  -1 2573.40 127.208   1
   5  -1   1 2654.01 128.643   3
   5  -1   1 2595.45 127.143   1
  -6   1  -1 1156.33 59.1835   1
  -6   1  -1 1302.73 59.4604   1
   6  -1   1 1207.11 61.1223   3
   6  -1   1 1166.49 59.2541   1
  -7   1  -1 108.361 6.66746   1
  -7   1  -1 114.510 6.50578   1
   7  -1   1 99.2436 6.47124   1
   7  -1   1 90.6504 8.22296   3
  -8   1  -1 3.74672 1.48766   1
   8  -1   1 -0.5298 2.38935   3
  -9   1  -1 341.414 18.1889   1
   9  -1   1 325.879 20.6846   3
  10  -1   1 136.834 11.8638   3
 -11   1  -1 242.444 13.9400   1
  11  -1   1 222.705 17.0491   3
  12   0  -1 211.917 16.4637   3
 -12   0   1 207.789 11.7200   1
  11   0  -1 69.8813 9.21490   3
 -11   0   1 88.0207 5.67679   1
  10   0  -1 279.378 18.0731   3
 -10   0   1 246.996 13.8581   1
   9   0  -1 11.0361 3.85806   3
  -9   0   1 13.8007 2.00619   1
   8   0  -1 348.576 21.9647   3
  -8   0   1 398.422 19.3809   1
   7   0  -1 207.995 13.3898   3
   7   0  -1 211.693 10.5790   1
  -7   0   1 213.316 10.7982   1
  -7   0   1 194.939 10.8607   1
   6   0  -1 242.550 11.4964   1
   6   0  -1 228.171 13.8816   3
  -6   0   1 216.466 11.5621   1
  -6   0   1 221.694 11.6834   1
   5   0  -1 84.0845 6.18449   3
   5   0  -1 83.3913 4.50071   1
  -5   0   1 81.5683 4.57240   1
  -5   0   1 86.8062 4.67903   1
   4   0  -1 2001.07 104.555   3
   4   0  -1 2303.52 103.412   1
   4   0  -1 2097.79 107.670   1
  -4   0   1 2054.38 111.789   1
  -4   0   1 2231.87 111.267   1
   3   0  -1 19.4600 1.18821   1
   3   0  -1 19.0080 1.13606   1
   3   0  -1 18.0721 2.39313   3
  -3   0   1 18.7138 1.23221   1
  -3   0   1 19.0276 1.24649   1
  -3   0   1 23.4872 2.59850   3
  -3   0   1 21.8075 1.96278   2
   2   0  -1 1715.42 86.1184   2
   2   0  -1 1720.79 86.4020   3
   2   0  -1 1846.10 87.8066   1
   2   0  -1 1842.80 86.8382   1
  -2   0   1 1753.43 89.2700   1
  -2   0   1 1691.64 89.3077   1
  -2   0   1 1772.89 86.3557   3
  -2   0   1 1821.15 86.0735   2
   1   0  -1 927.393 47.1579   1
   1   0  -1 903.341 47.2675   1
   1   0  -1 971.281 45.4731   3
  -1   0   1 969.022 45.4726   3
  -1   0   1 890.734 45.4340   2
  -1   0   1 983.541 45.2917   1
  -1   0   1 906.533 45.2775   1
   0   0  -1 1259.76 57.6424   2
   0   0  -1 1042.18 59.3106   1
   0   0   1 1183.16 57.5168   1
   0   0   1 1223.21 57.4461   1
  -1   0  -1 778.040 40.0806   3
  -1   0  -1 742.792 39.9732   1
  -1   0  -1 881.022 40.0489   1
   1   0   1 873.107 40.0157   1
   1   0   1 815.843 40.1264   3
   1   0   1 866.729 40.2567   1
  -2   0  -1 197.616 9.67276   1
  -2   0  -1 174.793 9.60215   1
  -2   0  -1 187.414 10.0253   3
   2   0   1 194.445 9.66438   1
   2   0   1 191.845 10.0799   3
   2   0   1 190.138 9.61140   1
  -3   0  -1 613.435 29.4132   3
  -3   0  -1 590.508 28.6845   1
  -3   0  -1 582.109 28.6579   1
   3   0   1 567.115 28.5922   1
   3   0   1 582.574 28.6199   4
   3   0   1 565.233 29.4029   3
   3   0   1 578.286 28.6628   1
  -4   0  -1 39.0547 2.63958   1
  -4   0  -1 33.6674 2.60773   1
   4   0   1 36.7827 2.63516   1
   4   0   1 36.4752 3.43497   3
  -5   0  -1 523.985 28.8530   1
  -5   0  -1 653.830 29.0102   1
   5   0   1 588.978 30.4189   3
   5   0   1 558.644 28.8429   1
  -6   0  -1 26.2088 2.78225   1
  -6   0  -1 34.8058 2.70561   1
   6   0   1 29.7048 4.10465   3
   6   0   1 30.0629 2.64786   1
  -7   0  -1 449.165 22.7393   1
  -7   0  -1 434.180 22.8783   1
   7   0   1 443.911 22.7403   1
   7   0   1 461.822 25.1463   3
  -8   0  -1 139.005 8.57146   1
   8   0   1 155.400 11.2133   3
  -9   0  -1 5.90866 1.86324   1
   9   0   1 3.94039 2.70894   3
 -10   0  -1 -1.5589 1.33773   1
  10   0   1 1.14505 2.98030   3
 -11   0  -1 112.461 8.03652   1
  11   0   1 142.008 12.0247   3
 -12   0  -1 43.2139 4.50736   1
  12   0   1 33.2103 7.12230   3
  11  -1  -1 2.07024 4.02497   3
 -11   1   1 5.13545 1.66946   1
  10  -1  -1 216.863 15.9076   3
 -10   1   1 219.276 12.3129   1
   9  -1  -1 25.1268 5.29822   3
  -9   1   1 16.0085 2.36660   1
   8  -1  -1 19.2638 4.16990   3
  -8   1   1 16.1600 2.17125   1
   7  -1  -1 19.2297 2.04237   1
   7  -1  -1 22.5865 3.97932   3
  -7   1   1 24.3020 2.16833   1
  -7   1   1 23.4270 2.41044   1
   6  -1  -1 0.91212 1.81629   3
   6  -1  -1 1.96298 0.85818   1
  -6   1   1 3.88502 1.10134   1
  -6   1   1 3.59228 0.92671   1
  -6   1   1 6.40215 1.29396   4
   5  -1  -1 645.046 31.3767   3
  -5   1   1 567.442 29.3540   1
  -5   1   1 588.685 29.4575   1
   4  -1  -1 1.59774 1.42580   3
  -4   1   1 2.29991 0.64666   1
   3  -1  -1 0.01707 0.20075   1
   3  -1  -1 0.70816 0.40369   1
   3  -1  -1 0.22598 0.81181   3
  -3   1   1 0.64748 0.41712   1
  -3   1   1 1.41365 0.51368   1
  -3   1   1 2.85291 1.19658   3
   2  -1  -1 219.099 10.6557   1
   2  -1  -1 213.576 11.3040   3
   2  -1  -1 207.906 10.6204   1
  -2   1   1 211.848 10.6503   1
  -2   1   1 202.996 10.6487   1
  -2   1   1 235.240 11.3158   3
   1  -1  -1 415.663 20.5454   1
   1  -1  -1 408.635 20.8117   3
   1  -1  -1 407.899 20.5517   1
  -1   1   1 455.348 20.5823   1
  -1   1   1 426.274 20.5568   1
   0  -1  -1 537.568 23.9753   1
   0  -1  -1 500.215 24.1519   2
   0  -1  -1 445.876 23.9063   1
   0   1   1 504.715 24.0944   2
   0   1   1 483.486 23.9387   1
   0   1   1 487.128 23.9344   1
  -1  -1  -1 7.39297 0.93643   3
  -1  -1  -1 6.33364 0.75366   1
  -1  -1  -1 7.12107 0.76179   1
   1   1   1 6.84359 0.76630   1
   1   1   1 7.52300 0.90784   3
   1   1   1 5.82986 0.71116   1
  -2  -1  -1 4.55822 0.75407   1
  -2  -1  -1 4.31640 1.15562   3
  -2  -1  -1 3.46915 0.71877   1
   2   1   1 4.59069 1.16397   3
   2   1   1 4.99880 0.76313   1
   2   1   1 5.65347 0.99060   4
   2   1   1 5.65394 0.77583   1
  -3  -1  -1 505.157 25.8174   1
  -3  -1  -1 512.937 26.5959   3
  -3  -1  -1 544.001 25.8492   1
   3   1   1 521.894 25.8033   1
   3   1   1 582.253 25.8209   1
   3   1   1 507.082 26.6102   3
   3   1   1 498.004 26.0393   4
  -4  -1  -1 1418.10 67.3527   1
  -4  -1  -1 1347.80 67.2853   1
   4   1   1 1423.80 68.5503   3
   4   1   1 1358.02 67.2586   1
  -5  -1  -1 843.449 42.3514   1
  -5  -1  -1 876.990 42.3511   1
   5   1   1 878.419 42.2888   1
   5   1   1 849.168 43.8206   3
  -6  -1  -1 118.293 6.49789   1
   6   1   1 124.179 8.38439   3
   6   1   1 94.6223 6.12208   1
  -7  -1  -1 26.9725 2.69367   1
  -7  -1  -1 27.5789 2.78911   1
   7   1   1 24.5889 4.05966   3
  -8  -1  -1 3.81501 1.39053   1
   8   1   1 5.89220 2.55098   3
  -9  -1  -1 22.3576 2.85778   1
   9   1   1 20.1793 4.49781   3
 -10  -1  -1 14.4455 2.45202   1
  10   1   1 14.2594 4.42937   3
 -11  -1  -1 14.5635 2.52182   1
  11   1   1 14.1007 4.45420   3
 -12  -1  -1 6.86579 2.04543   1
  12   1   1 8.45218 4.04377   3
  11  -2  -1 159.235 13.1846   3
 -11   2   1 126.706 8.73510   1
  10  -2  -1 9.47054 4.61798   3
 -10   2   1 13.1655 2.39511   1
   9  -2  -1 262.376 17.5036   3
  -9   2   1 273.601 14.7471   1
   8  -2  -1 292.269 19.4821   3
  -8   2   1 344.641 17.2211   1
   7  -2  -1 -3.0967 1.56065   3
   7  -2  -1 -1.1664 0.73030   1
  -7   2   1 -0.1494 0.76048   1
  -7   2   1 -0.3259 0.93289   1
   6  -2  -1 -0.3984 1.64130   3
   6  -2  -1 -0.5012 0.69568   1
  -6   2   1 -0.8310 0.61859   1
  -6   2   1 1.00760 0.67730   4
  -6   2   1 -0.6895 0.80455   1
   5  -2  -1 64.6187 4.29660   1
   5  -2  -1 69.7724 5.76263   3
  -5   2   1 70.8339 4.01816   4
  -5   2   1 73.8404 4.36949   1
  -5   2   1 73.9072 4.47834   1
   4  -2  -1 294.181 17.0767   3
   4  -2  -1 313.020 15.8689   1
  -4   2   1 329.936 15.9126   1
   3  -2  -1 1359.98 66.8528   1
   3  -2  -1 1334.14 67.7617   3
   3  -2  -1 1369.20 67.0251   1
  -3   2   1 1362.18 66.8513   1
  -3   2   1 1468.43 66.9602   1
   2  -2  -1 1122.29 49.2993   3
   2  -2  -1 948.368 48.5382   1
   2  -2  -1 1011.91 48.6041   1
  -2   2   1 945.793 48.5535   1
  -2   2   1 980.366 48.6048   1
   1  -2  -1 1296.62 64.1013   1
   1  -2  -1 1394.93 60.8318   1
  -1   2   1 1281.44 61.2760   1
  -1   2   1 1068.62 60.7244   1
   0  -2  -1 88.2315 4.81248   1
   0  -2  -1 97.5833 4.82111   1
   0   2   1 94.8530 4.82702   1
   0   2   1 88.4512 4.88196   4
   0   2   1 83.9614 4.76687   1
  -1  -2  -1 393.986 19.2423   1
  -1  -2  -1 365.220 19.1899   1
  -1  -2  -1 403.725 19.5120   4
   1   2   1 416.666 19.0541   2
   1   2   1 373.095 19.1919   1
   1   2   1 389.258 19.4640   4
   1   2   1 392.083 19.2245   1
  -2  -2  -1 1.42229 0.92657   3
  -2  -2  -1 0.91379 0.55105   1
  -2  -2  -1 1.27096 0.65952   4
  -2  -2  -1 1.43954 0.54653   1
  -2  -2  -1 2.20091 0.44367   2
   2   2   1 1.47600 0.74758   4
   2   2   1 1.16101 0.49812   1
   2   2   1 1.15544 0.54108   1
   2   2   1 1.39520 0.79381   3
  -3  -2  -1 379.874 20.9395   1
  -3  -2  -1 435.240 20.9841   2
  -3  -2  -1 404.248 21.4374   4
  -3  -2  -1 415.635 21.0472   1
  -3  -2  -1 467.194 22.1006   3
   3   2   1 447.024 21.9608   3
   3   2   1 435.997 21.0025   1
   3   2   1 421.412 20.9594   1
  -4  -2  -1 1723.69 79.8633   1
  -4  -2  -1 1748.30 79.9195   1
  -4  -2  -1 1558.50 79.8893   2
   4   2   1 1511.34 79.6807   1
   4   2   1 1703.34 81.1193   3
  -5  -2  -1 0.13842 0.57156   1
  -5  -2  -1 0.89611 0.65836   1
  -5  -2  -1 0.42677 0.73059   2
   5   2   1 -1.5102 1.24597   3
   5   2   1 0.30052 0.13690   1
  -6  -2  -1 2020.85 101.089   1
  -6  -2  -1 2098.97 101.149   1
   6   2   1 2050.63 103.023   3
   6   2   1 2167.14 100.943   1
  -7  -2  -1 539.049 27.5419   1
  -7  -2  -1 553.309 27.5051   1
   7   2   1 561.635 27.2458   1
   7   2   1 534.257 29.6803   3
  -8  -2  -1 430.439 22.2648   1
   8   2   1 438.707 24.9568   3
  -9  -2  -1 17.4113 2.42099   1
   9   2   1 14.8977 3.77054   3
 -10  -2  -1 52.1951 4.13936   1
  10   2   1 38.9251 6.57143   3
 -11  -2  -1 106.048 6.95288   1
  11   2   1 111.689 10.6690   3
  11  -3  -1 493.996 31.4136   3
 -11   3   1 545.917 27.8541   1
  10  -3  -1 377.637 23.6502   3
 -10   3   1 363.359 19.9833   1
   9  -3  -1 346.241 21.0224   3
  -9   3   1 306.820 17.5484   1
   8  -3  -1 48.7294 6.72677   3
  -8   3   1 45.6336 4.16861   1
   7  -3  -1 147.280 8.35877   1
   7  -3  -1 134.997 10.4188   3
  -7   3   1 140.163 8.45922   1
   6  -3  -1 752.464 35.3000   1
   6  -3  -1 714.284 37.2691   3
  -6   3   1 679.921 35.0955   1
  -6   3   1 676.387 35.2610   1
   5  -3  -1 20.5230 2.29452   1
   5  -3  -1 19.9109 3.27973   3
  -5   3   1 18.1929 2.05918   1
   4  -3  -1 16.1955 2.67555   3
   4  -3  -1 15.4835 1.88408   1
  -4   3   1 18.0920 1.92909   1
  -4   3   1 14.6670 1.89002   1
   3  -3  -1 257.454 13.8794   3
   3  -3  -1 250.741 12.9438   1
  -3   3   1 249.364 13.0089   1
  -3   3   1 245.284 12.9115   1
   2  -3  -1 5180.17 239.326   1
   2  -3  -1 4544.41 238.620   1
  -2   3   1 4683.99 257.329   1
  -2   3   1 4716.48 239.380   1
  -2   3   1 5581.62 248.378   4
   1  -3  -1 4851.71 261.744   1
   1  -3  -1 5200.17 262.268   1
  -1   3   1 5437.45 261.468   4
  -1   3   1 5137.87 247.263   1
  -1   3   1 4945.63 247.199   1
   0  -3  -1 445.861 21.5463   1
   0  -3  -1 410.824 21.6094   4
   0  -3  -1 447.357 21.5612   1
   0   3   1 415.158 21.4941   1
   0   3   1 449.642 21.5711   1
   0   3   1 444.405 21.6518   4
  -1  -3  -1 148.096 7.68655   1
  -1  -3  -1 150.473 7.65631   1
  -1  -3  -1 143.947 7.92364   4
   1   3   1 145.759 7.63395   1
   1   3   1 143.745 7.65326   1
  -2  -3  -1 2.60001 0.73713   1
  -2  -3  -1 2.95892 0.75780   1
  -2  -3  -1 1.83083 0.89404   3
  -2  -3  -1 1.72941 0.95743   4
   2   3   1 2.24168 0.63943   1
   2   3   1 2.17125 0.51752   2
   2   3   1 1.70086 0.60104   1
  -3  -3  -1 3108.96 136.826   1
  -3  -3  -1 2766.09 143.830   1
  -3  -3  -1 2641.37 136.356   2
   3   3   1 2746.00 136.477   1
  -4  -3  -1 1403.82 67.5225   2
  -4  -3  -1 1499.36 67.5948   1
  -4  -3  -1 1278.18 67.5501   1
   4   3   1 1383.92 68.8064   3
  -5  -3  -1 209.445 10.4314   1
  -5  -3  -1 194.477 10.3121   1
  -5  -3  -1 194.715 10.4322   2
   5   3   1 191.735 11.8321   3
   5   3   1 190.937 10.1161   1
  -6  -3  -1 353.809 17.8476   1
  -6  -3  -1 370.873 17.8241   1
   6   3   1 345.689 17.4758   1
   6   3   1 317.001 19.4770   3
  -7  -3  -1 167.643 8.82504   1
  -7  -3  -1 154.501 8.71107   1
   7   3   1 146.538 10.5839   3
   7   3   1 157.910 8.53818   1
  -8  -3  -1 854.496 41.8080   1
   8   3   1 830.337 44.5741   3
  -9  -3  -1 223.132 12.3203   1
   9   3   1 232.694 15.2968   3
 -10  -3  -1 176.605 10.3643   1
  10   3   1 198.104 14.1495   3
 -11  -3  -1 17.4266 2.49528   1
  11   3   1 19.0325 4.98147   3
  11  -4  -1 47.6138 7.99333   3
 -11   4   1 31.1478 4.17859   1
  10  -4  -1 149.905 13.4693   3
 -10   4   1 173.306 10.6929   1
   9  -4  -1 341.298 22.2414   3
  -9   4   1 361.815 19.4726   1
   8  -4  -1 103.000 9.37710   3
  -8   4   1 120.475 7.76357   1
   7  -4  -1 139.436 9.76299   3
   7  -4  -1 104.217 6.97395   1
  -7   4   1 99.9604 7.09607   1
   6  -4  -1 137.290 8.13677   1
   6  -4  -1 124.417 9.60032   3
  -6   4   1 135.192 7.93767   1
  -6   4   1 136.656 8.15921   1
   5  -4  -1 345.121 18.7061   1
   5  -4  -1 371.908 20.4132   3
  -5   4   1 366.510 18.7062   1
   4  -4  -1 155.559 9.86671   3
   4  -4  -1 152.969 8.73230   1
  -4   4   1 139.256 8.71537   1
  -4   4   1 171.154 8.76939   1
   3  -4  -1 -0.1750 0.83917   1
  -3   4   1 2.57489 0.94427   1
  -3   4   1 3.27529 0.98687   1
   2  -4  -1 7.28530 1.31532   1
  -2   4   1 6.39954 1.29847   1
  -2   4   1 9.26896 1.41816   1
   1  -4  -1 342.471 17.0858   1
   1  -4  -1 326.413 17.0479   1
  -1   4   1 337.659 17.0975   1
  -1   4   1 337.499 17.0738   1
   0  -4  -1 1027.18 50.7815   1
   0  -4  -1 1010.24 50.7802   1
   0  -4  -1 984.434 50.8229   4
   0   4   1 1135.89 50.8389   1
   0   4   1 1045.23 50.7906   1
  -1  -4  -1 736.066 37.2731   4
  -1  -4  -1 765.671 36.9915   1
  -1  -4  -1 752.625 36.9300   1
   1   4   1 756.478 36.9310   1
  -2  -4  -1 15.9603 1.64907   1
  -2  -4  -1 12.9884 1.57801   1
   2   4   1 17.3022 1.55564   1
   2   4   1 16.0520 1.35812   2
  -3  -4  -1 31.2259 2.30779   1
  -3  -4  -1 27.5448 1.93275   2
  -3  -4  -1 26.2165 2.15647   1
   3   4   1 31.0556 2.05472   2
   3   4   1 25.6719 2.10061   1
  -4  -4  -1 110.386 6.11917   1
  -4  -4  -1 107.622 6.17750   1
  -4  -4  -1 110.657 5.92445   2
   4   4   1 106.083 5.93862   1
  -5  -4  -1 516.707 26.3413   1
  -5  -4  -1 552.679 26.3984   2
  -5  -4  -1 559.134 26.5434   1
   5   4   1 492.888 26.0892   1
  -6  -4  -1 256.838 13.5188   1
  -6  -4  -1 263.794 13.6507   1
  -7  -4  -1 405.918 22.3402   1
  -7  -4  -1 440.914 21.8075   1
   7   4   1 443.623 24.3440   3
  -8  -4  -1 75.1404 4.90676   1
   8   4   1 74.1967 7.35061   3
  -9  -4  -1 48.8260 3.75639   1
   9   4   1 44.5410 6.32855   3
 -10  -4  -1 94.3566 6.12871   1
  10   4   1 105.545 9.72482   3
  11   4   1 18.7534 5.11335   3
  11  -5  -1 34.5824 7.24674   3
 -11   5   1 23.2723 3.97279   1
  10  -5  -1 0.89548 4.01250   3
 -10   5   1 2.03383 2.17317   1
   9  -5  -1 24.6529 6.10997   3
  -9   5   1 30.4506 4.05630   1
   8  -5  -1 14.9422 4.58699   3
  -8   5   1 21.5916 3.25939   1
   7  -5  -1 377.694 19.0470   1
   7  -5  -1 336.325 21.0180   3
  -7   5   1 330.435 18.9014   1
   6  -5  -1 2.04579 1.53541   1
   6  -5  -1 5.33694 2.73959   3
  -6   5   1 3.63133 1.69794   1
   5  -5  -1 75.8074 5.48465   1
   5  -5  -1 77.8469 6.64325   3
   4  -5  -1 125.394 8.65726   3
   4  -5  -1 140.066 7.91009   1
  -4   5   1 122.767 7.83674   1
   3  -5  -1 235.660 13.2795   1
  -3   5   1 260.834 13.4602   1
   2  -5  -1 1105.61 54.8449   1
  -2   5   1 1126.19 54.8881   1
   1  -5  -1 431.610 21.7676   1
  -1   5   1 425.064 21.7568   1
   0  -5  -1 16.9700 1.99750   1
   0  -5  -1 18.4232 2.06939   1
   0   5   1 20.3009 2.17429   1
  -1  -5  -1 72.1670 4.48410   1
  -1  -5  -1 78.0197 4.53877   1
   1   5   1 66.4415 4.41279   1
  -2  -5  -1 190.469 10.4273   1
  -2  -5  -1 183.461 10.4537   1
   2   5   1 198.037 10.4306   1
   2   5   1 215.141 10.3023   2
  -3  -5  -1 289.396 15.5410   1
  -3  -5  -1 314.290 15.7180   1
   3   5   1 306.814 15.5500   1
   3   5   1 308.136 15.3766   2
  -4  -5  -1 20.6200 2.16262   1
  -4  -5  -1 23.1990 2.31712   1
   4   5   1 21.7080 1.92052   2
   4   5   1 20.6586 1.91002   1
  -5  -5  -1 40.2277 3.02763   1
  -5  -5  -1 40.3426 2.87208   2
  -5  -5  -1 42.5145 3.15275   1
  -6  -5  -1 10.4001 1.67923   1
  -6  -5  -1 9.57244 1.58579   1
   6   5   1 8.38824 1.20000   1
  -7  -5  -1 498.556 25.1172   1
  -8  -5  -1 169.622 9.42513   1
  -9  -5  -1 38.0396 3.26189   1
 -10  -5  -1 28.8405 2.92345   1
 -11  -5  -1 -0.1761 0.97559   1
  10  -6  -1 73.1572 10.0044   3
 -10   6   1 81.7250 7.29234   1
   9  -6  -1 111.593 11.1396   3
  -9   6   1 121.991 8.76672   1
   8  -6  -1 87.2724 8.83815   3
  -8   6   1 89.7820 7.05723   1
   7  -6  -1 311.944 19.5545   3
   7  -6  -1 290.055 18.0933   1
  -7   6   1 330.400 17.6312   1
   6  -6  -1 115.414 7.89621   1
   6  -6  -1 125.361 9.80787   3
  -6   6   1 122.500 8.03176   1
   5  -6  -1 294.618 15.9301   1
   5  -6  -1 282.611 17.2896   3
   4  -6  -1 7.27585 1.95941   1
  -4   6   1 9.68033 2.11864   1
   3  -6  -1 65.2675 4.83220   1
  -3   6   1 62.7948 4.79067   1
   2  -6  -1 488.035 25.4553   1
  -2   6   1 507.611 25.5488   1
   1  -6  -1 1803.60 88.0795   1
  -1   6   1 1807.02 88.1094   1
   0  -6  -1 1709.19 84.7016   1
   0   6   1 1765.30 84.7843   1
  -1  -6  -1 266.366 14.3373   1
  -1  -6  -1 298.895 14.4676   1
   1   6   1 254.053 14.2669   1
  -2  -6  -1 1.02883 0.91395   1
  -2  -6  -1 0.51165 0.90578   1
   2   6   1 1.69876 0.89884   2
   2   6   1 2.52890 0.99580   1
  -3  -6  -1 213.695 11.6513   1
  -3  -6  -1 224.694 11.6393   1
   3   6   1 213.625 11.4936   1
   3   6   1 214.287 11.3031   2
  -4  -6  -1 413.950 21.3174   1
  -4  -6  -1 416.351 21.1644   1
   4   6   1 423.026 21.0726   1
   4   6   1 412.316 20.9793   2
  -5  -6  -1 756.963 35.2237   1
  -5  -6  -1 720.072 34.9452   1
   5   6   1 597.773 34.6084   1
   5   6   1 744.900 34.8876   2
  -6  -6  -1 144.593 8.16410   1
  -7  -6  -1 178.364 9.81071   1
  -8  -6  -1 171.961 9.54190   1
  -9  -6  -1 303.763 15.8720   1
 -10  -6  -1 93.3518 5.81648   1
  10  -7  -1 116.030 11.7973   3
 -10   7   1 106.426 8.85392   1
   9  -7  -1 120.817 11.6560   3
  -9   7   1 124.291 9.31617   1
   8  -7  -1 401.155 24.8130   3
  -8   7   1 396.384 22.2278   1
   7  -7  -1 212.286 15.3731   3
  -7   7   1 222.157 13.3391   1
   6  -7  -1 195.135 11.7234   1
   6  -7  -1 190.642 13.4997   3
  -6   7   1 189.978 11.7030   1
   5  -7  -1 240.193 14.2227   1
   5  -7  -1 261.715 16.0226   3
   4  -7  -1 185.671 11.0382   1
  -4   7   1 186.160 11.1317   1
   3  -7  -1 1347.28 68.1471   1
  -3   7   1 1414.00 68.4284   1
   2  -7  -1 540.834 27.6789   1
  -2   7   1 534.417 27.7088   1
   1  -7  -1 1116.78 58.1500   1
  -1   7   1 1239.34 58.3354   1
   0  -7  -1 1114.47 55.5029   1
   0   7   1 1131.10 55.5290   1
  -1  -7  -1 1089.27 54.1046   1
   1   7   1 1102.73 54.1236   1
  -2  -7  -1 1564.09 76.4151   1
  -2  -7  -1 1587.13 76.4871   1
   2   7   1 1534.97 76.3552   1
   2   7   1 1560.94 76.2371   2
  -3  -7  -1 691.744 34.8824   1
  -3  -7  -1 647.420 34.6561   1
   3   7   1 720.832 34.5546   2
   3   7   1 718.836 34.7549   1
  -4  -7  -1 245.883 12.2906   1
  -4  -7  -1 209.029 12.2518   1
   4   7   1 224.340 11.9469   2
   4   7   1 221.100 12.0785   1
  -5  -7  -1 120.120 7.25460   1
   5   7   1 121.651 7.02061   2
  -6  -7  -1 463.814 23.6374   1
  -7  -7  -1 790.574 39.3314   1
  -8  -7  -1 350.583 18.2318   1
  -9  -7  -1 139.491 8.15599   1
 -10  -7  -1 57.5848 4.25054   1
   9  -8  -1 27.7240 6.39276   3
  -9   8   1 21.5836 4.02611   1
   8  -8  -1 110.774 11.0112   3
  -8   8   1 117.884 8.88262   1
   7  -8  -1 261.698 18.1162   3
  -7   8   1 267.712 15.9419   1
   6  -8  -1 661.262 37.5616   3
   6  -8  -1 685.110 35.4497   1
  -6   8   1 689.923 35.5422   1
   5  -8  -1 2.74381 2.00616   1
   4  -8  -1 17.3190 3.03909   1
  -4   8   1 7.77762 2.42105   1
   3  -8  -1 -0.5857 1.46137   1
  -3   8   1 1.74761 1.41900   1
   2  -8  -1 336.798 17.8842   1
  -2   8   1 317.036 17.8023   1
   1  -8  -1 884.881 45.0151   1
  -1   8   1 908.561 45.1319   1
   0  -8  -1 474.848 24.6549   1
   0   8   1 473.057 24.6439   1
  -1  -8  -1 200.914 11.3153   1
   1   8   1 193.948 11.2238   1
  -2  -8  -1 390.751 21.9812   1
   2   8   1 453.107 22.1751   1
   2   8   1 430.569 21.9740   2
  -3  -8  -1 309.163 16.4308   1
   3   8   1 289.314 16.2445   1
   3   8   1 320.738 16.2080   2
  -4  -8  -1 136.513 7.87178   1
   4   8   1 120.658 7.37577   2
  -5  -8  -1 17.3474 2.38586   1
  -6  -8  -1 12.7597 2.05744   1
  -7  -8  -1 126.916 7.73699   1
  -8  -8  -1 460.515 23.6579   1
   8  -9  -1 39.6521 7.38418   3
  -8   9   1 41.8062 5.50749   1
   7  -9  -1 57.5341 8.22847   3
  -7   9   1 53.2429 6.15546   1
   6  -9  -1 57.2200 5.99142   1
   6  -9  -1 57.3498 7.85355   3
  -6   9   1 56.5754 6.12149   1
   5  -9  -1 -4.3688 1.54803   1
   4  -9  -1 15.5214 3.07000   1
   3  -9  -1 105.736 7.53815   1
  -3   9   1 102.192 7.57489   1
   2  -9  -1 6.35001 2.26966   1
  -2   9   1 6.25811 2.14894   1
   1  -9  -1 23.1237 3.31121   1
  -1   9   1 18.8662 3.05948   1
   0  -9  -1 170.996 10.0900   1
   0   9   1 154.594 9.87441   1
  -1  -9  -1 203.550 11.2100   1
   1   9   1 179.418 10.9484   1
   1   9   1 179.355 10.8711   2
  -2  -9  -1 252.099 14.3063   1
   2   9   1 270.103 14.3678   1
   2   9   1 247.958 14.0949   2
  -3  -9  -1 72.4111 5.50750   1
   3   9   1 72.9820 5.14190   2
  -4  -9  -1 35.2237 3.82044   1
  -5  -9  -1 -2.0659 1.28701   1
  -6  -9  -1 2.64646 1.78514   1
  -7  -9  -1 36.3276 3.87119   1
  -8  -9  -1 22.1449 2.94450   1
  -9  -9  -1 6.27523 1.85528   1
   7 -10  -1 388.419 24.1345   3
  -7  10   1 345.796 21.2258   1
   6 -10  -1 116.663 9.34454   1
   6 -10  -1 132.849 11.7296   3
  -6  10   1 132.947 9.78112   1
   5 -10  -1 5.97108 2.78741   1
   4 -10  -1 -1.6430 2.02011   1
   3 -10  -1 68.7565 6.27192   1
  -3  10   1 74.3859 6.26976   1
   2 -10  -1 107.923 8.00746   1
  -2  10   1 112.162 8.05329   1
   1 -10  -1 48.8922 5.26970   1
  -1  10   1 56.4752 5.16824   1
   0 -10  -1 2.88445 2.15997   1
   0  10   1 -1.2360 1.49767   1
  -1 -10  -1 86.7432 6.54857   1
   1  10   1 88.7502 6.44504   1
   1  10   1 77.0583 6.00515   2
  -2 -10  -1 253.627 14.5715   1
   2  10   1 255.627 14.3292   2
  -3 -10  -1 73.7680 5.84751   1
  -4 -10  -1 11.0961 2.62130   1
  -5 -10  -1 21.3988 3.33053   1
  -6 -10  -1 61.1942 5.22786   1
  -7 -10  -1 185.988 11.0807   1
   6 -11  -1 143.713 12.5867   3
  -6  11   1 121.912 10.0449   1
   5 -11  -1 253.566 15.7025   1
  -5  11   1 242.393 15.5276   1
   4 -11  -1 132.623 9.89785   1
   3 -11  -1 16.3325 3.57709   1
   2 -11  -1 95.8413 7.55483   1
  -2  11   1 88.5955 7.30414   1
   1 -11  -1 189.839 11.9368   1
  -1  11   1 180.816 11.7971   1
   0 -11  -1 234.630 13.5299   1
   0  11   1 199.359 14.3435   1
  -1 -11  -1 397.780 22.1445   1
   1  11   1 410.350 22.0163   2
  -2 -11  -1 364.926 20.2226   1
  -3 -11  -1 129.737 8.87363   1
  -4 -11  -1 108.761 7.88545   1
  -5 -11  -1 2.79815 2.13909   1
  -6 -11  -1 58.1079 5.45306   1
   4 -12  -1 34.0115 5.34014   1
  -4  12   1 39.4819 5.33178   1
   3 -12  -1 25.4598 4.72767   1
   2 -12  -1 29.2583 4.49162   1
   1 -12  -1 22.5700 4.03340   1
   0 -12  -1 63.0601 6.47856   1
  -1 -12  -1 286.650 16.8590   1
  -2 -12  -1 261.869 15.5550   1
  -3 -12  -1 103.844 7.96863   1
  -4 -12  -1 23.1818 3.91033   1
  -5 -12  -1 1.33419 2.24345   1
   1 -13  -1 6.98060 3.18599   1
   0 -13  -1 -2.2760 2.31075   1
  -1 -13  -1 6.65978 2.95329   1
  -2 -13  -1 26.1130 4.30522   1
  -4 -11   2 77.5317 6.48974   1
  -3 -11   2 82.8543 6.91389   1
   2  11  -2 294.236 17.6129   2
  -2 -11   2 288.501 16.9763   1
   1  11  -2 220.551 13.9519   2
  -1 -11   2 211.137 13.4534   1
   0  11  -2 188.107 12.6033   2
   0 -11   2 182.989 12.2035   1
  -1  11  -2 132.866 9.66334   2
   1 -11   2 105.757 8.85637   1
  -2  11  -2 45.2235 6.12946   2
   2 -11   2 41.5574 5.67525   1
   3 -11   2 22.2489 4.28808   1
  -4  11  -2 73.1717 8.63593   1
   4 -11   2 88.7693 8.09642   1
  -6 -10   2 111.021 7.49511   1
  -5 -10   2 153.011 9.65372   1
  -4 -10   2 90.5742 6.81002   1
   3  10  -2 129.044 9.26118   2
  -3 -10   2 128.388 8.69212   1
   2  10  -2 257.718 15.8805   2
  -2 -10   2 274.421 15.5122   1
   1  10  -2 537.010 28.7763   2
  -1 -10   2 521.219 28.1038   1
   0  10  -2 572.752 32.4349   2
   0 -10   2 646.333 32.3233   1
  -1  10  -2 201.294 13.5945   2
   1 -10   2 230.051 13.6206   1
  -2  10  -2 8.51605 2.63252   1
   2 -10   2 6.57289 2.74539   1
  -3  10  -2 16.8740 3.57669   1
   3 -10   2 19.2461 3.95677   1
  -4  10  -2 105.530 8.62181   1
   4 -10   2 112.924 9.19650   1
  -5  10  -2 115.034 9.11840   1
   5 -10   2 101.346 9.16045   1
  -6  10  -2 65.0922 7.50197   1
   6 -10   2 69.3824 7.57108   1
   6 -10   2 75.6561 9.83773   3
  -7  -9   2 137.133 8.23562   1
  -6  -9   2 25.5169 3.05306   1
  -5  -9   2 5.56101 1.92516   1
   4   9  -2 0.42768 1.76627   2
  -4  -9   2 -1.8135 1.40100   1
   3   9  -2 83.4577 6.85252   2
  -3  -9   2 94.7210 6.55833   1
   2   9  -2 81.3734 6.68479   2
  -2  -9   2 83.1615 6.41701   1
   1   9  -2 195.605 11.8433   2
  -1  -9   2 166.311 10.9300   1
   0   9  -2 77.6118 9.27227   1
   0   9  -2 77.2741 6.61113   2
   0  -9   2 78.0188 6.33122   1
  -1   9  -2 105.480 7.59463   1
   1  -9   2 101.182 7.78639   1
  -2   9  -2 15.3017 3.07540   1
   2  -9   2 11.9060 3.07348   1
  -3   9  -2 0.32972 1.88468   1
   3  -9   2 1.35602 2.21843   1
  -4   9  -2 1.59922 2.16162   1
   4  -9   2 1.27099 2.55240   1
  -5   9  -2 1.59280 2.32348   1
   5  -9   2 0.92861 2.47633   1
  -6   9  -2 124.311 10.0708   1
   6  -9   2 129.643 11.9623   3
   6  -9   2 151.284 10.6254   1
  -7   9  -2 91.7437 8.49931   1
   7  -9   2 92.3879 11.0389   3
  -8  -8   2 1.58530 1.04968   1
  -7  -8   2 16.5405 2.18906   1
   6   8  -2 19.8623 3.46419   2
  -6  -8   2 20.1259 2.48696   1
   5   8  -2 12.0871 2.67742   2
  -5  -8   2 11.9255 2.11535   1
   4   8  -2 7.07649 2.15646   2
  -4  -8   2 6.05981 1.83702   1
   3   8  -2 0.01006 1.51394   2
  -3  -8   2 -0.4554 1.28019   1
   2   8  -2 32.0783 4.21955   2
  -2  -8   2 29.5812 3.55234   1
   1   8  -2 155.312 9.55375   1
   1   8  -2 162.989 10.2809   2
  -1  -8   2 153.820 9.65282   1
   0   8  -2 120.297 8.60969   2
   0   8  -2 136.830 8.29964   1
   0  -8   2 117.599 8.13134   1
  -1   8  -2 69.6338 5.78627   1
   1  -8   2 79.8966 6.16534   1
  -2   8  -2 15.5227 3.00641   1
   2  -8   2 15.7323 3.12633   1
  -3   8  -2 136.626 9.88343   1
   3  -8   2 173.548 10.5072   1
  -4   8  -2 6.85754 2.54871   1
   4  -8   2 15.2392 3.22047   1
  -5   8  -2 -0.7572 2.13440   1
   5  -8   2 -3.0039 1.86569   1
  -6   8  -2 -0.4128 1.90564   1
   6  -8   2 -2.3501 2.13218   1
   6  -8   2 1.87845 3.58689   3
  -7   8  -2 47.5685 6.03429   1
   7  -8   2 60.5440 8.46482   3
   7  -8   2 50.0260 6.93793   1
  -8   8  -2 254.146 16.2557   1
   8  -8   2 250.196 18.4159   3
  -8  -7   2 320.387 16.1813   1
   7   7  -2 183.584 11.1931   2
  -7  -7   2 174.245 9.55530   1
   6   7  -2 181.250 11.1206   2
  -6  -7   2 173.812 9.68325   1
   5   7  -2 16.2231 2.95079   2
  -5  -7   2 13.4619 1.99733   1
   4   7  -2 30.5326 3.77349   2
  -4  -7   2 21.5825 2.62923   1
   3   7  -2 122.058 8.04182   2
  -3  -7   2 120.820 7.33577   1
   2   7  -2 59.9852 4.84999   2
   2   7  -2 47.2745 4.01631   1
  -2  -7   2 55.0826 4.21611   1
   1   7  -2 183.931 11.4010   2
   1   7  -2 185.045 10.8278   1
  -1  -7   2 202.006 11.0270   1
   0   7  -2 483.778 25.5531   1
   0   7  -2 513.324 26.1647   2
   0  -7   2 481.372 25.5496   1
  -1   7  -2 1176.88 55.8744   1
   1  -7   2 1059.57 55.6521   1
  -2   7  -2 635.345 32.8472   1
   2  -7   2 637.250 32.8894   1
  -3   7  -2 66.8639 5.88199   1
   3  -7   2 90.9911 6.52242   1
  -4   7  -2 -1.1715 1.41128   1
   4  -7   2 0.14463 1.89958   1
  -5   7  -2 153.841 9.98230   1
   5  -7   2 132.802 10.8662   3
   5  -7   2 142.555 9.87493   1
  -6   7  -2 313.042 18.0594   1
   6  -7   2 317.682 19.7719   3
   6  -7   2 288.059 17.7169   1
  -7   7  -2 360.758 20.2659   1
   7  -7   2 328.948 19.9319   1
   7  -7   2 344.708 22.1426   3
  -8   7  -2 112.533 8.67483   1
   8  -7   2 85.3140 9.34778   3
  -9   7  -2 230.272 14.9655   1
   9  -7   2 215.075 17.2255   3
  -8  -6   2 237.028 11.9010   1
   7   6  -2 386.272 20.3321   2
  -7  -6   2 353.761 18.3334   1
   6   6  -2 574.920 28.7264   2
  -6  -6   2 522.188 27.0587   1
   5   6  -2 8.08561 2.13297   2
  -5  -6   2 8.86241 1.47932   1
   4   6  -2 159.388 9.82591   2
  -4  -6   2 170.752 9.04500   1
  -4  -6   2 154.476 8.91418   1
   3   6  -2 28.9935 2.60540   1
   3   6  -2 37.6774 3.62451   2
  -3  -6   2 26.4439 2.78786   1
  -3  -6   2 37.3049 2.80621   1
   2   6  -2 325.535 17.3612   2
   2   6  -2 316.084 16.6297   1
  -2  -6   2 312.235 16.6424   1
  -2  -6   2 322.038 16.6467   1
   1   6  -2 287.939 14.6063   1
   1   6  -2 276.590 15.1157   2
  -1  -6   2 243.150 14.4163   1
  -1  -6   2 280.559 14.5224   1
   0   6  -2 661.671 34.5062   2
   0   6  -2 674.189 34.0586   1
   0  -6   2 688.458 34.0998   1
  -1   6  -2 802.080 39.3560   1
   1  -6   2 759.109 39.2518   1
  -2   6  -2 736.461 37.7799   1
   2  -6   2 754.359 37.8530   1
  -3   6  -2 545.675 28.4223   1
   3  -6   2 546.151 28.5006   1
  -4   6  -2 295.803 15.9868   1
   4  -6   2 263.979 15.7649   1
  -5   6  -2 33.9902 4.26960   1
   5  -6   2 29.0614 4.08167   1
   5  -6   2 36.3466 5.43002   3
  -6   6  -2 192.224 12.1913   1
   6  -6   2 201.812 13.7235   3
   6  -6   2 181.416 12.0074   1
  -7   6  -2 256.794 16.4107   1
   7  -6   2 320.433 19.0272   3
   7  -6   2 267.593 16.4299   1
  -8   6  -2 345.124 19.8177   1
   8  -6   2 329.720 21.9227   3
  -9   6  -2 198.785 13.3606   1
   9  -6   2 199.678 15.8375   3
   7   5  -2 102.604 7.16171   2
  -7  -5   2 96.1661 5.22805   1
   6   5  -2 45.8787 4.54249   2
  -6  -5   2 48.6644 3.07635   1
  -6  -5   2 51.6606 3.17035   1
   5   5  -2 76.9645 4.21919   1
   5   5  -2 66.4492 5.46835   2
  -5  -5   2 73.7810 4.29826   1
  -5  -5   2 67.1034 4.24756   1
   4   5  -2 483.928 23.9796   2
   4   5  -2 447.636 22.6767   1
  -4  -5   2 446.258 22.8536   1
  -4  -5   2 459.122 22.8894   1
   3   5  -2 0.83579 1.08961   2
  -3  -5   2 3.81967 1.07138   1
  -3  -5   2 2.57782 0.97492   1
   2   5  -2 105.790 6.83705   2
   2   5  -2 105.838 6.24525   1
  -2  -5   2 107.230 6.29085   1
  -2  -5   2 111.321 6.31446   1
   1   5  -2 27.0386 2.66082   1
   1   5  -2 25.3062 3.11667   2
  -1  -5   2 28.7323 2.48169   1
  -1  -5   2 22.2773 2.49914   1
   0   5  -2 824.920 41.8726   2
   0   5  -2 814.306 41.4090   1
   0  -5   2 787.792 41.3630   1
   0  -5   2 909.402 41.4523   1
  -1   5  -2 227.324 12.7356   1
   1  -5   2 239.450 12.8303   1
  -2   5  -2 65.0978 4.89950   1
   2  -5   2 68.4387 4.97571   1
  -3   5  -2 -0.0378 1.21602   1
   3  -5   2 1.86221 1.58108   1
  -4   5  -2 34.4054 3.96222   1
   4  -5   2 35.2480 4.01798   1
  -5   5  -2 230.315 13.5040   1
   5  -5   2 240.874 14.8335   3
   5  -5   2 221.882 13.3783   1
  -6   5  -2 111.274 7.73675   1
   6  -5   2 90.1627 7.33857   1
   6  -5   2 112.702 8.84360   3
  -7   5  -2 2.61324 1.94912   1
   7  -5   2 -0.5169 1.61585   1
   7  -5   2 2.24416 2.30509   3
  -8   5  -2 7.38068 2.68498   1
   8  -5   2 0.74477 3.35381   3
  -9   5  -2 160.223 11.2160   1
   9  -5   2 165.878 13.7281   3
 -10   5  -2 86.5148 7.86799   1
  10  -5   2 91.9354 11.2174   3
  -7  -4   2 188.916 9.29815   1
  -7  -4   2 185.991 9.24429   1
   6   4  -2 53.1568 4.69663   2
  -6  -4   2 55.8743 3.05337   1
  -6  -4   2 51.4914 3.09207   1
   5   4  -2 62.1766 4.86207   2
  -5  -4   2 59.8454 3.50530   1
  -5  -4   2 61.5781 3.55253   1
   4   4  -2 107.366 5.77129   1
   4   4  -2 108.495 7.01731   2
  -4  -4   2 114.623 6.00333   1
  -4  -4   2 114.741 6.03081   1
   3   4  -2 361.770 17.2764   1
   3   4  -2 350.440 18.1826   2
  -3  -4   2 339.754 17.3178   1
  -3  -4   2 329.658 17.3044   1
   2   4  -2 44.7944 2.87512   1
   2   4  -2 36.6071 3.38284   2
  -2  -4   2 43.7728 2.90530   1
  -2  -4   2 37.5742 2.82276   1
   1   4  -2 -0.2109 0.92988   2
   1   4  -2 0.86997 0.78078   1
  -1  -4   2 0.79772 0.79044   1
  -1  -4   2 0.23984 0.70746   1
   0   4  -2 288.297 15.8282   1
   0  -4   2 304.721 15.8800   1
   0  -4   2 327.262 15.8784   1
  -1   4  -2 531.779 25.4629   1
   1  -4   2 496.050 25.3735   1
   1  -4   2 474.685 25.5561   1
  -2   4  -2 1723.73 83.9292   1
   2  -4   2 1710.39 83.9324   1
  -3   4  -2 317.245 16.8162   1
   3  -4   2 310.789 16.8197   1
  -4   4  -2 27.8763 3.40111   1
   4  -4   2 28.7755 3.37122   1
   4  -4   2 31.0062 4.11800   3
  -5   4  -2 30.8634 3.68237   1
   5  -4   2 28.7994 4.29311   3
   5  -4   2 26.9325 3.45496   1
  -6   4  -2 82.7121 6.56544   1
   6  -4   2 96.9941 6.79054   1
   6  -4   2 93.4306 7.70579   3
  -7   4  -2 28.6775 3.99748   1
   7  -4   2 30.6267 4.02742   1
   7  -4   2 30.2553 5.25131   3
  -8   4  -2 138.054 9.75965   1
   8  -4   2 157.995 12.0487   3
  -9   4  -2 41.7061 4.94062   1
   9  -4   2 41.0192 7.22109   3
 -10   4  -2 23.9360 4.18935   1
  10  -4   2 17.9018 5.24079   3
  11   3  -2 38.3283 6.93007   3
  10   3  -2 80.6113 8.63643   3
   9   3  -2 103.949 9.34013   3
   8   3  -2 93.9957 8.34938   3
   7   3  -2 985.770 50.9386   3
   6   3  -2 1092.30 57.8728   2
  -6  -3   2 1202.13 56.0642   1
  -6  -3   2 1189.57 57.4113   1
   5   3  -2 2299.34 111.209   2
  -5  -3   2 2220.35 114.425   1
  -5  -3   2 2299.85 109.769   1
   4   3  -2 151.688 9.03055   2
  -4  -3   2 155.697 7.81288   1
  -4  -3   2 153.728 7.81098   1
   3   3  -2 69.5636 4.68919   2
   3   3  -2 69.5126 3.68831   1
  -3  -3   2 63.0397 3.75687   1
  -3  -3   2 69.1362 3.79809   1
   2   3  -2 0.16644 0.94079   2
  -2  -3   2 3.34688 0.75527   1
  -2  -3   2 1.10285 0.58199   1
   1   3  -2 1501.84 72.5876   2
   1   3  -2 1479.58 72.0288   1
  -1  -3   2 1471.29 71.9997   1
  -1  -3   2 1486.62 72.0363   1
   0   3  -2 1237.72 59.7909   1
   0   3  -2 1228.80 60.1770   2
   0  -3   2 1240.83 59.7466   1
   0  -3   2 1196.64 59.7631   1
  -1   3  -2 1452.72 70.4967   1
   1  -3   2 1368.56 70.3365   1
   1  -3   2 1515.61 70.5164   1
  -2   3  -2 2356.70 110.214   1
   2  -3   2 2179.79 110.077   1
  -3   3  -2 166.321 9.07233   1
   3  -3   2 146.231 8.90184   1
  -4   3  -2 1283.35 64.8264   1
   4  -3   2 1262.24 64.8122   1
   4  -3   2 1405.09 65.8996   3
  -5   3  -2 206.828 12.1367   1
   5  -3   2 224.066 12.2156   1
   5  -3   2 211.692 13.2187   3
  -6   3  -2 81.5899 6.03120   1
   6  -3   2 84.5544 7.32945   3
   6  -3   2 80.8875 6.01610   1
  -7   3  -2 8.43296 2.25115   1
   7  -3   2 5.60335 1.92143   1
   7  -3   2 11.1556 3.42494   3
  -8   3  -2 141.469 9.52255   1
   8  -3   2 155.819 11.7606   3
  -9   3  -2 181.802 11.3065   1
   9  -3   2 165.623 13.4213   3
 -10   3  -2 320.069 18.7213   1
  10  -3   2 334.414 21.9294   3
 -11   3  -2 76.5432 6.90350   1
  11  -3   2 65.8310 9.62500   3
  11   2  -2 36.6281 6.87169   3
  10   2  -2 43.1085 6.90377   3
   9   2  -2 200.029 14.0702   3
   8   2  -2 540.568 28.8825   3
  -8  -2   2 496.766 24.8266   1
  -8  -2   2 519.548 24.8303   1
   7   2  -2 241.585 15.0052   3
   6   2  -2 210.955 13.0336   3
   5   2  -2 2755.76 130.739   2
   5   2  -2 2613.60 131.287   3
   4   2  -2 3504.85 168.261   3
   4   2  -2 3207.10 167.661   2
  -4  -2   2 3687.77 171.109   1
  -4  -2   2 3483.87 171.048   1
   3   2  -2 1381.58 71.9791   2
  -3  -2   2 1527.71 71.4165   1
  -3  -2   2 1526.24 76.3255   1
   2   2  -2 18.7128 2.17756   2
   2   2  -2 16.6857 1.22287   1
   2   2  -2 19.4471 1.32188   1
  -2  -2   2 17.5535 2.01723   2
  -2  -2   2 18.3796 1.36161   1
  -2  -2   2 20.5254 2.12791   3
  -2  -2   2 18.4919 1.36698   1
   1   2  -2 403.750 19.5095   1
   1   2  -2 384.053 19.9420   2
   1   2  -2 396.637 19.4250   1
  -1  -2   2 384.877 19.8801   2
  -1  -2   2 399.680 19.4991   1
   0   2  -2 2295.87 111.169   1
   0   2  -2 1710.11 96.5021   2
   0   2  -2 2099.14 103.390   1
   0  -2   2 2055.76 96.3550   1
  -1   2  -2 5416.75 283.036   1
  -1   2  -2 5277.27 274.159   1
   1  -2   2 4475.29 257.928   1
   1  -2   2 6192.24 258.224   1
  -2   2  -2 3161.56 153.158   1
  -2   2  -2 3385.42 163.084   1
   2  -2   2 3062.91 153.345   1
   2  -2   2 3082.43 152.313   1
  -3   2  -2 83.3355 5.10922   1
  -3   2  -2 75.9192 4.85889   1
   3  -2   2 78.9580 5.54240   3
   3  -2   2 75.7110 5.03053   1
  -4   2  -2 670.400 34.0686   1
  -4   2  -2 693.022 34.3041   1
   4  -2   2 675.133 34.0624   1
   4  -2   2 679.524 34.9265   3
  -5   2  -2 422.355 21.5846   1
   5  -2   2 400.473 21.4832   1
   5  -2   2 411.670 20.5721   4
   5  -2   2 421.588 22.7613   3
  -6   2  -2 639.783 32.6195   1
   6  -2   2 660.770 34.2324   3
   6  -2   2 622.640 32.5101   1
  -7   2  -2 420.860 24.0517   1
   7  -2   2 514.574 24.3619   1
   7  -2   2 451.201 25.9141   3
  -8   2  -2 60.9596 5.34689   1
   8  -2   2 61.6603 6.56776   3
  -9   2  -2 13.2522 2.82200   1
   9  -2   2 14.8428 4.21662   3
 -10   2  -2 123.879 8.96422   1
  10  -2   2 132.436 11.3482   3
 -11   2  -2 161.584 11.0220   1
  11  -2   2 174.467 14.4059   3
  11   1  -2 96.9662 9.93450   3
  10   1  -2 105.747 9.72699   3
 -10  -1   2 92.9837 5.24980   1
   9   1  -2 -1.4955 2.30373   3
  -9  -1   2 0.89728 0.61184   1
   8   1  -2 415.528 22.7711   3
  -8  -1   2 379.823 18.9936   1
  -8  -1   2 372.012 18.8906   1
   7   1  -2 88.9464 7.70900   3
  -7  -1   2 99.1086 4.98865   1
  -7  -1   2 93.8105 5.04808   1
   6   1  -2 649.799 35.1575   3
  -6  -1   2 667.773 32.6019   1
  -6  -1   2 694.891 32.5652   1
   5   1  -2 35.4369 4.18809   3
  -5  -1   2 31.8645 1.76740   1
  -5  -1   2 34.5121 1.75060   1
   4   1  -2 44.9480 4.12931   3
   4   1  -2 54.6562 3.97008   2
   3   1  -2 1750.65 89.7871   3
   3   1  -2 1861.96 89.6875   2
  -3  -1   2 1887.87 89.0697   1
  -3  -1   2 1817.63 89.9393   3
  -3  -1   2 1890.79 89.9873   2
   2   1  -2 1753.62 79.9897   1
   2   1  -2 1588.51 78.4609   2
   2   1  -2 1574.32 81.4335   1
  -2  -1   2 1623.54 84.1068   1
  -2  -1   2 1672.40 78.6004   3
  -2  -1   2 1666.64 78.4803   2
  -2  -1   2 1387.47 81.1544   1
   1   1  -2 890.099 46.7090   1
   1   1  -2 947.542 45.2694   2
  -1  -1   2 1017.11 45.2731   2
  -1  -1   2 940.752 44.7686   1
  -1  -1   2 825.281 44.7364   1
   0   1  -2 998.938 49.0576   1
   0   1  -2 1052.30 49.3736   2
   0   1  -2 997.279 49.0270   1
   0  -1   2 951.755 49.0338   1
   0  -1   2 1055.93 49.1353   1
  -1   1  -2 1980.04 98.5757   1
  -1   1  -2 2182.48 98.4841   1
   1  -1   2 1913.11 102.568   1
   1  -1   2 1998.09 97.8215   1
  -2   1  -2 4.95815 1.01400   1
  -2   1  -2 5.80267 1.11477   1
   2  -1   2 4.33913 0.99485   1
   2  -1   2 3.90835 1.07939   1
   2  -1   2 5.31548 1.30054   3
  -3   1  -2 1042.41 50.4885   1
  -3   1  -2 1082.07 50.4406   1
   3  -1   2 997.851 50.4412   1
   3  -1   2 992.771 50.9216   3
  -4   1  -2 212.564 10.5679   1
  -4   1  -2 173.765 10.4334   1
   4  -1   2 195.091 10.5661   1
   4  -1   2 193.498 11.3021   3
  -5   1  -2 100.948 6.50575   1
  -5   1  -2 98.0155 6.39326   1
   5  -1   2 112.266 6.12966   4
   5  -1   2 116.711 7.85604   3
   5  -1   2 108.998 6.60132   1
  -6   1  -2 4.41010 1.51129   1
  -6   1  -2 6.70525 1.55225   1
   6  -1   2 4.73090 1.58513   1
   6  -1   2 7.50931 2.35474   3
  -7   1  -2 63.9196 4.59596   1
  -7   1  -2 58.4539 4.70885   1
   7  -1   2 64.7096 4.80465   1
   7  -1   2 55.1041 5.84800   3
  -8   1  -2 -2.1813 1.24136   1
   8  -1   2 0.77742 1.96149   3
  -9   1  -2 291.093 16.6986   1
   9  -1   2 309.482 19.3915   3
 -10   1  -2 132.277 9.17780   1
  10  -1   2 151.434 12.3898   3
 -11   1  -2 44.4358 5.16397   1
  11  -1   2 53.9274 8.39537   3
  11   0  -2 16.3194 4.84512   3
 -11   0   2 8.78725 1.55044   1
  10   0  -2 0.36638 2.18357   3
 -10   0   2 -1.0905 0.96580   1
   9   0  -2 152.303 11.4696   3
  -9   0   2 146.818 8.16354   1
   8   0  -2 3.69411 2.25472   3
  -8   0   2 4.01699 1.03883   1
   7   0  -2 91.3805 7.61026   3
  -7   0   2 88.7816 5.13130   1
  -7   0   2 94.0884 5.03837   1
   6   0  -2 55.6707 5.48363   3
  -6   0   2 58.4403 3.45110   1
  -6   0   2 62.1037 3.39481   1
   5   0  -2 483.664 26.7184   3
  -5   0   2 496.988 24.7808   1
  -5   0   2 539.780 24.8559   1
   4   0  -2 1235.12 66.7228   3
  -4   0   2 1463.59 65.4737   1
   3   0  -2 282.456 15.0737   2
   3   0  -2 311.025 15.3696   3
  -3   0   2 286.945 15.2499   3
  -3   0   2 288.036 15.0500   2
  -3   0   2 282.629 14.0222   1
  -3   0   2 283.747 14.0223   1
   2   0  -2 2542.86 130.152   2
   2   0  -2 2593.44 132.306   1
   2   0  -2 2684.72 131.842   1
  -2   0   2 2881.01 135.009   1
  -2   0   2 2561.59 129.998   2
  -2   0   2 2844.17 133.378   1
   1   0  -2 242.127 13.1775   3
   1   0  -2 264.893 13.0366   1
   1   0  -2 285.525 13.5275   2
  -1   0   2 259.491 13.2319   3
  -1   0   2 265.308 13.0559   1
  -1   0   2 262.505 13.4299   2
  -1   0   2 278.829 13.0899   1
   0   0  -2 745.251 36.5438   1
   0   0  -2 755.537 36.7038   2
   0   0  -2 752.503 36.5825   1
   0   0   2 756.910 36.6950   2
   0   0   2 774.247 36.5849   1
   0   0   2 728.083 36.5732   1
  -1   0  -2 4750.21 242.083   1
  -1   0  -2 4949.26 225.543   1
   1   0   2 4406.71 239.812   3
   1   0   2 4499.30 225.326   1
  -2   0  -2 382.287 19.8298   1
  -2   0  -2 428.343 19.9409   1
  -2   0  -2 435.041 20.1026   3
   2   0   2 374.437 19.7912   1
   2   0   2 358.529 19.7989   1
   2   0   2 407.496 20.1147   3
  -3   0  -2 1458.14 69.7160   1
  -3   0  -2 1506.09 69.7164   1
   3   0   2 1470.93 70.2792   3
   3   0   2 1296.12 69.5904   1
  -4   0  -2 571.866 29.5145   1
  -4   0  -2 568.037 29.4720   1
   4   0   2 603.180 29.5825   1
   4   0   2 614.759 29.4114   4
   4   0   2 600.320 30.4200   3
  -5   0  -2 520.200 24.8855   1
  -5   0  -2 478.105 24.8580   1
   5   0   2 498.044 24.8850   1
   5   0   2 434.969 24.6013   4
   5   0   2 537.867 26.3688   3
  -6   0  -2 20.3185 2.41804   1
  -6   0  -2 15.5798 2.24133   1
   6   0   2 15.9513 3.06111   3
   6   0   2 16.6917 2.26833   1
  -7   0  -2 183.289 10.6017   1
  -7   0  -2 197.118 10.5068   1
   7   0   2 194.571 12.4758   3
   7   0   2 166.963 10.3427   1
  -8   0  -2 31.9928 3.62710   1
   8   0   2 39.8266 5.67045   3
  -9   0  -2 169.317 10.3900   1
   9   0   2 171.085 12.9218   3
 -10   0  -2 264.455 15.3733   1
  10   0   2 275.053 18.4221   3
 -11   0  -2 113.393 8.07376   1
  11   0   2 118.246 10.8109   3
  11  -1  -2 28.7128 6.35034   3
 -11   1   2 24.0701 2.82864   1
  10  -1  -2 0.24714 2.79790   3
 -10   1   2 -0.5280 1.11040   1
   9  -1  -2 50.2894 6.91884   3
  -9   1   2 54.2000 3.94463   1
   8  -1  -2 3.49250 2.80059   3
  -8   1   2 7.22717 1.46112   1
   7  -1  -2 460.675 24.9722   3
   7  -1  -2 435.283 21.8599   1
  -7   1   2 459.328 22.1249   1
  -7   1   2 421.205 22.1759   1
   6  -1  -2 235.016 14.1640   3
   6  -1  -2 229.058 11.8782   1
  -6   1   2 242.458 12.1424   1
  -6   1   2 236.133 12.0357   1
   5  -1  -2 675.593 34.0534   3
   5  -1  -2 684.706 31.9954   1
  -5   1   2 610.514 32.0110   1
   4  -1  -2 1152.18 59.5699   1
   4  -1  -2 1268.75 61.2504   3
  -4   1   2 1309.90 63.3662   1
  -4   1   2 1228.72 59.6616   1
   3  -1  -2 896.723 49.3075   3
   3  -1  -2 1050.29 50.6687   1
   3  -1  -2 991.944 48.3323   1
  -3   1   2 944.686 48.3501   1
  -3   1   2 1058.80 49.4110   3
  -3   1   2 1063.98 49.7064   2
  -3   1   2 1010.98 48.6157   1
   2  -1  -2 111.096 6.34797   2
   2  -1  -2 113.865 5.72191   1
   2  -1  -2 110.922 6.33383   3
  -2   1   2 112.454 6.33101   2
  -2   1   2 113.958 5.71080   1
  -2   1   2 105.514 5.69973   1
  -2   1   2 111.290 6.25581   3
   1  -1  -2 3532.23 171.816   1
   1  -1  -2 3671.26 172.990   2
  -1   1   2 3873.29 186.384   3
  -1   1   2 3535.25 172.670   2
  -1   1   2 3252.11 180.276   1
  -1   1   2 3462.02 183.774   1
   0  -1  -2 724.350 37.3335   1
   0  -1  -2 783.175 37.3669   2
   0  -1  -2 795.394 37.4030   1
   0   1   2 806.800 37.3841   2
   0   1   2 767.232 37.3653   1
   0   1   2 736.387 37.3580   1
  -1  -1  -2 175.893 9.17455   2
  -1  -1  -2 199.749 9.44881   1
  -1  -1  -2 193.517 9.42716   1
  -1  -1  -2 177.962 9.28425   3
   1   1   2 177.396 9.27144   3
   1   1   2 182.320 9.41884   1
   1   1   2 178.508 9.36992   1
  -2  -1  -2 1896.53 87.0010   1
  -2  -1  -2 1922.19 91.3782   1
  -2  -1  -2 1726.76 86.7211   3
   2   1   2 1747.53 86.4825   1
   2   1   2 1690.41 86.4891   1
  -3  -1  -2 578.081 30.2910   3
  -3  -1  -2 584.362 29.7912   1
  -3  -1  -2 610.979 29.7777   1
   3   1   2 613.039 29.9793   1
   3   1   2 625.737 30.4295   3
  -4  -1  -2 414.553 20.1823   1
  -4  -1  -2 363.490 20.0994   1
   4   1   2 405.840 20.3242   4
   4   1   2 411.926 21.1576   3
  -5  -1  -2 840.650 41.8929   1
  -5  -1  -2 892.232 42.0160   1
   5   1   2 824.002 41.8287   1
   5   1   2 828.974 43.1974   3
   5   1   2 854.755 42.1064   4
  -6  -1  -2 778.239 38.1424   1
  -6  -1  -2 766.588 38.0315   1
   6   1   2 696.244 39.4995   3
   6   1   2 810.682 38.0943   1
  -7  -1  -2 100.770 6.36709   1
  -7  -1  -2 98.1010 6.19957   1
   7   1   2 94.4190 7.93524   3
   7   1   2 100.535 6.20318   1
  -8  -1  -2 162.986 9.45976   1
   8   1   2 151.004 11.3465   3
  -9  -1  -2 153.061 9.27691   1
   9   1   2 145.167 11.6277   3
 -10  -1  -2 280.974 15.5165   1
  10   1   2 268.101 18.4768   3
 -11  -1  -2 230.364 13.4064   1
  11   1   2 224.670 16.7287   3
  11  -2  -2 49.7147 8.13107   3
 -11   2   2 49.2452 4.34041   1
  10  -2  -2 363.504 23.0949   3
   9  -2  -2 75.6395 8.69428   3
  -9   2   2 71.5576 5.21884   1
   8  -2  -2 53.6890 6.91867   3
  -8   2   2 57.3622 4.26298   1
   7  -2  -2 12.8234 3.40873   3
   7  -2  -2 10.8812 1.51857   1
  -7   2   2 11.6896 1.58019   1
  -7   2   2 10.8609 1.70855   1
   6  -2  -2 510.049 28.1484   1
   6  -2  -2 561.335 30.4461   3
  -6   2   2 584.442 28.4126   1
  -6   2   2 623.007 28.3533   1
   5  -2  -2 1240.50 59.6796   3
  -5   2   2 1183.24 57.7389   1
  -5   2   2 1140.06 57.8158   1
   4  -2  -2 1314.16 63.8437   3
   4  -2  -2 1286.05 62.3831   1
  -4   2   2 1207.42 62.4157   1
  -4   2   2 1337.35 62.4432   1
   3  -2  -2 106.240 6.66346   3
   3  -2  -2 108.344 5.79448   1
  -3   2   2 113.018 5.81175   1
  -3   2   2 102.043 5.79120   1
   2  -2  -2 21.5117 1.60518   1
   2  -2  -2 18.4481 1.99348   3
   2  -2  -2 20.3897 1.52705   1
  -2   2   2 19.3509 1.52938   1
  -2   2   2 19.7553 1.54001   1
  -2   2   2 19.1775 2.05154   2
   1  -2  -2 2384.83 118.199   1
   1  -2  -2 2249.66 110.807   1
  -1   2   2 2394.38 111.180   1
  -1   2   2 2227.29 110.743   2
  -1   2   2 2186.81 110.603   1
   0  -2  -2 5217.45 275.627   1
   0  -2  -2 5478.70 278.538   1
   0   2   2 5555.50 276.107   2
   0   2   2 5554.88 278.709   1
   0   2   2 5232.83 277.321   1
  -1  -2  -2 34.4350 2.36748   1
  -1  -2  -2 35.1192 1.88336   2
  -1  -2  -2 32.0233 2.30115   1
   1   2   2 33.5023 1.86094   2
   1   2   2 37.7050 2.40551   1
   1   2   2 35.2756 2.37120   1
  -2  -2  -2 572.650 26.0932   1
  -2  -2  -2 563.353 26.1198   1
  -2  -2  -2 530.625 26.4176   3
   2   2   2 508.539 25.9949   1
   2   2   2 482.159 26.2464   3
   2   2   2 508.131 26.0038   1
  -3  -2  -2 813.765 36.8334   3
  -3  -2  -2 688.666 35.9302   1
  -3  -2  -2 712.511 35.9798   1
   3   2   2 726.037 36.2950   4
   3   2   2 766.828 35.9990   1
   3   2   2 687.956 36.5148   3
  -4  -2  -2 2960.67 146.864   1
  -4  -2  -2 2808.67 142.054   1
   4   2   2 2989.55 142.206   3
   4   2   2 2827.70 141.093   1
   4   2   2 3065.14 150.757   4
  -5  -2  -2 1208.65 59.9670   1
  -5  -2  -2 1204.66 59.9432   1
   5   2   2 1266.14 61.3481   3
  -6  -2  -2 193.043 10.4020   1
  -6  -2  -2 190.804 10.4232   1
   6   2   2 178.093 11.6844   3
   6   2   2 191.349 10.2732   1
  -7  -2  -2 119.976 6.98324   1
  -7  -2  -2 117.570 7.06100   1
   7   2   2 109.834 6.73157   1
   7   2   2 112.120 8.68082   3
  -8  -2  -2 379.392 20.3664   1
   8   2   2 402.706 22.8445   3
  -9  -2  -2 333.976 17.7951   1
   9   2   2 324.950 20.4137   3
 -10  -2  -2 148.751 9.19107   1
  10   2   2 147.437 11.8101   3
 -11  -2  -2 28.0275 3.60603   1
  11   2   2 31.0681 6.41478   3
  11  -3  -2 29.2389 6.64525   3
 -11   3   2 24.7467 3.40313   1
  10  -3  -2 96.8430 9.77325   3
 -10   3   2 90.0177 6.65550   1
   9  -3  -2 132.047 10.7668   3
  -9   3   2 110.709 7.60051   1
   8  -3  -2 177.948 12.5977   3
  -8   3   2 166.058 9.89106   1
   7  -3  -2 4.25879 1.28824   1
   7  -3  -2 5.21043 2.77533   3
  -7   3   2 4.60006 1.44348   1
   6  -3  -2 115.759 6.87921   1
   6  -3  -2 115.991 8.61243   3
  -6   3   2 122.059 6.90801   1
   5  -3  -2 0.44463 0.83809   1
   5  -3  -2 -0.3439 1.65928   3
  -5   3   2 0.80895 0.95124   1
  -5   3   2 0.74416 0.81359   1
   4  -3  -2 1355.78 66.7140   3
   4  -3  -2 1301.07 65.3499   1
  -4   3   2 1318.25 65.3879   1
  -4   3   2 1399.49 65.5074   1
   3  -3  -2 359.217 17.9317   1
   3  -3  -2 346.984 18.7813   3
  -3   3   2 348.807 17.8848   1
  -3   3   2 366.701 17.9791   1
   2  -3  -2 287.105 14.9756   1
   2  -3  -2 330.257 15.3076   1
  -2   3   2 289.991 15.0022   1
  -2   3   2 282.984 14.9672   1
   1  -3  -2 56.4650 3.44876   1
   1  -3  -2 55.1095 3.42579   1
  -1   3   2 54.9277 3.41692   1
  -1   3   2 57.6058 3.45405   1
   0  -3  -2 2.73055 0.79258   1
   0  -3  -2 2.35870 0.83993   1
   0   3   2 2.90777 0.75745   1
   0   3   2 2.07353 0.82437   1
  -1  -3  -2 11.8507 1.39446   1
  -1  -3  -2 9.17272 1.23243   1
   1   3   2 10.4002 1.50706   4
   1   3   2 8.18003 1.17363   1
   1   3   2 8.95281 1.23318   1
  -2  -3  -2 27.3136 2.12580   1
  -2  -3  -2 25.3568 2.03888   1
  -2  -3  -2 25.5235 2.46549   3
   2   3   2 23.8471 1.99109   1
   2   3   2 26.2790 2.02482   1
   2   3   2 21.6103 2.48082   4
  -3  -3  -2 85.3298 4.31559   2
  -3  -3  -2 87.7679 4.99174   1
  -3  -3  -2 74.3029 4.82996   1
   3   3   2 87.4336 4.91528   1
   3   3   2 80.2420 5.38162   4
  -4  -3  -2 628.668 30.1648   2
  -4  -3  -2 583.918 30.4807   1
  -4  -3  -2 614.643 30.6122   1
   4   3   2 605.420 31.4979   3
   4   3   2 624.176 31.2071   4
   4   3   2 632.938 30.4801   1
  -5  -3  -2 849.161 43.1187   1
  -5  -3  -2 900.444 42.8990   2
  -5  -3  -2 945.886 43.1379   1
   5   3   2 829.747 42.8861   1
   5   3   2 840.860 44.3552   3
  -6  -3  -2 219.537 12.0018   1
  -6  -3  -2 219.205 11.9475   1
   6   3   2 231.222 11.8473   1
   6   3   2 221.428 13.5814   3
  -7  -3  -2 3.36483 1.21282   1
  -7  -3  -2 5.32962 1.45123   1
   7   3   2 1.50698 1.02339   1
   7   3   2 2.09153 1.73260   3
  -8  -3  -2 5.45746 1.58204   1
   8   3   2 9.50112 2.86995   3
  -9  -3  -2 17.3512 2.56499   1
   9   3   2 16.4684 4.16366   3
 -10  -3  -2 185.455 10.8485   1
  10   3   2 187.272 14.0956   3
 -11  -3  -2 91.9985 6.37727   1
  11   3   2 79.4391 9.93984   3
  11  -4  -2 115.983 11.6516   3
 -11   4   2 119.805 8.38898   1
  10  -4  -2 37.3493 6.81312   3
 -10   4   2 40.1000 4.49780   1
   9  -4  -2 -0.1237 2.90894   3
  -9   4   2 -1.4127 1.61904   1
   8  -4  -2 151.178 11.5079   3
  -8   4   2 158.464 9.49269   1
   7  -4  -2 30.8789 3.55911   1
   7  -4  -2 31.1575 5.05246   3
  -7   4   2 33.5392 3.52325   1
   6  -4  -2 84.5291 5.31364   1
   6  -4  -2 72.2276 6.89175   3
  -6   4   2 75.8970 5.15742   1
   5  -4  -2 435.127 22.3700   1
   5  -4  -2 455.691 24.0880   3
  -5   4   2 458.364 22.4159   1
  -5   4   2 407.418 22.4123   1
   4  -4  -2 196.783 10.6479   1
   4  -4  -2 182.637 11.6708   3
  -4   4   2 200.651 10.7372   1
  -4   4   2 205.230 10.6415   1
   3  -4  -2 2.73376 0.98272   1
  -3   4   2 2.59788 0.98550   1
  -3   4   2 1.29039 0.82211   1
   2  -4  -2 1018.99 49.7660   1
  -2   4   2 991.719 49.7530   1
  -2   4   2 1037.41 49.7678   1
   1  -4  -2 22.0695 2.32440   1
   1  -4  -2 22.6709 2.08629   1
  -1   4   2 23.9148 2.04062   1
  -1   4   2 23.1167 2.04506   1
  -1   4   2 26.4649 2.10349   4
   0  -4  -2 113.810 6.51876   1
   0  -4  -2 115.119 6.50160   1
   0   4   2 107.993 6.43416   1
   0   4   2 138.300 6.62249   1
   0   4   2 110.933 6.59391   4
  -1  -4  -2 236.922 11.8320   1
  -1  -4  -2 212.190 11.6708   1
   1   4   2 223.654 11.7074   1
   1   4   2 231.946 12.0900   4
  -2  -4  -2 182.351 9.66514   1
  -2  -4  -2 171.258 9.55284   1
   2   4   2 181.848 10.0683   4
   2   4   2 185.060 8.80799   2
   2   4   2 178.310 9.54184   1
  -3  -4  -2 778.209 38.8113   1
  -3  -4  -2 797.351 38.7503   1
   3   4   2 780.367 38.6687   1
   3   4   2 791.050 39.4572   4
  -4  -4  -2 609.375 30.6332   1
  -4  -4  -2 627.579 30.5574   1
  -4  -4  -2 599.111 29.9229   2
   4   4   2 622.962 30.4588   1
  -5  -4  -2 204.456 11.0274   1
  -5  -4  -2 222.099 11.2534   1
  -5  -4  -2 200.680 10.6091   2
   5   4   2 200.136 10.8624   1
  -6  -4  -2 1.74896 0.87187   2
  -6  -4  -2 1.07356 0.99879   1
  -6  -4  -2 0.70368 0.89257   1
   6   4   2 2.39919 0.88724   1
   6   4   2 0.92015 1.83774   3
  -7  -4  -2 31.6425 2.90339   1
   7   4   2 30.3022 4.55827   3
  -8  -4  -2 0.90053 1.13658   1
   8   4   2 0.38786 2.29762   3
  -9  -4  -2 3.65233 1.43444   1
   9   4   2 -0.7415 2.74468   3
 -10  -4  -2 3.92582 1.64949   1
  10   4   2 8.64517 3.92507   3
 -11  -4  -2 8.78218 2.03160   1
  11   4   2 12.9631 4.32245   3
  11  -5  -2 41.8564 7.99671   3
 -11   5   2 36.5681 4.72512   1
  10  -5  -2 183.977 14.6723   3
 -10   5   2 179.190 11.4967   1
   9  -5  -2 155.501 12.5057   3
  -9   5   2 163.907 10.3195   1
   8  -5  -2 38.8997 6.30679   3
  -8   5   2 41.3559 4.45602   1
   7  -5  -2 47.8040 6.40961   3
  -7   5   2 50.5089 4.38241   1
   6  -5  -2 41.0855 3.91785   1
   6  -5  -2 53.5070 6.15858   3
   5  -5  -2 1007.93 52.3776   3
   5  -5  -2 1070.61 50.8484   1
  -5   5   2 994.448 50.8773   1
   4  -5  -2 857.658 41.5343   1
   4  -5  -2 794.252 42.6467   3
  -4   5   2 849.631 41.6387   1
   3  -5  -2 1386.60 71.4868   1
  -3   5   2 1541.06 71.6838   1
   2  -5  -2 186.669 10.2184   1
  -2   5   2 184.884 10.2177   1
  -2   5   2 188.263 9.81240   4
   1  -5  -2 704.724 34.3411   1
  -1   5   2 706.702 34.3571   1
  -1   5   2 662.324 34.1595   4
   0  -5  -2 793.713 39.3746   1
   0  -5  -2 809.346 39.8221   1
   0   5   2 796.003 39.4080   1
   0   5   2 791.353 39.5275   4
  -1  -5  -2 375.242 17.4854   1
  -1  -5  -2 336.224 17.3350   1
   1   5   2 327.859 17.6980   4
   1   5   2 316.352 17.2096   1
  -2  -5  -2 617.177 29.3163   1
  -2  -5  -2 646.214 29.4833   1
   2   5   2 550.215 28.6132   2
   2   5   2 547.777 29.1963   1
  -3  -5  -2 320.172 15.7694   1
  -3  -5  -2 277.701 15.4776   1
   3   5   2 299.501 15.5040   1
   3   5   2 308.528 14.8148   2
  -4  -5  -2 1010.90 49.3563   1
  -4  -5  -2 1021.92 49.4891   1
   4   5   2 979.387 49.1672   1
  -5  -5  -2 622.669 32.2114   2
  -5  -5  -2 654.758 33.0220   1
  -5  -5  -2 698.081 32.9509   1
   5   5   2 666.547 32.7099   1
  -6  -5  -2 352.290 18.5127   1
  -6  -5  -2 348.941 18.6851   1
  -6  -5  -2 371.525 18.1399   2
  -7  -5  -2 52.8570 3.99074   1
  -8  -5  -2 36.8157 3.57004   1
  -9  -5  -2 208.324 11.6652   1
 -10  -5  -2 86.4111 5.92317   1
 -11  -5  -2 98.8857 6.52355   1
  10  -6  -2 58.4702 8.51788   3
 -10   6   2 34.6537 4.78783   1
   9  -6  -2 66.5237 9.00525   3
  -9   6   2 63.8189 5.87653   1
   8  -6  -2 182.923 14.3030   3
  -8   6   2 212.099 12.2628   1
   7  -6  -2 457.399 26.3644   3
   6  -6  -2 187.858 13.0882   3
   6  -6  -2 205.261 11.6407   1
   5  -6  -2 271.354 16.0769   3
   5  -6  -2 256.309 14.3379   1
  -5   6   2 254.599 14.4578   1
   4  -6  -2 511.668 25.4322   1
  -4   6   2 473.943 25.4255   1
   3  -6  -2 2140.26 104.156   1
  -3   6   2 2133.76 104.197   1
   2  -6  -2 1686.08 77.5208   1
  -2   6   2 1480.09 77.3756   1
   1  -6  -2 1812.37 88.4108   1
  -1   6   2 1813.67 88.4282   1
   0  -6  -2 273.262 15.2556   1
   0   6   2 310.499 15.4329   1
  -1  -6  -2 878.928 44.3358   1
   1   6   2 916.508 44.3811   1
  -2  -6  -2 1032.11 45.0738   1
  -2  -6  -2 854.493 44.7389   1
   2   6   2 873.568 44.2142   2
   2   6   2 877.733 44.7718   1
  -3  -6  -2 792.131 36.6470   1
  -3  -6  -2 694.357 36.3205   1
   3   6   2 719.440 35.6419   2
   3   6   2 726.068 36.2847   1
  -4  -6  -2 771.632 38.8254   1
  -4  -6  -2 734.422 38.5784   1
   4   6   2 829.678 38.5925   1
  -5  -6  -2 1026.09 49.2025   1
  -5  -6  -2 982.237 48.9270   1
   5   6   2 968.920 48.7245   1
  -6  -6  -2 1127.20 55.4608   1
  -7  -6  -2 217.055 11.8937   1
  -8  -6  -2 253.280 13.7689   1
  -9  -6  -2 2.24792 1.39524   1
 -10  -6  -2 19.9204 2.70763   1
  10  -7  -2 207.562 16.2260   3
 -10   7   2 192.663 12.9151   1
   9  -7  -2 141.198 12.2465   3
  -9   7   2 123.984 9.42080   1
   8  -7  -2 12.2057 4.53120   3
  -8   7   2 14.6865 3.10813   1
   7  -7  -2 7.56050 3.75714   3
   6  -7  -2 28.0200 5.02364   3
   6  -7  -2 23.2712 3.41577   1
   5  -7  -2 340.641 18.0236   1
   5  -7  -2 327.776 19.5315   3
  -5   7   2 319.585 18.0888   1
   4  -7  -2 259.846 13.9538   1
  -4   7   2 235.488 13.8791   1
   3  -7  -2 267.397 14.6826   1
  -3   7   2 265.629 14.7057   1
   2  -7  -2 750.525 36.6868   1
  -2   7   2 702.368 36.5964   1
   1  -7  -2 1006.33 50.1665   1
  -1   7   2 1015.76 50.2234   1
   0  -7  -2 292.510 16.4658   1
   0   7   2 331.741 16.6471   1
  -1  -7  -2 70.3289 4.70252   1
   1   7   2 60.1596 4.50617   1
  -2  -7  -2 20.2104 2.58789   1
   2   7   2 26.7412 2.82349   1
   2   7   2 23.8973 2.10917   2
  -3  -7  -2 39.7728 3.55181   1
  -3  -7  -2 52.1212 3.89104   1
   3   7   2 45.1413 2.96045   2
   3   7   2 47.5970 3.60996   1
  -4  -7  -2 495.413 27.1947   1
  -4  -7  -2 524.963 27.1130   1
   4   7   2 522.198 26.3081   2
   4   7   2 597.206 27.1575   1
  -5  -7  -2 549.807 27.0643   1
   5   7   2 515.040 26.8943   1
  -6  -7  -2 72.9150 5.04468   1
  -7  -7  -2 99.4746 6.37235   1
  -8  -7  -2 135.338 8.12730   1
  -9  -7  -2 45.7490 4.00985   1
 -10  -7  -2 27.0065 3.04977   1
   9  -8  -2 17.5054 5.61891   3
  -9   8   2 14.6396 3.48854   1
   8  -8  -2 140.682 11.9157   3
  -8   8   2 149.745 10.3025   1
   7  -8  -2 11.0621 4.18204   3
  -7   8   2 11.8098 2.89819   1
   6  -8  -2 48.8779 5.16076   1
   6  -8  -2 52.6625 7.11756   3
   5  -8  -2 23.8587 4.29921   3
   5  -8  -2 17.2314 3.10740   1
  -5   8   2 14.9354 3.08163   1
   4  -8  -2 74.2939 5.58557   1
  -4   8   2 66.3382 5.64035   1
   3  -8  -2 285.335 15.4070   1
  -3   8   2 263.297 15.3154   1
   2  -8  -2 21.2736 3.03900   1
  -2   8   2 22.2803 2.97443   1
   1  -8  -2 82.9603 5.86901   1
  -1   8   2 78.4482 5.74943   1
   0  -8  -2 -0.6692 0.94112   1
   0   8   2 0.38095 1.18565   1
  -1  -8  -2 342.989 17.8156   1
   1   8   2 321.304 17.6551   1
  -2  -8  -2 0.40196 1.42834   1
   2   8   2 1.53669 1.32193   1
   2   8   2 7.32055 1.45000   2
  -3  -8  -2 21.3713 2.76884   1
   3   8   2 24.0182 2.78306   1
   3   8   2 23.6284 2.17587   2
  -4  -8  -2 25.3823 2.95583   1
   4   8   2 21.0294 2.59262   1
   4   8   2 20.9455 2.01245   2
  -5  -8  -2 120.759 7.54442   1
  -6  -8  -2 57.6049 4.56062   1
  -7  -8  -2 117.511 7.45589   1
  -8  -8  -2 0.79898 1.48372   1
  -9  -8  -2 9.57861 2.17885   1
   8  -9  -2 50.6095 7.67901   3
  -8   9   2 37.1739 5.09748   1
   7  -9  -2 27.1258 5.99249   3
  -7   9   2 26.9583 4.26072   1
   6  -9  -2 172.346 11.2266   1
   6  -9  -2 169.973 13.2790   3
   5  -9  -2 13.3314 2.93349   1
  -5   9   2 15.5815 3.22619   1
   4  -9  -2 6.75063 2.47193   1
  -4   9   2 7.49291 2.42361   1
   3  -9  -2 39.4523 4.59421   1
  -3   9   2 45.8185 4.83678   1
   2  -9  -2 542.044 28.1158   1
  -2   9   2 528.869 28.1013   1
   1  -9  -2 387.939 21.5828   1
  -1   9   2 419.487 21.7031   1
   0  -9  -2 45.3007 4.61863   1
   0   9   2 47.9396 4.27029   1
  -1  -9  -2 31.4021 3.75749   1
   1   9   2 39.5329 3.97783   1
  -2  -9  -2 -0.4295 1.46903   1
   2   9   2 -0.5032 1.05978   2
   2   9   2 0.40001 1.46129   1
  -3  -9  -2 711.806 36.6402   1
   3   9   2 738.558 36.6241   1
   3   9   2 717.125 35.8908   2
  -4  -9  -2 179.115 10.5629   1
  -5  -9  -2 23.2582 3.04692   1
  -6  -9  -2 136.980 8.54883   1
  -7  -9  -2 348.927 18.7018   1
  -8  -9  -2 251.907 14.0720   1
  -9  -9  -2 41.1322 4.22900   1
   7 -10  -2 98.3661 10.1367   3
  -7  10   2 82.3456 7.80413   1
   6 -10  -2 34.3232 6.49975   3
   5 -10  -2 59.5990 6.12983   1
   4 -10  -2 183.460 11.7501   1
  -4  10   2 185.653 11.9481   1
   3 -10  -2 174.257 11.0749   1
  -3  10   2 169.480 11.1170   1
   2 -10  -2 547.056 29.9805   1
  -2  10   2 595.525 30.2668   1
   1 -10  -2 133.748 9.46686   1
  -1  10   2 158.843 9.73586   1
   0 -10  -2 1099.56 55.1167   1
   0  10   2 1093.22 55.0786   1
  -1 -10  -2 158.771 10.4724   1
   1  10   2 183.544 10.6120   1
  -2 -10  -2 -0.5655 1.63492   1
   2  10   2 -0.9442 1.14800   1
   2  10   2 -1.1637 1.08580   2
  -3 -10  -2 3.18737 1.88069   1
  -4 -10  -2 117.750 8.01927   1
  -5 -10  -2 590.659 30.5837   1
  -6 -10  -2 617.773 31.8745   1
  -7 -10  -2 282.510 15.8240   1
  -8 -10  -2 117.904 7.99103   1
   6 -11  -2 9.76143 4.38442   3
   5 -11  -2 7.21553 3.05001   1
   4 -11  -2 -0.3751 2.10859   1
  -4  11   2 2.80705 2.29647   1
   3 -11  -2 212.561 13.3178   1
  -3  11   2 211.326 13.4391   1
   2 -11  -2 428.397 22.7823   1
  -2  11   2 388.757 22.6008   1
   1 -11  -2 40.2486 4.93154   1
  -1  11   2 37.1993 4.72405   1
   0 -11  -2 133.163 9.10396   1
   0  11   2 124.429 8.82185   1
  -1 -11  -2 3.96597 2.22718   1
  -2 -11  -2 352.474 19.5981   1
  -3 -11  -2 -1.1740 1.79052   1
  -4 -11  -2 39.3431 4.61975   1
  -5 -11  -2 2.24503 1.95773   1
  -6 -11  -2 240.452 14.0206   1
  -7 -11  -2 309.877 17.3230   1
   5 -12  -2 10.5297 3.61347   1
   4 -12  -2 -1.7752 2.49235   1
   3 -12  -2 9.54197 3.23654   1
  -3  12   2 11.8284 3.07147   1
   2 -12  -2 -0.7487 2.21977   1
  -2  12   2 0.94359 1.78837   1
   1 -12  -2 120.520 8.82218   1
  -1  12   2 106.463 8.44723   1
   0 -12  -2 103.738 8.22165   1
  -1 -12  -2 40.3947 5.15665   1
  -2 -12  -2 0.60428 2.32123   1
  -3 -12  -2 1.81965 2.38438   1
  -4 -12  -2 27.7343 4.16107   1
  -5 -12  -2 69.0406 6.32491   1
   2 -13  -2 32.3329 4.96498   1
   1 -13  -2 90.5350 7.99583   1
   0 -13  -2 147.433 10.6304   1
  -1 -13  -2 248.659 15.3553   1
  -2 -13  -2 168.545 11.4585   1
  -3 -13  -2 4.19682 2.75827   1
  -3 -11   3 273.954 16.1736   1
   2  11  -3 38.7764 5.68705   2
  -2 -11   3 43.6414 5.15829   1
   1  11  -3 31.8799 4.97297   2
  -1 -11   3 28.5433 4.45447   1
   0  11  -3 23.8183 4.56041   2
   0 -11   3 25.8974 4.44022   1
  -1  11  -3 78.2104 7.50645   2
   1 -11   3 63.5480 7.03196   1
  -2  11  -3 66.0236 7.71334   2
   2 -11   3 66.5389 7.26834   1
  -5 -10   3 -1.4185 1.47985   1
  -4 -10   3 24.9012 3.60308   1
   3  10  -3 114.628 9.15670   2
  -3 -10   3 128.724 8.64363   1
   2  10  -3 175.440 12.5892   2
  -2 -10   3 205.881 12.1145   1
   1  10  -3 52.5190 6.29120   2
  -1 -10   3 55.4271 5.75534   1
   0  10  -3 21.3401 4.16266   2
   0 -10   3 21.3788 3.78761   1
  -1  10  -3 27.7642 4.74075   2
   1 -10   3 20.1452 4.08492   1
  -2  10  -3 8.09248 3.30806   2
   2 -10   3 5.59960 2.99367   1
   3 -10   3 114.698 9.35981   1
  -4  10  -3 85.9373 7.63276   1
   4 -10   3 69.6013 7.71660   1
  -5  10  -3 9.40910 3.39862   1
   5 -10   3 7.33361 3.24668   1
  -7  -9   3 -1.3370 1.10060   1
  -6  -9   3 7.92357 2.00235   1
   5   9  -3 35.0188 4.56774   2
  -5  -9   3 28.3473 3.46747   1
   4   9  -3 38.4489 4.99660   2
  -4  -9   3 38.1665 4.21103   1
   3   9  -3 2.17928 2.22371   2
  -3  -9   3 2.89372 1.98926   1
   2   9  -3 82.6853 7.00861   2
  -2  -9   3 73.9115 6.26093   1
   1   9  -3 155.404 10.9450   2
  -1  -9   3 170.456 10.5373   1
   0   9  -3 67.2926 6.37702   2
   0  -9   3 57.5562 5.89015   1
  -1   9  -3 1.92406 1.76922   2
   1  -9   3 -3.4135 1.55972   1
  -2   9  -3 8.35914 2.61138   1
   2  -9   3 7.39389 2.68494   1
  -3   9  -3 29.5561 4.50358   1
   3  -9   3 19.9459 4.12890   1
  -4   9  -3 168.053 11.8253   1
   4  -9   3 177.938 12.1289   1
  -5   9  -3 244.474 15.4379   1
   5  -9   3 232.468 15.2997   1
  -6   9  -3 146.295 11.5275   1
   6  -9   3 182.347 14.0369   3
   6  -9   3 160.295 11.9292   1
  -7  -8   3 50.8959 3.86558   1
   6   8  -3 -1.7957 1.68720   2
  -6  -8   3 0.73391 1.19178   1
   5   8  -3 13.2187 2.95379   2
  -5  -8   3 10.4685 2.10057   1
   4   8  -3 270.813 15.4411   2
  -4  -8   3 246.757 14.1837   1
   3   8  -3 557.939 29.7237   2
  -3  -8   3 554.793 28.7292   1
   2   8  -3 736.269 39.2007   2
  -2  -8   3 773.553 38.4775   1
   1   8  -3 208.825 12.7774   2
  -1  -8   3 194.612 11.9069   1
   0   8  -3 62.0255 5.32992   2
   0   8  -3 53.2703 4.83766   1
   0  -8   3 41.0526 4.77461   1
  -1   8  -3 62.4499 5.39009   1
  -1   8  -3 61.5148 5.62469   2
   1  -8   3 60.9792 5.63904   1
  -2   8  -3 167.659 10.9113   1
   2  -8   3 172.674 11.1308   1
  -3   8  -3 364.874 20.3259   1
   3  -8   3 351.607 20.3497   1
  -4   8  -3 120.088 9.45208   1
   4  -8   3 154.504 10.2056   1
  -5   8  -3 242.015 14.6745   1
   5  -8   3 234.820 14.6207   1
   5  -8   3 211.020 15.5430   3
  -6   8  -3 329.902 19.6606   1
   6  -8   3 326.870 19.6768   1
   6  -8   3 328.598 21.1367   3
  -7   8  -3 384.880 22.0776   1
   7  -8   3 341.409 22.1962   1
   7  -8   3 382.363 24.0658   3
   7   7  -3 191.112 12.3374   2
  -7  -7   3 193.286 10.2670   1
   6   7  -3 121.889 8.24567   2
  -6  -7   3 101.653 6.42143   1
   5   7  -3 144.110 9.52499   2
  -5  -7   3 138.016 8.19612   1
   4   7  -3 -2.7146 1.29309   2
  -4  -7   3 -1.5644 1.10165   1
   3   7  -3 289.405 17.1014   2
  -3  -7   3 312.443 16.2351   1
   2   7  -3 808.838 41.8292   2
  -2  -7   3 821.689 41.0186   1
   1   7  -3 582.952 30.6040   1
   1   7  -3 571.405 31.3459   2
  -1  -7   3 640.185 30.8435   1
   0   7  -3 160.442 10.6179   1
   0   7  -3 186.905 11.4964   2
   0  -7   3 199.923 11.0157   1
  -1   7  -3 -0.7678 1.16564   2
  -1   7  -3 1.23577 1.43005   1
   1  -7   3 -2.2020 1.51703   1
  -2   7  -3 406.786 21.5657   1
   2  -7   3 382.408 21.5042   1
  -3   7  -3 443.117 24.3588   1
   3  -7   3 457.159 24.5089   1
  -4   7  -3 293.289 17.0815   1
   4  -7   3 291.563 17.1091   1
  -5   7  -3 236.441 14.3627   1
   5  -7   3 218.946 15.3782   3
   5  -7   3 235.166 14.3563   1
  -6   7  -3 134.956 9.74695   1
   6  -7   3 123.325 10.9072   3
   6  -7   3 129.375 9.69526   1
  -7   7  -3 210.683 13.6475   1
   7  -7   3 182.306 13.1913   1
   7  -7   3 215.707 15.5299   3
  -8   7  -3 155.693 11.7614   1
   8  -7   3 167.325 13.8087   3
   8   6  -3 194.746 12.5210   2
   7   6  -3 3.52507 2.13636   2
  -7  -6   3 1.83584 0.77163   1
   6   6  -3 25.9502 3.90149   2
  -6  -6   3 27.2358 2.37006   1
   5   6  -3 12.8834 2.72453   2
  -5  -6   3 14.8089 1.92462   1
   4   6  -3 170.618 10.7877   2
  -4  -6   3 178.341 9.72673   1
   3   6  -3 266.380 15.6188   2
  -3  -6   3 283.956 14.7116   1
   2   6  -3 24.5168 3.42134   2
   2   6  -3 18.0306 2.32856   1
  -2  -6   3 19.0780 2.51242   1
  -2  -6   3 15.5037 2.13503   1
   1   6  -3 168.984 10.8484   2
   1   6  -3 188.201 10.2380   1
  -1  -6   3 177.625 10.0441   1
  -1  -6   3 173.120 10.1830   1
   0   6  -3 10.0234 2.45373   2
   0   6  -3 14.9670 2.35927   1
   0  -6   3 12.5958 2.29908   1
  -1   6  -3 35.5433 3.92998   1
   1  -6   3 33.5747 3.83341   1
  -2   6  -3 2.06811 1.52880   1
   2  -6   3 -0.2308 1.57416   1
  -3   6  -3 41.8752 4.61642   1
   3  -6   3 43.3686 4.68715   1
  -4   6  -3 4.31053 2.07268   1
   4  -6   3 4.59648 2.30444   1
  -5   6  -3 204.591 12.2193   1
   5  -6   3 181.003 13.0647   3
   5  -6   3 182.120 11.8971   1
  -6   6  -3 80.0210 6.86737   1
   6  -6   3 73.3905 7.93487   3
   6  -6   3 76.4119 6.84388   1
  -7   6  -3 192.075 12.7629   1
   7  -6   3 199.378 12.7735   1
   7  -6   3 189.421 14.3630   3
  -8   6  -3 0.41784 2.21207   1
   8  -6   3 -0.2393 3.51829   3
  -9   6  -3 0.38214 2.21631   1
   9  -6   3 -4.8776 3.09607   3
   7   5  -3 110.497 7.82440   2
  -7  -5   3 102.751 5.31561   1
   6   5  -3 45.5834 5.21882   2
  -6  -5   3 50.1185 3.09854   1
   5   5  -3 200.222 11.5956   2
  -5  -5   3 184.209 9.91108   1
  -5  -5   3 188.899 9.95586   1
   4   5  -3 2.69332 0.75771   1
   4   5  -3 2.44692 1.63331   2
  -4  -5   3 3.53094 1.11288   1
  -4  -5   3 2.58525 1.01158   1
   3   5  -3 215.948 12.5256   2
  -3  -5   3 210.141 11.5300   1
  -3  -5   3 222.654 11.4982   1
   2   5  -3 1345.28 64.5677   2
   2   5  -3 1297.04 63.4885   1
  -2  -5   3 1247.26 63.5062   1
  -2  -5   3 1301.71 63.4509   1
   1   5  -3 494.948 26.5881   2
   1   5  -3 487.007 25.8441   1
  -1  -5   3 573.419 25.9394   1
  -1  -5   3 484.411 25.8535   1
   0   5  -3 9.94307 1.85712   1
   0   5  -3 11.3293 2.39907   2
   0  -5   3 11.8090 2.00494   1
   0  -5   3 12.1026 1.88401   1
  -1   5  -3 260.284 14.4293   1
   1  -5   3 266.366 14.5085   1
  -2   5  -3 10.4888 2.16990   1
   2  -5   3 8.03358 1.94337   1
  -3   5  -3 13.3438 2.51675   1
   3  -5   3 6.37403 2.08372   1
  -4   5  -3 78.9139 6.04329   1
   4  -5   3 81.2849 6.20218   1
  -5   5  -3 15.2827 2.93562   1
   5  -5   3 16.1757 3.01869   1
   5  -5   3 16.7303 3.66587   3
  -6   5  -3 226.868 13.9205   1
   6  -5   3 227.898 13.8985   1
   6  -5   3 234.010 15.3875   3
  -7   5  -3 519.563 27.8317   1
   7  -5   3 499.558 27.6244   1
   7  -5   3 512.308 29.3777   3
  -8   5  -3 35.3900 4.81912   1
   8  -5   3 18.9785 5.32535   3
  -9   5  -3 -2.3586 1.61200   1
   9  -5   3 -4.3446 3.32621   3
 -10   5  -3 9.68385 3.21832   1
  10  -5   3 0.10564 3.83530   3
   7   4  -3 333.691 18.7727   2
   6   4  -3 -0.5689 1.54007   2
  -6  -4   3 -0.1202 0.33866   1
  -6  -4   3 0.64538 0.33879   1
   5   4  -3 504.124 25.8130   2
  -5  -4   3 489.467 24.0069   1
  -5  -4   3 474.036 23.9327   1
   4   4  -3 370.841 18.6764   1
   4   4  -3 419.987 20.5699   2
  -4  -4   3 383.337 18.9650   1
  -4  -4   3 358.693 18.9576   1
   3   4  -3 421.857 20.3162   1
   3   4  -3 393.041 21.4149   2
  -3  -4   3 385.747 20.3690   1
  -3  -4   3 422.853 20.3976   1
   2   4  -3 1386.52 65.5810   1
   2   4  -3 1344.17 66.5618   2
  -2  -4   3 1366.03 65.5392   1
  -2  -4   3 1284.33 65.5536   1
   1   4  -3 777.465 38.9287   1
   1   4  -3 802.361 39.7153   2
  -1  -4   3 801.916 38.9887   1
  -1  -4   3 766.391 38.8388   1
   0   4  -3 2127.84 100.145   2
   0   4  -3 2107.35 99.5871   1
   0  -4   3 1965.66 99.3449   1
   0  -4   3 1982.06 99.5016   1
  -1   4  -3 320.037 16.9182   1
   1  -4   3 318.158 16.9216   1
  -2   4  -3 155.783 8.60449   1
   2  -4   3 124.472 8.30900   1
  -3   4  -3 42.6499 4.09090   1
   3  -4   3 57.1723 4.40571   1
  -4   4  -3 840.357 42.3862   1
   4  -4   3 883.920 42.4785   1
   4  -4   3 787.611 42.9745   3
  -5   4  -3 31.5534 3.88824   1
   5  -4   3 31.7562 4.85568   3
   5  -4   3 27.9341 3.69930   1
  -6   4  -3 169.165 9.92635   1
   6  -4   3 137.249 10.4205   3
   6  -4   3 133.047 9.37712   1
  -7   4  -3 146.956 9.67423   1
   7  -4   3 130.421 11.0850   3
   7  -4   3 143.703 9.55847   1
  -8   4  -3 289.444 17.3060   1
   8  -4   3 308.535 19.6640   3
  -9   4  -3 149.808 10.8434   1
   9  -4   3 160.666 13.1291   3
 -10   4  -3 85.8796 7.58801   1
  10  -4   3 75.9672 9.87741   3
   7   3  -3 568.431 30.0064   2
   6   3  -3 533.108 28.0217   2
   5   3  -3 237.576 13.2515   2
  -5  -3   3 222.917 11.2285   1
  -5  -3   3 228.649 11.2626   1
   4   3  -3 156.864 9.63252   2
  -4  -3   3 158.747 8.23992   1
  -4  -3   3 168.585 8.33672   1
   3   3  -3 1937.42 89.3589   1
   3   3  -3 1975.00 90.7470   2
  -3  -3   3 1783.17 89.4252   1
  -3  -3   3 1716.69 89.4586   1
   2   3  -3 926.171 46.6640   2
  -2  -3   3 936.081 45.8378   1
  -2  -3   3 949.576 45.7887   1
   1   3  -3 199.791 11.1582   1
   1   3  -3 201.940 11.7487   2
  -1  -3   3 221.010 11.2875   1
  -1  -3   3 230.504 11.2317   1
   0   3  -3 1098.62 51.9453   1
   0   3  -3 1050.07 52.4016   2
   0  -3   3 1023.89 51.9008   1
  -1   3  -3 1353.50 66.1734   1
   1  -3   3 1347.69 66.1829   1
  -2   3  -3 1404.01 68.2314   1
   2  -3   3 1375.04 68.1876   1
  -3   3  -3 136.875 8.45645   1
   3  -3   3 146.313 8.59638   1
  -4   3  -3 327.845 19.2816   1
   4  -3   3 389.621 20.3079   3
   4  -3   3 379.672 19.5048   1
  -5   3  -3 72.4597 5.69197   1
   5  -3   3 84.4781 5.92929   1
   5  -3   3 71.2941 6.46222   3
  -6   3  -3 1156.60 58.5653   1
   6  -3   3 1191.27 60.0501   3
   6  -3   3 1164.07 58.5144   1
  -7   3  -3 231.838 13.7395   1
   7  -3   3 234.610 13.7355   1
   7  -3   3 234.594 15.2591   3
  -8   3  -3 36.0845 4.63946   1
   8  -3   3 46.8334 6.75749   3
  -9   3  -3 38.0526 4.81149   1
   9  -3   3 30.9726 6.10747   3
 -10   3  -3 39.5949 5.31131   1
  10  -3   3 47.6837 7.87792   3
 -11   3  -3 54.1854 6.31238   1
  11  -3   3 43.7437 7.90142   3
  11   2  -3 31.8443 6.41136   3
  10   2  -3 83.5417 8.30766   3
   9   2  -3 82.0080 8.29129   3
   8   2  -3 68.1262 7.08462   3
   7   2  -3 7.17424 2.59364   3
   6   2  -3 661.448 34.8566   2
   6   2  -3 694.326 35.5672   3
   5   2  -3 184.256 11.4300   3
   5   2  -3 194.592 11.2331   2
   4   2  -3 278.710 14.6633   2
  -4  -2   3 250.105 12.9201   1
  -4  -2   3 270.575 12.9797   1
   3   2  -3 4.54694 0.54433   1
   3   2  -3 3.84238 1.45358   2
   3   2  -3 4.85478 0.49483   1
  -3  -2   3 9.26301 0.93252   1
   2   2  -3 102.145 6.08929   2
   2   2  -3 95.6502 5.17548   1
  -2  -2   3 89.6489 5.21422   1
  -2  -2   3 96.7037 5.96512   3
   1   2  -3 1504.66 73.5816   1
   1   2  -3 1516.45 74.1850   2
  -1  -2   3 1519.82 73.5444   1
  -1  -2   3 1528.34 73.6253   1
   0   2  -3 496.665 28.0686   2
   0   2  -3 548.215 27.7446   1
   0  -2   3 538.636 27.7837   1
   0  -2   3 650.894 27.8333   1
  -1   2  -3 187.579 10.7704   1
   1  -2   3 199.678 10.8535   1
   1  -2   3 216.288 10.7671   1
  -2   2  -3 223.450 11.9153   1
   2  -2   3 215.863 11.8655   1
  -3   2  -3 712.008 35.3425   1
   3  -2   3 689.418 35.6932   3
   3  -2   3 710.911 35.3232   1
  -4   2  -3 123.495 7.56250   1
   4  -2   3 122.647 7.60219   1
   4  -2   3 121.448 8.14922   3
  -5   2  -3 1.18376 1.27501   1
   5  -2   3 0.87535 1.83010   3
   5  -2   3 2.41435 1.58346   1
  -6   2  -3 35.5041 4.05660   1
   6  -2   3 33.8812 4.88723   3
   6  -2   3 35.1681 2.78400   4
   6  -2   3 35.0582 3.90513   1
  -7   2  -3 422.698 21.8735   1
   7  -2   3 396.315 21.5846   1
   7  -2   3 389.612 23.2783   3
  -8   2  -3 479.540 25.4496   1
   8  -2   3 469.624 27.3909   3
  -9   2  -3 82.3669 6.66263   1
   9  -2   3 80.3838 9.52373   3
 -10   2  -3 1.07143 2.23432   1
  10  -2   3 -3.5205 3.05001   3
 -11   2  -3 -1.2341 1.89739   1
  11  -2   3 6.58226 4.59442   3
  11   1  -3 1.08048 3.18199   3
  10   1  -3 6.53197 3.74190   3
   9   1  -3 254.547 16.7817   3
   8   1  -3 37.9762 5.64139   3
   7   1  -3 174.369 11.7683   3
   6   1  -3 19.5449 3.52583   3
   5   1  -3 215.175 12.7818   3
   5   1  -3 220.559 12.5375   2
   4   1  -3 91.8824 6.34453   3
   4   1  -3 94.3720 6.19812   2
  -4  -1   3 94.8779 4.61291   1
   3   1  -3 56.1832 4.06263   3
   3   1  -3 50.5544 3.92493   2
  -3  -1   3 55.0851 4.41054   3
  -3  -1   3 53.0441 2.91988   1
  -3  -1   3 55.8180 2.97088   1
   2   1  -3 0.50307 0.76913   2
   2   1  -3 0.57432 0.34215   1
   2   1  -3 0.07780 0.36867   1
  -2  -1   3 0.42237 0.71514   3
  -2  -1   3 0.65900 0.47035   1
  -2  -1   3 0.30951 0.43891   1
   1   1  -3 365.475 18.1265   1
   1   1  -3 354.467 18.1827   1
   1   1  -3 363.820 18.7939   2
  -1  -1   3 354.020 18.1884   1
  -1  -1   3 410.877 18.8477   2
  -1  -1   3 353.566 18.2250   1
   0   1  -3 1588.89 76.6737   2
   0   1  -3 1578.93 76.2347   1
   0   1  -3 1532.82 76.2732   1
   0  -1   3 1594.96 76.3580   1
   0  -1   3 1570.87 76.2604   1
  -1   1  -3 2005.10 95.6156   1
  -1   1  -3 1873.82 95.6394   1
   1  -1   3 1989.73 95.6239   1
   1  -1   3 2025.21 95.7700   1
  -2   1  -3 409.016 20.4783   1
  -2   1  -3 405.763 20.3772   1
   2  -1   3 386.001 20.4574   3
   2  -1   3 403.348 20.4438   1
   2  -1   3 403.021 20.3640   1
  -3   1  -3 50.3661 3.71995   1
   3  -1   3 50.4129 3.95924   3
   3  -1   3 47.8912 3.66961   1
  -4   1  -3 414.869 21.7791   1
   4  -1   3 425.468 22.4547   3
   4  -1   3 423.671 21.7767   1
  -5   1  -3 391.779 20.7678   1
   5  -1   3 368.804 21.5560   3
   5  -1   3 427.840 20.8394   1
  -6   1  -3 407.815 21.2777   1
   6  -1   3 428.627 20.6325   4
   6  -1   3 385.853 22.4308   3
   6  -1   3 379.621 21.1043   1
  -7   1  -3 123.200 8.09843   1
   7  -1   3 135.734 8.24547   1
   7  -1   3 114.486 9.49515   3
  -8   1  -3 71.5869 6.11343   1
   8  -1   3 102.512 8.70928   3
  -9   1  -3 114.741 8.13666   1
   9  -1   3 120.180 10.5222   3
 -10   1  -3 195.056 11.7543   1
  10  -1   3 164.916 13.5148   3
 -11   1  -3 18.4473 3.61058   1
  11  -1   3 24.3369 6.25613   3
  11   0  -3 34.5917 6.52163   3
  10   0  -3 14.7791 4.62512   3
 -10   0   3 12.6607 1.41580   1
   9   0  -3 214.863 14.6670   3
  -9   0   3 204.969 10.5840   1
   8   0  -3 135.978 10.2334   3
  -8   0   3 127.132 6.79093   1
  -8   0   3 130.036 6.69042   1
   7   0  -3 870.199 45.5675   3
  -7   0   3 856.899 42.3806   1
  -7   0   3 898.209 42.4924   1
   6   0  -3 254.989 15.3893   3
  -6   0   3 254.438 12.8856   1
  -6   0   3 270.649 12.8652   1
   5   0  -3 103.060 7.29116   3
  -5   0   3 104.244 5.27769   1
   4   0  -3 23.0480 3.00034   3
   4   0  -3 21.6191 2.80945   2
  -4   0   3 26.5577 1.52742   1
  -4   0   3 26.6630 1.55129   1
   3   0  -3 145.890 7.31634   1
   3   0  -3 172.538 8.91560   2
   3   0  -3 145.662 8.56236   3
   3   0  -3 157.429 7.33104   1
  -3   0   3 147.773 7.55161   1
  -3   0   3 145.806 8.57178   3
  -3   0   3 144.046 7.54884   1
   2   0  -3 586.559 30.5184   2
   2   0  -3 623.701 29.7290   1
   2   0  -3 647.106 30.3451   3
   2   0  -3 608.861 29.6967   1
  -2   0   3 609.398 29.7897   1
  -2   0   3 611.795 30.3416   3
  -2   0   3 621.559 30.5632   2
  -2   0   3 584.769 29.7843   1
   1   0  -3 1735.98 86.8626   2
   1   0  -3 1748.10 89.7700   1
   1   0  -3 1869.07 86.6487   1
  -1   0   3 1672.94 86.3957   1
  -1   0   3 1705.71 86.7413   1
  -1   0   3 2001.77 87.2795   3
   0   0  -3 146.429 8.12800   2
   0   0  -3 149.280 7.97809   1
   0   0  -3 148.125 7.94840   1
   0   0   3 154.908 8.17030   2
   0   0   3 164.464 8.06769   1
   0   0   3 144.799 7.94861   1
  -1   0  -3 150.049 8.35968   1
  -1   0  -3 156.420 8.43078   2
  -1   0  -3 158.216 8.38469   1
   1   0   3 169.691 8.42948   1
   1   0   3 152.185 8.40924   1
   1   0   3 151.543 8.08831   3
  -2   0  -3 3106.86 169.234   1
  -2   0  -3 3319.29 156.416   1
   2   0   3 3261.98 156.564   1
   2   0   3 3165.34 172.546   3
  -3   0  -3 1060.28 51.4771   1
  -3   0  -3 1065.52 51.5783   1
  -3   0  -3 976.917 51.6410   3
   3   0   3 1047.38 51.6107   1
   3   0   3 1094.60 51.9506   3
  -4   0  -3 700.021 34.0673   1
  -4   0  -3 659.182 34.0986   1
   4   0   3 698.898 34.8155   3
   4   0   3 669.115 34.0947   1
  -5   0  -3 37.7067 3.19146   1
  -5   0  -3 31.9318 2.88457   1
   5   0   3 27.4998 3.81163   3
   5   0   3 25.9895 3.02015   1
  -6   0  -3 369.258 19.6437   1
  -6   0  -3 349.837 19.7103   1
   6   0   3 418.207 21.4150   3
   6   0   3 378.956 19.5034   4
   6   0   3 366.803 19.7392   1
  -7   0  -3 545.657 27.0296   1
   7   0   3 502.916 28.4740   3
   7   0   3 508.893 26.8351   1
  -8   0  -3 689.393 38.1198   1
   8   0   3 824.540 40.7637   3
  -9   0  -3 273.797 15.3284   1
   9   0   3 258.227 17.3915   3
 -10   0  -3 162.680 10.9303   1
  10   0   3 185.949 13.8667   3
 -11   0  -3 227.262 13.6201   1
  11   0   3 214.088 16.4210   3
  11  -1  -3 42.9165 7.14807   3
 -11   1   3 45.3072 3.41307   1
  10  -1  -3 156.642 12.4804   3
 -10   1   3 148.623 8.42365   1
   9  -1  -3 121.602 10.2096   3
  -9   1   3 114.128 6.66794   1
   8  -1  -3 64.0361 7.50646   3
  -8   1   3 68.6357 4.23382   1
   7  -1  -3 299.423 18.6122   3
  -7   1   3 302.869 15.9028   1
  -7   1   3 337.109 15.8610   1
   6  -1  -3 321.619 18.5651   3
   6  -1  -3 322.256 15.8025   1
  -6   1   3 329.663 16.1927   1
   5  -1  -3 630.391 33.2934   3
   5  -1  -3 668.010 31.1678   1
  -5   1   3 634.818 31.3525   1
  -5   1   3 634.566 31.4155   1
   4  -1  -3 1057.93 51.4600   1
   4  -1  -3 1085.71 53.1193   3
  -4   1   3 990.815 51.5832   1
  -4   1   3 1130.96 51.6231   1
   3  -1  -3 61.2219 3.18836   1
   3  -1  -3 54.0045 3.20512   1
   3  -1  -3 61.2323 4.30237   2
   3  -1  -3 55.7419 4.10783   3
  -3   1   3 56.8148 3.26717   1
  -3   1   3 57.5614 3.28300   1
  -3   1   3 63.1826 4.13223   3
   2  -1  -3 244.925 12.5111   3
   2  -1  -3 232.714 12.0530   1
   2  -1  -3 231.051 12.7234   2
  -2   1   3 233.222 12.4366   3
  -2   1   3 268.517 12.8671   2
  -2   1   3 234.403 12.0864   1
  -2   1   3 247.193 12.0979   1
   1  -1  -3 561.848 26.6675   2
   1  -1  -3 538.563 26.2376   1
   1  -1  -3 519.537 26.1252   3
   1  -1  -3 535.432 26.2781   1
  -1   1   3 500.325 26.2552   1
  -1   1   3 522.558 26.0994   3
  -1   1   3 565.711 26.6705   2
  -1   1   3 544.674 26.2884   1
   0  -1  -3 3007.75 152.331   1
   0  -1  -3 3209.45 152.622   2
   0   1   3 3180.17 152.480   1
   0   1   3 3244.04 152.505   2
   0   1   3 3018.79 167.381   1
  -1  -1  -3 4225.16 203.823   2
  -1  -1  -3 4792.62 213.640   1
  -1  -1  -3 4626.07 203.963   1
  -1  -1  -3 3738.35 214.577   3
   1   1   3 3971.35 215.636   3
   1   1   3 3698.83 203.599   1
   1   1   3 4483.94 223.382   1
  -2  -1  -3 375.349 17.5829   1
  -2  -1  -3 314.056 17.4243   1
  -2  -1  -3 383.939 17.5752   3
   2   1   3 323.362 17.4514   1
   2   1   3 326.272 17.4366   3
   2   1   3 342.518 17.4617   1
  -3  -1  -3 563.438 27.7161   1
  -3  -1  -3 537.205 27.7343   1
  -3  -1  -3 567.429 28.0620   3
   3   1   3 546.575 28.0527   3
   3   1   3 555.327 27.7273   1
  -4  -1  -3 794.404 39.2735   1
  -4  -1  -3 784.443 39.1722   1
   4   1   3 770.842 39.1817   1
   4   1   3 812.081 39.9657   3
  -5  -1  -3 1678.39 81.2760   1
  -5  -1  -3 1771.11 81.4783   1
   5   1   3 1561.54 81.1814   1
   5   1   3 1675.10 81.3342   4
   5   1   3 1632.81 82.2932   3
  -6  -1  -3 241.862 13.8645   1
  -6  -1  -3 274.399 14.1887   1
   6   1   3 248.547 13.9187   1
   6   1   3 265.646 14.1041   4
   6   1   3 262.692 15.4467   3
  -7  -1  -3 44.4524 4.20125   1
  -7  -1  -3 50.4889 4.14026   1
   7   1   3 55.3465 4.16631   1
   7   1   3 51.9739 6.11034   3
  -8  -1  -3 275.554 15.6767   1
   8   1   3 292.603 17.8114   3
  -9  -1  -3 535.325 27.8988   1
   9   1   3 529.856 30.3356   3
 -10  -1  -3 458.621 23.1864   1
  10   1   3 388.607 25.3508   3
 -11  -1  -3 70.7153 6.10818   1
  11   1   3 69.8906 9.25891   3
  11  -2  -3 3.94026 3.58461   3
 -11   2   3 -1.0662 1.09498   1
  10  -2  -3 45.2052 7.16078   3
 -10   2   3 53.0128 4.16520   1
   9  -2  -3 28.1422 5.58852   3
  -9   2   3 30.7743 3.06590   1
   8  -2  -3 235.821 15.6782   3
  -8   2   3 250.971 13.0646   1
   7  -2  -3 209.420 13.4933   3
  -7   2   3 199.581 10.8721   1
  -7   2   3 206.153 10.7722   1
   6  -2  -3 4.40876 0.87193   1
   6  -2  -3 -1.0211 1.80391   3
  -6   2   3 6.04743 1.04715   1
   5  -2  -3 727.131 38.1460   3
   5  -2  -3 754.010 36.3258   1
  -5   2   3 743.401 36.3948   1
  -5   2   3 744.314 36.4657   1
   4  -2  -3 109.448 7.24136   3
  -4   2   3 108.147 5.96988   1
  -4   2   3 113.354 6.04154   1
   3  -2  -3 141.643 8.55219   3
   3  -2  -3 151.494 7.64779   1
  -3   2   3 151.977 7.69935   1
  -3   2   3 135.606 7.63890   1
  -3   2   3 153.210 8.41429   3
   2  -2  -3 11.5816 1.31266   1
   2  -2  -3 12.0214 1.68105   3
   2  -2  -3 12.6384 1.80168   2
   2  -2  -3 13.9721 1.34838   1
  -2   2   3 17.2601 2.07408   2
  -2   2   3 15.9216 1.40610   1
  -2   2   3 12.5948 1.34545   1
   1  -2  -3 289.163 13.5430   2
   1  -2  -3 262.034 13.1723   1
   1  -2  -3 255.127 13.2090   1
  -1   2   3 256.734 13.2075   1
  -1   2   3 246.283 13.1921   1
  -1   2   3 258.483 13.4373   2
   0  -2  -3 910.867 42.9248   2
   0  -2  -3 925.702 42.9794   1
   0  -2  -3 846.764 42.9554   1
   0   2   3 880.746 42.9753   1
   0   2   3 863.255 42.9673   1
   0   2   3 850.873 42.8447   2
  -1  -2  -3 1276.91 58.6052   1
  -1  -2  -3 1083.55 58.4989   1
  -1  -2  -3 1109.15 58.2941   3
  -1  -2  -3 1386.12 58.2592   2
   1   2   3 1183.49 58.5689   2
   1   2   3 1166.94 58.5317   1
   1   2   3 1209.85 58.5743   1
  -2  -2  -3 1636.07 78.0391   2
  -2  -2  -3 1477.17 77.9536   1
  -2  -2  -3 1621.90 78.1504   3
   2   2   3 1699.53 78.0899   1
   2   2   3 1597.90 78.0649   3
  -3  -2  -3 103.677 6.48971   3
  -3  -2  -3 105.101 6.14036   1
  -3  -2  -3 102.358 6.12586   1
   3   2   3 120.582 6.60417   3
   3   2   3 91.8417 5.99604   1
  -4  -2  -3 325.447 16.3641   1
  -4  -2  -3 317.263 16.3423   1
   4   2   3 307.625 16.5483   4
   4   2   3 296.340 16.8893   3
   4   2   3 322.140 16.3068   1
  -5  -2  -3 13.8724 2.02565   1
  -5  -2  -3 11.0152 1.88882   1
   5   2   3 14.6158 2.33348   4
   5   2   3 12.6201 1.87842   1
   5   2   3 14.4755 2.76248   3
  -6  -2  -3 7.03136 1.64422   1
  -6  -2  -3 6.69932 1.55608   1
   6   2   3 5.99488 1.48548   1
   6   2   3 7.98995 1.89161   4
   6   2   3 7.16165 2.39170   3
  -7  -2  -3 373.353 20.0965   1
  -7  -2  -3 353.353 20.4090   1
   7   2   3 427.754 22.2231   3
   7   2   3 382.777 19.9544   1
  -8  -2  -3 135.891 8.31544   1
   8   2   3 123.623 10.0052   3
  -9  -2  -3 93.0521 6.73693   1
   9   2   3 94.6078 8.94769   3
 -10  -2  -3 48.4509 5.04820   1
  10   2   3 49.5157 7.36247   3
 -11  -2  -3 18.1741 3.10528   1
  11   2   3 25.4592 6.03444   3
  11  -3  -3 -2.1706 2.96703   3
 -11   3   3 0.79493 1.53867   1
  10  -3  -3 42.2165 6.99239   3
 -10   3   3 38.9567 4.05111   1
   9  -3  -3 3.45721 3.25032   3
  -9   3   3 1.68327 1.55919   1
   8  -3  -3 129.138 10.0240   3
  -8   3   3 121.264 7.51289   1
   7  -3  -3 73.7029 6.80404   3
   6  -3  -3 583.738 31.7511   3
  -6   3   3 623.885 29.6615   1
  -6   3   3 572.398 29.7202   1
   5  -3  -3 339.300 19.3840   3
   5  -3  -3 354.915 17.6769   1
  -5   3   3 348.091 17.7777   1
  -5   3   3 348.280 17.6859   1
   4  -3  -3 246.649 12.8421   1
   4  -3  -3 247.993 14.1152   3
  -4   3   3 245.134 12.9042   1
  -4   3   3 256.396 12.9011   1
   3  -3  -3 58.6712 3.39636   1
   3  -3  -3 55.9484 4.14978   3
  -3   3   3 49.6058 3.30152   1
  -3   3   3 45.2774 3.31787   1
   2  -3  -3 20.0571 1.75866   1
  -2   3   3 18.7984 1.73614   1
  -2   3   3 18.4181 1.87211   1
   1  -3  -3 3533.47 152.631   1
   1  -3  -3 3019.33 152.354   1
  -1   3   3 3100.35 152.945   2
  -1   3   3 3061.65 152.910   1
  -1   3   3 3021.48 152.435   1
   0  -3  -3 1025.80 49.8499   1
   0  -3  -3 1010.42 49.8631   1
   0   3   3 1068.82 49.6743   2
   0   3   3 1023.46 49.8539   1
   0   3   3 973.404 49.8156   1
  -1  -3  -3 34.5176 2.45669   1
  -1  -3  -3 27.6090 2.36328   1
  -1  -3  -3 31.3188 1.85651   2
   1   3   3 30.4022 1.82891   2
   1   3   3 24.8423 2.29373   1
   1   3   3 27.4054 2.27098   1
  -2  -3  -3 95.2156 6.12214   3
  -2  -3  -3 115.562 6.10759   1
  -2  -3  -3 105.178 5.14219   2
  -2  -3  -3 96.0174 5.87235   1
   2   3   3 102.146 5.92774   1
  -3  -3  -3 450.114 22.3868   1
  -3  -3  -3 460.777 22.5233   1
   3   3   3 444.365 22.8407   3
   3   3   3 399.747 22.7248   4
   3   3   3 460.514 22.3868   1
  -4  -3  -3 1027.61 51.7112   1
  -4  -3  -3 988.226 51.5891   1
   4   3   3 1054.19 51.6364   1
   4   3   3 1089.21 52.2448   4
   4   3   3 1100.64 52.5437   3
  -5  -3  -3 2.17332 1.10743   1
  -5  -3  -3 0.32380 0.87383   1
   5   3   3 0.26340 0.83602   1
   5   3   3 1.76905 1.62909   3
   5   3   3 1.03049 1.29808   4
  -6  -3  -3 146.083 8.62785   1
  -6  -3  -3 162.482 8.74553   1
   6   3   3 138.199 9.79363   3
   6   3   3 145.544 8.47768   1
  -7  -3  -3 0.89889 1.12439   1
   7   3   3 0.01706 1.96112   3
   7   3   3 -0.6240 0.80472   1
  -8  -3  -3 107.601 7.45764   1
   8   3   3 141.182 10.0672   3
  -9  -3  -3 258.572 13.7464   1
   9   3   3 218.905 15.8222   3
 -10  -3  -3 0.73286 1.56649   1
  10   3   3 1.44088 3.11372   3
 -11  -3  -3 -0.3160 1.50983   1
  11   3   3 -1.7260 2.09219   3
  11  -4  -3 39.6660 7.33179   3
 -11   4   3 32.6248 4.04177   1
  10  -4  -3 118.474 10.9655   3
 -10   4   3 117.978 8.08371   1
   9  -4  -3 138.316 11.4078   3
  -9   4   3 125.654 8.31348   1
   8  -4  -3 254.496 16.7839   3
  -8   4   3 256.238 14.1511   1
   7  -4  -3 49.5957 6.27028   3
   6  -4  -3 1215.49 61.0882   3
   6  -4  -3 1158.40 58.8013   1
  -6   4   3 1144.22 58.9745   1
  -6   4   3 1277.16 58.9335   1
   5  -4  -3 733.116 37.6719   3
   5  -4  -3 705.789 35.9104   1
  -5   4   3 706.283 36.0445   1
  -5   4   3 752.240 36.0096   1
   4  -4  -3 1727.01 86.7271   1
   4  -4  -3 1868.39 88.1897   3
  -4   4   3 1781.09 86.7699   1
  -4   4   3 1765.93 86.8278   1
   3  -4  -3 103.536 5.86300   1
   3  -4  -3 96.0377 6.55640   3
  -3   4   3 93.3743 5.76056   1
  -3   4   3 105.447 5.92350   1
   2  -4  -3 181.323 9.58687   1
  -2   4   3 185.989 9.67639   1
  -2   4   3 170.392 9.59448   1
   1  -4  -3 1204.11 60.8138   1
  -1   4   3 1273.64 60.9232   1
  -1   4   3 1266.82 60.9027   1
   0  -4  -3 1123.28 56.6704   1
   0  -4  -3 1165.74 56.6555   1
   0   4   3 1229.33 56.7542   1
   0   4   3 1110.62 56.3434   2
   0   4   3 1173.47 56.6829   1
  -1  -4  -3 3036.16 147.372   1
  -1  -4  -3 2866.28 147.692   1
   1   4   3 3225.22 148.473   1
   1   4   3 3071.36 147.409   2
  -2  -4  -3 483.190 23.6624   1
  -2  -4  -3 476.876 23.7369   1
   2   4   3 461.893 23.6206   1
   2   4   3 457.663 24.0454   4
  -3  -4  -3 397.234 20.6509   1
   3   4   3 407.965 20.6552   1
   3   4   3 414.811 21.2824   4
  -4  -4  -3 328.838 17.6294   1
  -4  -4  -3 342.119 17.5104   1
  -4  -4  -3 346.305 16.5123   2
   4   4   3 337.031 18.2364   4
   4   4   3 336.197 17.4606   1
  -5  -4  -3 425.744 20.9763   1
  -5  -4  -3 388.147 20.1171   2
  -5  -4  -3 408.276 21.0348   1
   5   4   3 413.247 20.8462   1
   5   4   3 403.915 21.7229   4
  -6  -4  -3 137.537 8.30810   1
  -6  -4  -3 142.650 7.68088   2
  -6  -4  -3 141.740 8.26754   1
   6   4   3 138.434 8.07670   1
   6   4   3 138.404 9.53903   3
  -7  -4  -3 52.8785 4.33127   1
   7   4   3 60.8094 5.99939   3
  -8  -4  -3 89.5426 6.15192   1
   8   4   3 87.0439 8.04137   3
  -9  -4  -3 185.693 10.8195   1
   9   4   3 177.872 13.2356   3
 -10  -4  -3 249.504 14.3417   1
  10   4   3 262.275 17.4768   3
 -11  -4  -3 209.457 12.3808   1
  11   4   3 215.287 15.9039   3
  11  -5  -3 142.486 13.1511   3
 -11   5   3 154.147 10.0927   1
  10  -5  -3 78.5839 9.98022   3
 -10   5   3 89.1022 6.87569   1
   9  -5  -3 84.9659 8.83510   3
  -9   5   3 75.3845 6.15238   1
   8  -5  -3 111.495 9.93638   3
  -8   5   3 115.386 7.70897   1
   7  -5  -3 584.645 32.3642   3
   6  -5  -3 1264.93 58.5260   1
   6  -5  -3 1205.69 60.6115   3
  -6   5   3 1083.69 58.4921   1
   5  -5  -3 678.277 34.6570   1
   5  -5  -3 690.072 36.4349   3
  -5   5   3 678.301 34.8000   1
  -5   5   3 721.781 34.7382   1
   4  -5  -3 596.724 32.3668   3
   4  -5  -3 620.987 31.1538   1
  -4   5   3 669.371 31.2563   1
  -4   5   3 592.540 31.1812   1
   3  -5  -3 226.752 12.0851   1
  -3   5   3 231.258 12.0891   1
  -3   5   3 216.192 12.0832   1
   2  -5  -3 2178.98 107.701   1
  -2   5   3 2259.50 107.787   1
   1  -5  -3 578.203 28.6759   1
  -1   5   3 567.808 28.6687   1
   0  -5  -3 378.770 19.0810   1
   0   5   3 365.330 19.0752   1
   0   5   3 375.891 19.3182   4
  -1  -5  -3 344.138 18.3374   1
  -1  -5  -3 368.944 17.9015   1
   1   5   3 335.712 18.1711   4
   1   5   3 339.693 17.7974   1
  -2  -5  -3 3953.41 184.799   1
  -2  -5  -3 3354.50 183.695   1
   2   5   3 4037.04 186.195   4
   2   5   3 3897.02 185.239   1
  -3  -5  -3 3426.16 172.022   1
  -3  -5  -3 3663.08 180.735   1
   3   5   3 3590.47 172.474   1
   3   5   3 3576.09 172.705   4
  -4  -5  -3 1683.58 76.1416   1
  -4  -5  -3 1491.14 75.8059   1
   4   5   3 1482.70 75.7289   1
   4   5   3 1558.12 76.7948   4
  -5  -5  -3 7.30406 1.71984   1
  -5  -5  -3 3.20695 1.35976   1
  -5  -5  -3 5.35178 0.57037   2
   5   5   3 3.60329 1.18289   1
  -6  -5  -3 3.95286 0.79723   2
  -6  -5  -3 3.43200 1.35290   1
  -6  -5  -3 3.23074 1.38412   1
   6   5   3 4.62711 1.26548   1
  -7  -5  -3 258.808 14.1146   1
  -8  -5  -3 284.876 15.5062   1
  -9  -5  -3 89.8878 6.29262   1
 -10  -5  -3 105.010 7.17279   1
  10  -6  -3 3.40299 3.87304   3
 -10   6   3 7.00472 2.53014   1
   9  -6  -3 4.60670 3.46051   3
  -9   6   3 6.05292 2.33801   1
   8  -6  -3 -3.5848 2.39333   3
  -8   6   3 -1.0394 1.43083   1
   7  -6  -3 118.698 9.98089   3
   6  -6  -3 496.506 25.2295   1
   6  -6  -3 468.452 27.1586   3
  -6   6   3 488.466 25.4158   1
   5  -6  -3 870.106 44.5698   3
   5  -6  -3 845.538 42.7708   1
  -5   6   3 851.032 42.9361   1
   4  -6  -3 293.418 17.0803   3
   4  -6  -3 299.575 15.9870   1
  -4   6   3 306.134 15.0620   4
  -4   6   3 289.616 15.9890   1
   3  -6  -3 5.83038 1.70285   1
  -3   6   3 4.64485 1.55230   1
  -3   6   3 6.26769 1.24766   4
   2  -6  -3 42.9891 3.68720   1
  -2   6   3 51.0554 3.85461   1
  -2   6   3 49.5919 3.50903   4
   1  -6  -3 -0.9644 0.92291   1
  -1   6   3 1.12990 1.05358   1
  -1   6   3 2.41748 1.15098   4
   0  -6  -3 419.561 21.8682   1
   0   6   3 436.903 21.9174   1
   0   6   3 426.573 22.1212   4
  -1  -6  -3 107.761 6.79895   1
   1   6   3 116.198 6.86319   1
   1   6   3 123.021 7.39747   4
  -2  -6  -3 191.469 10.2915   1
   2   6   3 192.667 10.9129   4
   2   6   3 178.591 9.28792   2
   2   6   3 186.791 10.2676   1
  -3  -6  -3 30.7890 2.89542   1
  -3  -6  -3 40.0575 3.21588   1
   3   6   3 31.0275 2.82926   1
  -4  -6  -3 1114.46 57.3468   1
  -4  -6  -3 1089.19 57.1288   1
   4   6   3 1283.66 57.2547   1
  -5  -6  -3 20.7390 2.61224   1
  -5  -6  -3 19.8666 2.50573   1
   5   6   3 16.2191 2.16874   1
  -6  -6  -3 36.3357 3.39843   1
   6   6   3 36.1188 4.64478   1
  -7  -6  -3 18.2300 2.55316   1
  -8  -6  -3 67.7904 5.15185   1
  -9  -6  -3 206.557 11.9054   1
 -10  -6  -3 75.3106 5.79570   1
  10  -7  -3 -3.4202 2.71266   3
 -10   7   3 -2.5702 1.80275   1
   9  -7  -3 -3.0906 2.54606   3
  -9   7   3 -3.0621 1.74540   1
   8  -7  -3 0.68788 2.52817   3
  -8   7   3 0.57720 1.87935   1
   7  -7  -3 14.9363 4.29254   3
   6  -7  -3 24.9852 4.87201   3
   6  -7  -3 25.2747 3.32192   1
  -6   7   3 26.4994 3.60952   1
   5  -7  -3 12.8921 3.20471   3
   5  -7  -3 10.4835 2.34659   1
  -5   7   3 13.5716 2.52214   1
   4  -7  -3 -1.1395 1.29128   1
  -4   7   3 -0.9503 1.10928   1
   3  -7  -3 137.040 8.24003   1
  -3   7   3 128.618 8.17336   1
   2  -7  -3 105.628 6.62161   1
  -2   7   3 92.6978 6.43949   1
   1  -7  -3 -3.1906 1.08980   1
  -1   7   3 -0.2543 1.24808   1
   0  -7  -3 17.1376 2.38759   1
   0   7   3 17.2188 2.38453   1
  -1  -7  -3 149.571 9.05546   1
   1   7   3 165.461 9.18001   1
  -2  -7  -3 85.6940 5.59463   1
   2   7   3 80.8796 4.61074   2
   2   7   3 83.3830 5.44682   1
  -3  -7  -3 627.102 32.7017   1
   3   7   3 642.309 31.3359   2
   3   7   3 681.332 32.7091   1
  -4  -7  -3 1.92389 1.30077   1
  -4  -7  -3 0.33155 1.14641   1
   4   7   3 0.65852 0.96993   1
  -5  -7  -3 -0.4624 1.10372   1
   5   7   3 -0.1067 0.90762   1
  -6  -7  -3 106.400 6.78681   1
  -7  -7  -3 36.7523 3.71509   1
  -8  -7  -3 32.8917 3.61335   1
  -9  -7  -3 5.06397 1.90026   1
 -10  -7  -3 128.415 8.19731   1
   9  -8  -3 20.9475 5.68217   3
  -9   8   3 19.6215 3.89950   1
   8  -8  -3 7.86465 3.88594   3
  -8   8   3 0.24535 1.89539   1
   7  -8  -3 113.216 10.2144   3
   6  -8  -3 206.101 12.8879   1
   6  -8  -3 216.438 14.7288   3
  -6   8   3 234.502 13.3642   1
   5  -8  -3 385.548 22.4878   3
   5  -8  -3 392.777 20.6858   1
  -5   8   3 367.625 20.8014   1
   4  -8  -3 37.0101 3.98514   1
  -4   8   3 24.3691 3.54310   1
   3  -8  -3 212.342 12.2686   1
  -3   8   3 210.560 12.2910   1
   2  -8  -3 0.44057 1.32759   1
  -2   8   3 -1.6674 1.06742   1
   1  -8  -3 201.094 11.6656   1
  -1   8   3 206.032 11.7393   1
   0  -8  -3 155.240 9.37080   1
   0   8   3 155.262 9.33689   1
  -1  -8  -3 62.0021 4.85399   1
   1   8   3 64.7216 4.86677   1
  -2  -8  -3 64.4926 4.81425   1
   2   8   3 60.2187 3.80613   2
   2   8   3 56.8553 4.60948   1
  -3  -8  -3 1223.25 60.4610   1
   3   8   3 1249.84 60.4583   1
   3   8   3 1199.50 59.1968   2
  -4  -8  -3 490.306 25.3901   1
   4   8   3 492.874 25.2923   1
  -5  -8  -3 478.899 24.7859   1
  -6  -8  -3 2.08848 1.48741   1
  -7  -8  -3 38.4460 3.96009   1
  -8  -8  -3 238.277 13.4136   1
  -9  -8  -3 225.435 12.8500   1
 -10  -8  -3 139.940 8.81172   1
   8  -9  -3 4.03492 3.86406   3
  -8   9   3 4.63277 2.54297   1
   7  -9  -3 56.3848 7.98410   3
   6  -9  -3 150.917 11.4802   3
  -6   9   3 129.704 9.58255   1
   5  -9  -3 358.439 19.9845   1
  -5   9   3 365.159 20.3099   1
   4  -9  -3 515.648 27.1519   1
  -4   9   3 509.753 27.2992   1
   3  -9  -3 553.665 28.5653   1
  -3   9   3 533.673 28.5471   1
   2  -9  -3 74.3232 5.83870   1
  -2   9   3 69.9194 5.69731   1
   1  -9  -3 89.6434 6.35626   1
  -1   9   3 80.8548 6.19099   1
   0  -9  -3 4.04680 1.89399   1
   0   9   3 2.65945 1.60318   1
  -1  -9  -3 36.5233 4.05180   1
   1   9   3 36.7230 3.96338   1
  -2  -9  -3 791.958 40.3702   1
   2   9   3 825.835 40.4407   1
   2   9   3 783.691 39.4908   2
  -3  -9  -3 781.302 40.1367   1
   3   9   3 809.123 40.1709   1
  -4  -9  -3 743.049 37.7101   1
  -5  -9  -3 413.109 21.8666   1
  -6  -9  -3 260.974 14.6300   1
  -7  -9  -3 103.708 7.13190   1
  -8  -9  -3 29.6014 3.71096   1
  -9  -9  -3 123.164 8.20971   1
  -8  10   3 -0.9823 2.26500   1
   7 -10  -3 71.6726 9.43479   3
   6 -10  -3 107.418 10.2855   3
   5 -10  -3 26.5289 3.97673   1
  -5  10   3 27.8636 4.29831   1
   4 -10  -3 167.403 10.7324   1
  -4  10   3 156.977 10.7071   1
   3 -10  -3 92.5464 7.29168   1
  -3  10   3 100.819 7.52008   1
   2 -10  -3 279.147 15.6147   1
  -2  10   3 257.051 15.4239   1
   1 -10  -3 110.270 7.99658   1
  -1  10   3 118.273 8.06852   1
   0 -10  -3 0.80881 2.02846   1
   0  10   3 4.65249 2.15524   1
  -1 -10  -3 26.8395 3.68988   1
   1  10   3 26.5504 3.49842   1
  -2 -10  -3 34.7620 3.99223   1
   2  10   3 26.5634 3.57580   1
  -3 -10  -3 196.704 11.8099   1
  -4 -10  -3 139.213 9.00015   1
  -5 -10  -3 35.8896 4.17776   1
  -6 -10  -3 15.2795 2.95073   1
  -7 -10  -3 104.554 7.49166   1
  -8 -10  -3 105.165 7.54889   1
   6 -11  -3 0.11222 3.31213   3
   5 -11  -3 46.6937 5.48604   1
  -5  11   3 53.2912 5.99224   1
   4 -11  -3 25.3109 4.14055   1
  -4  11   3 37.8878 4.91720   1
   3 -11  -3 6.45951 2.66714   1
  -3  11   3 11.7158 3.01510   1
   2 -11  -3 80.0518 6.94190   1
  -2  11   3 77.6754 6.80513   1
   1 -11  -3 46.4660 5.20722   1
  -1  11   3 45.8830 5.16570   1
   0 -11  -3 3.19350 2.27228   1
   0  11   3 4.16227 2.08148   1
  -1 -11  -3 11.7474 2.97654   1
   1  11   3 18.0584 3.25879   1
  -2 -11  -3 45.7962 5.08595   1
  -3 -11  -3 96.9668 7.32587   1
  -4 -11  -3 42.9355 4.84145   1
  -5 -11  -3 109.039 7.84087   1
  -6 -11  -3 6.95352 2.45739   1
  -7 -11  -3 13.9650 2.99609   1
   4 -12  -3 195.387 12.9837   1
  -4  12   3 199.970 13.2223   1
   3 -12  -3 453.268 25.6610   1
  -3  12   3 474.619 25.9596   1
   2 -12  -3 306.437 17.2473   1
  -2  12   3 265.762 16.8859   1
   1 -12  -3 37.4030 4.94816   1
  -1  12   3 34.8544 4.76538   1
   0 -12  -3 7.13470 2.88682   1
   0  12   3 5.15079 2.46564   1
  -1 -12  -3 68.1209 6.67929   1
  -2 -12  -3 247.350 14.9068   1
  -3 -12  -3 163.133 10.7988   1
  -4 -12  -3 272.475 16.0404   1
  -5 -12  -3 166.158 10.9008   1
  -6 -12  -3 242.753 14.5457   1
   3 -13  -3 336.470 20.0773   1
  -3  13   3 342.595 20.2979   1
   2 -13  -3 487.810 26.9164   1
  -2  13   3 475.444 26.9143   1
   1 -13  -3 307.412 18.3776   1
   0 -13  -3 95.5136 8.11954   1
  -1 -13  -3 28.9332 4.59654   1
  -2 -13  -3 137.157 9.97920   1
  -3 -13  -3 214.499 13.6359   1
   4  10  -4 98.4653 9.85575   2
  -4 -10   4 107.657 7.83303   1
   3  10  -4 3.47472 2.50683   2
  -3 -10   4 0.41689 2.08800   1
   2  10  -4 -1.5932 1.94013   2
  -2 -10   4 0.59541 2.15225   1
   1  10  -4 3.30337 2.42498   2
  -1 -10   4 1.74817 2.38423   1
   0  10  -4 57.1785 7.03751   2
   0 -10   4 59.8238 6.43989   1
  -1  10  -4 135.945 10.4395   2
   1 -10   4 125.018 9.89052   1
  -2  10  -4 110.922 9.07097   2
   2 -10   4 75.3145 8.08419   1
  -3  10  -4 130.648 10.1593   2
   3 -10   4 120.164 9.96089   1
  -6  -9   4 148.096 9.08368   1
   5   9  -4 217.109 13.9776   2
  -5  -9   4 211.799 12.4926   1
   4   9  -4 162.776 11.5447   2
  -4  -9   4 168.364 10.3884   1
   3   9  -4 152.571 10.8825   2
  -3  -9   4 149.539 9.81107   1
   2   9  -4 172.492 11.8554   2
  -2  -9   4 161.551 10.6531   1
   1   9  -4 27.3345 4.73265   2
  -1  -9   4 27.2516 4.03010   1
   0   9  -4 148.354 10.6215   2
   0  -9   4 134.240 9.86909   1
  -1   9  -4 232.116 14.8788   2
   1  -9   4 236.374 14.6115   1
  -2   9  -4 602.359 31.8300   2
   2  -9   4 546.658 30.9729   1
   3  -9   4 249.134 15.6840   1
  -4   9  -4 156.542 11.3702   1
   4  -9   4 167.256 11.8287   1
  -5   9  -4 100.912 8.88094   1
   5  -9   4 110.750 10.4512   3
   5  -9   4 107.346 9.27480   1
  -7  -8   4 49.5894 3.78636   1
   6   8  -4 88.5336 7.38312   2
  -6  -8   4 72.7270 5.37126   1
   5   8  -4 296.373 17.9399   2
  -5  -8   4 306.489 16.4105   1
   4   8  -4 119.440 9.17461   2
  -4  -8   4 126.225 8.05818   1
   3   8  -4 67.8782 6.72559   2
  -3  -8   4 68.0365 5.59939   1
   2   8  -4 52.7199 6.20238   2
  -2  -8   4 58.6765 5.37298   1
   1   8  -4 233.862 14.5715   2
  -1  -8   4 240.001 13.9951   1
   0   8  -4 250.479 15.0037   2
   0  -8   4 231.417 14.2685   1
  -1   8  -4 89.0694 7.63682   2
   1  -8   4 85.9779 7.11174   1
  -2   8  -4 151.488 10.4416   1
  -2   8  -4 160.664 11.1964   2
   2  -8   4 158.853 10.7566   1
  -3   8  -4 203.752 13.3209   1
   3  -8   4 219.195 13.6276   1
  -4   8  -4 564.150 31.2365   1
   4  -8   4 590.883 31.5034   1
  -5   8  -4 53.0229 6.33131   1
   5  -8   4 53.9322 7.39194   3
   5  -8   4 51.3521 6.39654   1
  -6   8  -4 4.29420 3.04641   1
   6  -8   4 10.7274 3.56720   1
   6  -8   4 10.7717 4.31010   3
  -7   8  -4 6.17605 3.14862   1
   7  -8   4 2.18752 3.04145   1
   7  -8   4 1.77815 3.72808   3
   7   7  -4 31.8708 4.75673   2
  -7  -7   4 30.3260 2.55861   1
   6   7  -4 37.2846 5.27068   2
  -6  -7   4 37.3814 3.22095   1
   5   7  -4 55.7121 6.29909   2
  -5  -7   4 61.3420 4.52933   1
   4   7  -4 154.106 10.5346   2
  -4  -7   4 155.035 9.21776   1
   3   7  -4 172.843 10.9669   2
  -3  -7   4 152.370 9.62588   1
   2   7  -4 25.9480 4.15016   2
  -2  -7   4 16.5044 2.85816   1
   1   7  -4 119.729 8.83440   2
  -1  -7   4 126.315 8.22269   1
   0   7  -4 75.3547 6.62266   2
   0   7  -4 77.9412 5.87854   1
   0  -7   4 72.1712 6.03097   1
  -1   7  -4 109.170 7.64191   1
  -1   7  -4 114.172 8.36908   2
   1  -7   4 98.7123 7.69786   1
  -2   7  -4 128.514 8.85109   1
   2  -7   4 125.956 8.97806   1
  -3   7  -4 97.6497 7.67139   1
   3  -7   4 105.514 7.94110   1
  -4   7  -4 16.6401 3.37082   1
   4  -7   4 12.0845 3.20496   1
  -5   7  -4 14.4135 3.40254   1
   5  -7   4 16.0371 3.79362   1
   5  -7   4 23.1596 4.85002   3
  -6   7  -4 10.7648 3.34793   1
   6  -7   4 13.5849 4.22043   3
   6  -7   4 7.46923 3.08103   1
  -7   7  -4 -0.8572 2.16834   1
   7  -7   4 1.61993 2.68045   1
   7  -7   4 2.49311 3.37247   3
  -8   7  -4 40.4586 5.76704   1
   8  -7   4 34.6387 6.96474   3
   8   6  -4 6.64037 2.80937   2
   7   6  -4 14.6044 3.38751   2
  -7  -6   4 15.0120 1.46692   1
   6   6  -4 136.034 9.31876   2
  -6  -6   4 121.905 7.10331   1
   5   6  -4 235.137 14.9883   2
  -5  -6   4 264.733 13.4656   1
   4   6  -4 43.7463 5.11067   2
  -4  -6   4 42.3396 3.60385   1
   3   6  -4 340.679 18.7307   2
  -3  -6   4 318.287 17.3560   1
   2   6  -4 131.754 9.28817   2
  -2  -6   4 137.101 8.28766   1
   1   6  -4 22.7792 2.85045   1
   1   6  -4 22.0170 3.57969   2
  -1  -6   4 17.8877 2.81142   1
   0   6  -4 53.7476 4.52752   1
   0   6  -4 52.3427 4.85223   2
   0  -6   4 47.8911 4.49886   1
  -1   6  -4 75.2173 5.80337   1
  -1   6  -4 81.6935 6.40301   2
   1  -6   4 65.2437 5.72782   1
  -2   6  -4 15.7911 3.00339   1
   2  -6   4 13.2405 2.96725   1
  -3   6  -4 705.785 36.9997   1
   3  -6   4 722.418 37.1080   1
  -4   6  -4 330.841 18.7847   1
   4  -6   4 328.207 18.9064   1
  -5   6  -4 17.7791 3.56033   1
   5  -6   4 27.9396 4.13961   1
   5  -6   4 26.9356 5.10181   3
  -6   6  -4 -3.5083 1.44467   1
   6  -6   4 0.98536 2.32721   1
   6  -6   4 -0.2768 2.55697   3
  -7   6  -4 28.2105 4.64204   1
   7  -6   4 32.0148 5.04880   1
   7  -6   4 25.2836 5.48055   3
  -8   6  -4 0.54793 2.30008   1
   8  -6   4 2.64716 3.67717   3
  -9   6  -4 7.23132 3.13900   1
   8   5  -4 77.5185 6.95642   2
   7   5  -4 74.6415 6.69610   2
   6   5  -4 330.085 18.4797   2
  -6  -5   4 313.046 16.0438   1
   5   5  -4 346.122 19.5734   2
  -5  -5   4 352.482 17.7925   1
   4   5  -4 742.556 38.5921   2
  -4  -5   4 752.694 37.1117   1
   3   5  -4 1187.87 61.4926   2
  -3  -5   4 1276.16 60.4078   1
  -3  -5   4 1219.91 60.2361   1
   2   5  -4 86.9763 5.52180   1
   2   5  -4 81.6285 6.40008   2
  -2  -5   4 93.3553 5.74517   1
  -2  -5   4 82.2508 5.38662   1
   1   5  -4 185.199 11.1646   2
   1   5  -4 177.661 10.2784   1
  -1  -5   4 171.932 10.0993   1
  -1  -5   4 190.163 10.4598   1
   0   5  -4 367.219 19.3038   1
   0   5  -4 362.154 19.9573   2
   0  -5   4 362.581 19.3738   1
  -1   5  -4 834.632 42.4464   1
  -1   5  -4 832.826 43.0020   2
   1  -5   4 860.297 42.5951   1
  -2   5  -4 315.985 17.5768   1
   2  -5   4 324.064 17.6771   1
  -3   5  -4 0.56885 1.46912   1
   3  -5   4 -0.1234 1.59925   1
  -4   5  -4 122.246 8.66746   1
   4  -5   4 134.449 8.91733   1
  -5   5  -4 283.971 16.9246   1
   5  -5   4 283.342 16.9452   1
   5  -5   4 308.401 18.1300   3
  -6   5  -4 814.275 43.6669   1
   6  -5   4 814.066 43.6915   1
   6  -5   4 907.684 45.4783   3
  -7   5  -4 10.0766 2.85603   1
   7  -5   4 6.44050 3.52094   3
   7  -5   4 3.36042 2.49720   1
  -8   5  -4 4.20050 2.60131   1
   8  -5   4 8.57032 3.99871   3
  -9   5  -4 107.120 9.30054   1
   9  -5   4 122.021 11.4767   3
   8   4  -4 402.499 22.7006   2
   7   4  -4 289.491 17.0027   2
   6   4  -4 173.094 11.0000   2
  -6  -4   4 162.174 8.33455   1
  -6  -4   4 170.224 8.38925   1
   5   4  -4 0.53005 1.84894   2
  -5  -4   4 1.45109 0.63959   1
  -5  -4   4 2.07775 0.75526   1
   4   4  -4 974.736 50.8468   2
   4   4  -4 1014.02 48.9538   1
  -4  -4   4 1043.94 49.2949   1
  -4  -4   4 1000.19 49.3807   1
   3   4  -4 711.536 33.5317   1
   3   4  -4 675.662 34.9402   2
  -3  -4   4 644.214 33.6496   1
  -3  -4   4 683.695 33.5743   1
   2   4  -4 965.138 48.9665   2
   2   4  -4 948.418 47.7315   1
  -2  -4   4 932.753 47.8521   1
  -2  -4   4 1037.46 47.8118   1
   1   4  -4 115.295 6.91426   1
   1   4  -4 113.875 7.70025   2
  -1  -4   4 128.573 6.94724   1
  -1  -4   4 104.280 6.91452   1
   0   4  -4 34.9275 3.86162   2
   0   4  -4 29.4555 3.09110   1
   0  -4   4 30.3112 2.75730   1
   0  -4   4 24.3089 2.91047   1
  -1   4  -4 211.689 12.1351   1
  -1   4  -4 204.667 12.4255   2
   1  -4   4 231.222 12.2824   1
  -2   4  -4 738.557 39.2166   1
   2  -4   4 815.093 39.4119   1
  -3   4  -4 1225.77 60.1982   1
   3  -4   4 1187.49 60.1219   1
  -4   4  -4 156.406 9.99073   1
   4  -4   4 156.007 10.0265   1
   4  -4   4 166.763 10.9266   3
  -5   4  -4 164.142 10.9474   1
   5  -4   4 199.949 11.4391   1
   5  -4   4 170.601 11.9513   3
  -6   4  -4 281.217 16.7090   1
   6  -4   4 300.473 16.9812   1
   6  -4   4 288.744 17.9377   3
  -7   4  -4 113.403 8.37259   1
   7  -4   4 105.837 9.65789   3
   7  -4   4 107.390 8.31029   1
  -8   4  -4 40.2600 5.39931   1
   8  -4   4 44.7752 6.86144   3
  -9   4  -4 -2.1533 1.95909   1
   9  -4   4 -2.5919 1.75518   3
 -10   4  -4 0.98685 2.29960   1
  10  -4   4 2.79141 4.18740   3
   7   3  -4 98.5661 7.63251   2
   6   3  -4 22.1030 3.45989   2
   5   3  -4 124.177 8.51900   2
  -5  -3   4 130.635 6.60855   1
  -5  -3   4 131.319 6.70985   1
   4   3  -4 563.591 31.1029   2
  -4  -3   4 619.747 29.6488   1
  -4  -3   4 615.587 29.5252   1
   3   3  -4 284.383 14.0634   1
   3   3  -4 262.881 15.3508   2
  -3  -3   4 287.535 14.2924   1
  -3  -3   4 273.785 14.1428   1
   2   3  -4 220.258 11.0525   1
   2   3  -4 202.761 12.0445   2
  -2  -3   4 204.090 11.1465   1
   1   3  -4 13.0763 1.80065   1
   1   3  -4 13.4741 2.47859   2
  -1  -3   4 12.9444 1.84927   1
   0   3  -4 33.2407 3.13073   1
   0   3  -4 39.7555 3.73595   2
   0  -3   4 44.8122 3.19492   1
   0  -3   4 43.0288 3.48936   1
  -1   3  -4 28.8292 2.99324   1
  -1   3  -4 23.3539 3.18108   2
   1  -3   4 27.7996 3.01715   1
  -2   3  -4 88.5635 6.36890   1
   2  -3   4 113.674 6.76633   1
  -3   3  -4 55.9521 4.37382   1
   3  -3   4 50.6432 4.46036   1
  -4   3  -4 177.291 10.3872   1
   4  -3   4 164.274 10.8398   3
   4  -3   4 172.404 10.4575   1
  -5   3  -4 1641.80 85.9621   1
   5  -3   4 1695.78 86.0902   1
   5  -3   4 1899.32 87.3484   3
  -6   3  -4 23.9730 3.57365   1
   6  -3   4 23.1030 3.39359   1
   6  -3   4 33.5182 5.19514   3
  -7   3  -4 3.51693 2.11045   1
   7  -3   4 2.24700 2.94815   3
   7  -3   4 7.03168 2.45495   1
  -8   3  -4 5.16549 2.35504   1
   8  -3   4 4.94772 3.09576   3
  -9   3  -4 17.0202 3.54044   1
   9  -3   4 12.9214 4.66277   3
 -10   3  -4 7.85573 3.05939   1
  10  -3   4 3.43333 3.64716   3
  11   2  -4 -4.7011 2.62732   3
  10   2  -4 65.4888 8.30390   3
   9   2  -4 49.5694 7.02789   3
   8   2  -4 20.7253 4.49735   3
   7   2  -4 60.1699 5.67260   2
   6   2  -4 414.660 22.5292   2
   5   2  -4 153.190 9.78191   2
  -5  -2   4 154.181 7.46574   1
  -5  -2   4 152.259 7.45197   1
   4   2  -4 541.960 28.6772   2
  -4  -2   4 528.802 27.0284   1
  -4  -2   4 585.750 27.0120   1
   3   2  -4 939.732 44.8716   2
   3   2  -4 843.230 43.2293   1
  -3  -2   4 900.397 43.5124   1
   2   2  -4 4.00669 1.56084   2
  -2  -2   4 6.50446 1.07668   1
  -2  -2   4 6.30678 1.15947   1
   1   2  -4 81.4336 5.02961   1
   1   2  -4 88.2631 5.77435   2
  -1  -2   4 81.6585 4.97461   1
  -1  -2   4 87.2157 5.14406   1
   0   2  -4 3.27885 1.23095   2
   0   2  -4 1.35399 0.95480   1
   0  -2   4 0.86452 0.81091   1
   0  -2   4 1.26897 0.98724   1
  -1   2  -4 304.427 16.5551   2
  -1   2  -4 306.246 16.2789   1
   1  -2   4 320.079 16.3539   1
   1  -2   4 309.052 16.1562   1
  -2   2  -4 319.143 16.6259   1
   2  -2   4 306.228 16.6042   1
  -3   2  -4 10.6598 2.04386   1
   3  -2   4 7.22791 1.94798   3
   3  -2   4 7.73311 1.97383   1
  -4   2  -4 112.685 7.33987   1
   4  -2   4 116.904 7.40139   1
   4  -2   4 106.817 7.67103   3
  -5   2  -4 498.724 27.0700   1
   5  -2   4 561.869 28.2076   3
   5  -2   4 498.383 26.9918   1
  -6   2  -4 616.853 30.6760   1
   6  -2   4 544.452 30.2701   1
   6  -2   4 594.746 31.7210   3
  -7   2  -4 299.230 17.3707   1
   7  -2   4 310.758 16.1708   4
   7  -2   4 312.433 17.3242   1
   7  -2   4 306.002 18.7897   3
  -8   2  -4 43.9003 4.92764   1
   8  -2   4 27.8411 5.41128   3
  -9   2  -4 1.60328 2.24987   1
   9  -2   4 2.64899 3.04371   3
 -10   2  -4 99.9916 7.94385   1
  10  -2   4 79.6620 9.94100   3
  11  -2   4 117.820 11.7208   3
  11   1  -4 158.216 13.1617   3
  10   1  -4 105.403 9.91628   3
   9   1  -4 59.7385 7.54108   3
   8   1  -4 153.962 11.2676   3
   7   1  -4 143.976 10.1847   3
   6   1  -4 143.064 9.97832   3
   6   1  -4 164.103 10.0619   2
   5   1  -4 96.0213 6.97837   2
   5   1  -4 103.260 7.10858   3
   4   1  -4 396.769 20.4738   2
  -4  -1   4 363.333 18.6939   1
  -4  -1   4 390.327 18.6937   1
   3   1  -4 302.651 14.9687   1
   3   1  -4 304.935 16.4730   2
  -3  -1   4 313.792 15.2219   1
  -3  -1   4 299.548 15.2335   1
   2   1  -4 1419.20 78.1418   1
   2   1  -4 1653.69 79.2948   2
  -2  -1   4 1711.11 78.4118   1
  -2  -1   4 1628.71 78.8560   3
  -2  -1   4 1676.97 78.3271   1
   1   1  -4 730.629 36.8676   1
   1   1  -4 772.428 37.6033   2
  -1  -1   4 764.283 36.8904   1
  -1  -1   4 734.938 36.9096   1
   0   1  -4 1134.42 54.3117   1
   0   1  -4 1118.74 54.7224   2
   0  -1   4 1098.35 54.2384   1
   0  -1   4 1085.92 54.2962   1
  -1   1  -4 876.831 45.1527   1
  -1   1  -4 935.527 45.4640   2
   1  -1   4 938.901 45.1173   1
   1  -1   4 911.341 45.2133   1
  -2   1  -4 645.445 31.4236   1
   2  -1   4 658.218 31.5031   1
   2  -1   4 575.543 31.2096   3
  -3   1  -4 244.719 13.8883   1
   3  -1   4 280.380 14.2376   3
   3  -1   4 247.361 13.9289   1
  -4   1  -4 785.324 36.8216   1
   4  -1   4 709.489 37.1660   3
   4  -1   4 688.545 36.5957   1
  -5   1  -4 495.786 28.2528   1
   5  -1   4 601.115 28.5706   1
   5  -1   4 558.550 29.2883   3
  -6   1  -4 574.040 29.4630   1
   6  -1   4 569.864 30.5837   3
   6  -1   4 555.284 29.4100   1
  -7   1  -4 768.384 36.6618   1
   7  -1   4 677.618 37.7305   3
   7  -1   4 725.113 36.3614   1
   7  -1   4 666.214 35.4624   4
  -8   1  -4 549.978 29.7615   1
   8  -1   4 581.984 31.7745   3
  -9   1  -4 104.057 7.97330   1
   9  -1   4 111.595 9.88403   3
 -10   1  -4 104.703 8.34522   1
  10  -1   4 117.407 10.6997   3
 -11   1  -4 49.7962 5.97671   1
  11  -1   4 64.2451 8.91872   3
  11   0  -4 32.6854 6.37601   3
  10   0  -4 112.067 10.2902   3
   9   0  -4 347.784 21.3012   3
   8   0  -4 377.666 22.1681   3
   7   0  -4 -0.5740 1.76433   3
  -7   0   4 1.21872 0.24760   1
   6   0  -4 45.6720 4.68595   3
  -6   0   4 43.3112 2.37149   1
   5   0  -4 205.435 12.5957   3
   5   0  -4 202.888 12.5196   2
  -5   0   4 227.449 10.6986   1
  -5   0   4 218.227 10.7319   1
   4   0  -4 834.296 41.1329   2
   4   0  -4 811.717 40.9091   3
  -4   0   4 796.654 39.4655   1
  -4   0   4 814.381 39.4355   1
   3   0  -4 259.093 13.9051   3
   3   0  -4 249.669 14.1735   2
   3   0  -4 251.395 12.8253   1
  -3   0   4 278.763 13.1345   1
  -3   0   4 257.921 13.0650   1
  -3   0   4 266.744 14.0269   3
   2   0  -4 1397.71 68.2058   2
  -2   0   4 1310.40 67.2884   1
  -2   0   4 1483.23 67.7502   3
  -2   0   4 1365.79 67.3349   1
   1   0  -4 185.364 9.36553   1
   1   0  -4 169.942 9.85050   2
  -1   0   4 174.752 9.42202   1
  -1   0   4 176.235 9.38819   1
  -1   0   4 183.863 9.22662   3
   0   0  -4 3170.80 146.663   1
   0   0  -4 3007.70 147.415   2
   0   0   4 3012.25 145.818   1
   0   0   4 2887.53 146.767   1
  -1   0  -4 443.630 20.6333   2
  -1   0  -4 396.246 20.3963   1
   1   0   4 397.819 20.4030   1
   1   0   4 372.153 19.8663   3
   1   0   4 401.799 20.3765   1
  -2   0  -4 412.555 21.3954   1
   2   0   4 434.653 21.5088   1
   2   0   4 410.633 21.2153   3
  -3   0  -4 13.4052 2.01374   1
   3   0   4 11.7018 1.98863   3
   3   0   4 12.8170 2.03819   1
  -4   0  -4 783.509 40.8788   1
   4   0   4 812.292 41.3304   3
   4   0   4 857.902 40.9738   1
  -5   0  -4 1703.47 79.9496   1
   5   0   4 1663.59 80.6690   3
   5   0   4 1508.64 79.6802   1
  -6   0  -4 994.984 46.4946   1
   6   0   4 892.672 47.3988   3
   6   0   4 879.510 46.2403   1
  -7   0  -4 520.538 27.2068   1
   7   0   4 541.463 27.2435   1
   7   0   4 509.086 28.5316   3
   7   0   4 504.504 26.6760   4
  -8   0  -4 -0.8533 1.41552   1
   8   0   4 -3.7614 2.02783   3
  -9   0  -4 159.876 10.1094   1
   9   0   4 141.002 11.7606   3
 -10   0  -4 111.396 8.63276   1
  10   0   4 134.185 11.2517   3
 -11   0  -4 50.8351 5.64445   1
  11   0   4 43.9360 7.47838   3
  11  -1  -4 68.3226 9.09367   3
  10  -1  -4 8.48673 3.92998   3
 -10   1   4 7.30655 1.52965   1
   9  -1  -4 76.9356 8.34846   3
  -9   1   4 84.6144 4.78993   1
   8  -1  -4 66.6544 7.25461   3
  -8   1   4 79.3173 4.42029   1
   7  -1  -4 147.371 10.5026   3
  -7   1   4 147.132 7.87523   1
  -7   1   4 155.453 7.88000   1
   6  -1  -4 0.63190 1.72634   3
  -6   1   4 -0.4152 0.43042   1
  -6   1   4 -0.8079 0.52149   1
   5  -1  -4 2.82399 0.31708   1
   5  -1  -4 1.89260 1.62948   3
  -5   1   4 3.65467 0.70937   1
  -5   1   4 2.50883 0.65367   1
   4  -1  -4 7.64238 2.01927   3
   4  -1  -4 7.24389 1.76557   2
   4  -1  -4 10.3471 0.88268   1
  -4   1   4 9.18171 1.03620   1
  -4   1   4 9.03711 1.07858   1
   3  -1  -4 1697.90 81.6576   3
   3  -1  -4 1635.31 81.9490   2
  -3   1   4 1596.76 80.8505   1
  -3   1   4 1667.83 81.6007   3
  -3   1   4 1764.08 81.2447   1
   2  -1  -4 695.374 35.2259   1
   2  -1  -4 721.091 35.5397   3
   2  -1  -4 734.608 36.1495   2
  -2   1   4 734.350 35.3893   1
  -2   1   4 720.572 35.3658   1
  -2   1   4 728.013 35.5414   3
   1  -1  -4 393.969 19.8036   1
   1  -1  -4 383.188 20.2473   2
  -1   1   4 446.469 20.7841   2
  -1   1   4 370.661 19.8242   1
  -1   1   4 403.072 19.4446   3
  -1   1   4 391.457 19.8610   1
   0  -1  -4 70.1572 4.17486   1
   0  -1  -4 61.5802 4.21704   2
   0   1   4 71.0562 4.23860   1
   0   1   4 73.6206 4.29712   1
   0   1   4 61.5350 4.19099   2
  -1  -1  -4 1.80529 0.95768   1
  -1  -1  -4 5.21130 1.11776   2
   1   1   4 4.39145 0.72800   3
   1   1   4 1.43209 0.80541   1
   1   1   4 2.97913 1.07667   1
  -2  -1  -4 4.20345 1.27701   1
  -2  -1  -4 5.70052 1.16890   2
  -2  -1  -4 7.01001 1.21398   3
   2   1   4 4.85882 1.18679   3
   2   1   4 3.91810 1.19422   1
  -3  -1  -4 538.227 28.9166   1
  -3  -1  -4 635.891 29.1109   3
   3   1   4 588.398 29.0761   3
   3   1   4 532.416 28.8793   1
  -4  -1  -4 70.8881 5.12632   1
   4   1   4 71.9235 5.40384   3
   4   1   4 81.9490 5.21983   1
  -5  -1  -4 43.0408 3.72996   1
   5   1   4 40.4921 3.61392   1
   5   1   4 35.3755 4.34457   3
  -6  -1  -4 773.269 39.3349   1
   6   1   4 736.975 39.0954   1
   6   1   4 836.476 40.6704   3
   6   1   4 768.159 39.1488   4
  -7  -1  -4 117.696 8.10367   1
   7   1   4 153.519 10.1301   3
   7   1   4 117.008 8.02890   1
   7   1   4 126.690 8.08672   4
  -8  -1  -4 0.54233 1.54529   1
   8   1   4 -1.7880 2.13356   3
  -9  -1  -4 0.44223 1.61290   1
   9   1   4 0.76259 2.76067   3
 -10  -1  -4 2.13304 1.99527   1
  10   1   4 0.63447 2.93013   3
 -11  -1  -4 77.8355 6.70083   1
  11   1   4 73.4085 9.31221   3
  11  -2  -4 22.0644 5.61042   3
 -11   2   4 17.2409 2.35445   1
  10  -2  -4 187.031 13.9094   3
 -10   2   4 168.270 9.57460   1
   9  -2  -4 310.459 19.6271   3
  -9   2   4 303.960 15.9005   1
   8  -2  -4 -0.1026 2.51341   3
  -8   2   4 4.33725 1.16621   1
   7  -2  -4 5.51772 2.62130   3
  -7   2   4 5.95292 1.15090   1
   6  -2  -4 23.4252 3.84163   3
   6  -2  -4 26.9700 1.93478   1
  -6   2   4 28.2776 2.16604   1
  -6   2   4 30.0069 2.32516   1
   5  -2  -4 402.971 20.5270   1
   5  -2  -4 437.499 22.5925   3
  -5   2   4 443.816 20.7750   1
  -5   2   4 385.680 20.6950   1
   4  -2  -4 110.374 5.75327   1
   4  -2  -4 101.965 7.00883   3
  -4   2   4 100.018 5.79345   1
  -4   2   4 111.592 5.90931   1
   3  -2  -4 519.022 27.2380   2
   3  -2  -4 525.452 27.0372   3
   3  -2  -4 544.834 26.1924   1
  -3   2   4 527.976 26.3159   1
  -3   2   4 534.258 26.3052   1
  -3   2   4 541.339 26.8990   3
   2  -2  -4 53.9979 3.65478   3
   2  -2  -4 51.0797 3.95119   2
   2  -2  -4 53.4278 3.32136   1
  -2   2   4 55.5003 3.43753   1
  -2   2   4 58.7765 3.48466   1
   1  -2  -4 547.090 27.3600   3
   1  -2  -4 575.956 28.0389   2
   1  -2  -4 551.618 27.6179   1
  -1   2   4 567.770 27.9889   2
  -1   2   4 571.318 27.7245   1
  -1   2   4 541.854 27.6737   1
   0  -2  -4 471.507 24.3124   2
   0  -2  -4 462.983 24.2555   1
   0   2   4 503.201 24.3827   1
   0   2   4 502.539 24.4059   1
   0   2   4 497.547 24.3644   2
  -1  -2  -4 1126.40 52.9552   1
  -1  -2  -4 1047.79 52.5624   2
  -1  -2  -4 1054.31 52.8026   1
  -1  -2  -4 1084.66 52.3294   3
   1   2   4 1073.44 52.8460   1
   1   2   4 1055.79 52.8312   1
   1   2   4 1110.31 52.5820   2
  -2  -2  -4 154.267 8.34531   2
  -2  -2  -4 162.367 8.83493   1
  -2  -2  -4 145.155 8.70154   1
  -2  -2  -4 161.601 8.59357   3
   2   2   4 157.275 8.51066   3
   2   2   4 166.236 8.83908   1
  -3  -2  -4 5.06651 1.31137   1
  -3  -2  -4 2.36285 1.14771   1
  -3  -2  -4 5.84645 1.41918   3
   3   2   4 2.15029 1.14549   1
   3   2   4 4.34678 1.38298   3
  -4  -2  -4 214.310 11.3110   1
  -4  -2  -4 213.325 11.3561   1
   4   2   4 200.696 11.6962   3
   4   2   4 189.175 11.2001   1
  -5  -2  -4 176.892 10.3656   1
  -5  -2  -4 183.178 10.4614   1
   5   2   4 197.544 10.8206   4
   5   2   4 193.176 10.5270   1
   5   2   4 165.701 11.0224   3
  -6  -2  -4 188.016 11.2780   1
   6   2   4 207.117 11.3431   1
   6   2   4 206.193 11.6081   4
   6   2   4 188.592 12.3559   3
  -7  -2  -4 12.7645 2.41294   1
   7   2   4 15.1305 3.76752   3
   7   2   4 15.1797 2.70488   4
   7   2   4 10.4885 2.10424   1
  -8  -2  -4 156.824 9.87670   1
   8   2   4 158.548 11.5140   3
  -9  -2  -4 54.2569 5.42643   1
   9   2   4 58.4273 7.52082   3
 -10  -2  -4 21.4766 3.59076   1
  10   2   4 11.7771 4.46271   3
 -11  -2  -4 21.6223 3.57687   1
  11   2   4 18.7767 5.34099   3
  11  -3  -4 7.30133 4.34925   3
 -11   3   4 7.75405 1.85477   1
  10  -3  -4 114.850 11.0217   3
 -10   3   4 120.161 7.46542   1
   9  -3  -4 260.131 17.5405   3
  -9   3   4 262.165 14.1217   1
   8  -3  -4 861.214 44.9894   3
  -8   3   4 829.174 41.8409   1
   7  -3  -4 348.202 20.0274   3
  -7   3   4 327.258 17.3880   1
   6  -3  -4 149.531 10.1905   3
   6  -3  -4 143.749 8.04874   1
  -6   3   4 148.000 8.16143   1
  -6   3   4 154.782 8.35249   1
   5  -3  -4 362.701 19.8327   3
  -5   3   4 353.420 18.1506   1
  -5   3   4 357.495 18.2039   1
   4  -3  -4 628.747 32.0493   3
   4  -3  -4 625.230 30.7135   1
  -4   3   4 576.321 30.7522   1
  -4   3   4 659.650 30.8230   1
   3  -3  -4 2014.00 91.4587   3
   3  -3  -4 1788.98 90.4524   1
  -3   3   4 1933.45 91.1466   1
  -3   3   4 1746.76 90.5575   1
   2  -3  -4 596.322 30.2959   3
   2  -3  -4 579.552 29.9300   1
  -2   3   4 630.870 30.1138   1
  -2   3   4 622.589 30.0896   1
   1  -3  -4 2274.90 111.099   2
   1  -3  -4 2303.85 110.880   1
  -1   3   4 2072.44 110.868   1
  -1   3   4 2461.14 111.028   1
  -1   3   4 2349.29 111.117   2
   0  -3  -4 1465.11 70.4815   2
   0  -3  -4 1484.37 70.6243   1
   0   3   4 1495.15 70.4783   2
   0   3   4 1314.13 70.5391   1
   0   3   4 1490.51 70.6860   1
  -1  -3  -4 3339.62 163.343   1
  -1  -3  -4 3435.57 163.731   2
  -1  -3  -4 3083.01 163.697   3
   1   3   4 3686.45 163.125   1
   1   3   4 3320.61 164.060   1
  -2  -3  -4 5.29815 1.36932   1
  -2  -3  -4 6.15525 1.29104   3
  -2  -3  -4 5.50659 1.35042   1
  -2  -3  -4 7.11704 0.89310   2
   2   3   4 6.19286 1.29469   1
  -3  -3  -4 66.3728 5.06042   3
  -3  -3  -4 61.8264 3.65329   2
  -3  -3  -4 60.5214 4.40882   1
  -3  -3  -4 60.2958 4.32894   1
   3   3   4 69.9951 4.48627   1
   3   3   4 71.2026 4.61418   3
  -4  -3  -4 24.1639 2.75777   1
  -4  -3  -4 19.2151 2.41440   1
   4   3   4 17.4371 2.30953   1
   4   3   4 28.7012 3.24454   3
  -5  -3  -4 837.374 37.4566   1
  -5  -3  -4 683.988 37.1719   1
   5   3   4 708.719 37.9694   3
   5   3   4 737.343 37.6621   4
   5   3   4 746.047 37.1983   1
  -6  -3  -4 509.744 29.0716   1
  -6  -3  -4 658.220 29.4827   1
   6   3   4 534.617 29.5841   4
   6   3   4 619.403 29.2558   1
   6   3   4 539.054 30.2612   3
  -7  -3  -4 480.223 25.2692   1
   7   3   4 464.328 26.5825   3
   7   3   4 500.770 25.1194   1
   7   3   4 491.148 25.8221   4
  -8  -3  -4 165.220 10.2172   1
   8   3   4 169.922 12.0014   3
  -9  -3  -4 86.3638 6.71498   1
   9   3   4 102.973 9.02794   3
 -10  -3  -4 250.816 14.2764   1
  10   3   4 233.345 16.5330   3
 -11  -3  -4 19.7384 3.31470   1
  11   3   4 12.5804 4.67598   3
  11  -4  -4 179.610 14.9818   3
 -11   4   4 191.448 11.2659   1
  10  -4  -4 273.233 18.2818   3
 -10   4   4 248.893 14.4150   1
   9  -4  -4 253.947 17.5236   3
  -9   4   4 262.240 14.3330   1
   8  -4  -4 419.995 24.7800   3
   7  -4  -4 206.043 13.8243   3
  -7   4   4 210.722 11.6457   1
   6  -4  -4 885.463 44.8172   3
   6  -4  -4 845.230 42.4284   1
  -6   4   4 897.610 42.5667   1
  -6   4   4 812.599 42.5711   1
   5  -4  -4 151.789 8.53821   1
   5  -4  -4 163.171 10.3009   3
  -5   4   4 154.961 8.57501   1
  -5   4   4 148.815 8.67433   1
   4  -4  -4 181.857 9.49632   1
   4  -4  -4 159.760 10.4165   3
  -4   4   4 180.756 9.54414   1
  -4   4   4 170.263 9.53474   1
   3  -4  -4 175.180 9.45518   1
   3  -4  -4 159.701 10.0614   3
  -3   4   4 172.333 9.44877   1
  -3   4   4 191.002 9.57250   1
   2  -4  -4 1034.82 47.6147   1
  -2   4   4 940.502 47.6186   1
  -2   4   4 933.735 47.6170   1
   1  -4  -4 3767.23 163.057   1
  -1   4   4 3160.65 162.057   1
  -1   4   4 3660.88 163.885   1
  -1   4   4 2873.40 162.008   2
   0  -4  -4 3325.03 176.748   1
   0   4   4 3654.62 190.375   1
   0   4   4 3980.79 176.613   1
  -1  -4  -4 1594.52 75.7798   1
   1   4   4 1445.52 75.0641   2
   1   4   4 1628.12 75.8153   1
  -2  -4  -4 33.9717 3.62887   1
  -2  -4  -4 39.9415 3.20352   1
  -2  -4  -4 44.7058 3.37692   3
   2   4   4 42.2391 3.23617   1
  -3  -4  -4 478.972 24.5045   1
  -3  -4  -4 456.747 24.2924   1
  -3  -4  -4 478.469 23.1052   2
   3   4   4 504.630 24.4409   1
  -4  -4  -4 532.133 25.4578   2
  -4  -4  -4 484.176 26.5567   1
  -4  -4  -4 502.370 26.6645   1
   4   4   4 523.006 27.1899   4
   4   4   4 576.792 26.7267   1
  -5  -4  -4 348.424 18.2002   1
  -5  -4  -4 351.788 18.3255   1
   5   4   4 342.409 18.0648   1
   5   4   4 347.801 18.8381   4
   5   4   4 332.517 18.9951   3
  -6  -4  -4 123.285 7.92379   1
  -6  -4  -4 133.072 7.15996   2
  -6  -4  -4 120.179 7.85798   1
   6   4   4 121.069 7.71868   1
   6   4   4 154.749 9.50785   3
   6   4   4 129.829 8.63282   4
  -7  -4  -4 461.078 23.6070   1
   7   4   4 435.381 23.9920   1
   7   4   4 453.891 25.2015   3
  -8  -4  -4 426.313 23.5162   1
   8   4   4 474.211 25.8095   3
  -9  -4  -4 313.405 18.1996   1
   9   4   4 359.814 20.9142   3
 -10  -4  -4 19.7472 3.36234   1
  10   4   4 20.8033 5.15769   3
 -11  -4  -4 3.56488 2.02475   1
  11   4   4 1.50869 3.20028   3
  10  -5  -4 72.7974 9.48717   3
 -10   5   4 62.2830 5.63396   1
   9  -5  -4 312.503 20.3718   3
  -9   5   4 310.136 17.1648   1
   8  -5  -4 124.901 10.5838   3
   7  -5  -4 13.7668 4.03413   3
  -7   5   4 18.4901 2.71414   1
   6  -5  -4 173.340 10.3975   1
   6  -5  -4 200.727 12.7183   3
  -6   5   4 192.277 10.7677   1
   5  -5  -4 32.1708 3.16240   1
   5  -5  -4 31.9444 4.33103   3
  -5   5   4 28.7489 3.02007   1
  -5   5   4 37.1665 3.55406   1
   4  -5  -4 380.654 18.2069   1
   4  -5  -4 356.112 19.3222   3
  -4   5   4 334.540 18.1438   1
  -4   5   4 327.245 18.0368   1
   3  -5  -4 39.8482 3.33734   1
  -3   5   4 46.9842 3.44663   1
  -3   5   4 46.8543 3.50240   1
   2  -5  -4 324.347 16.4428   1
  -2   5   4 304.264 16.3858   1
  -2   5   4 319.457 16.9486   1
   1  -5  -4 100.555 5.97479   1
  -1   5   4 93.8794 5.93347   1
   0  -5  -4 1324.22 68.9281   1
   0   5   4 1420.16 69.0742   1
   0   5   4 1489.16 68.7527   2
  -1  -5  -4 29.8445 2.73498   1
   1   5   4 31.8999 2.10691   2
   1   5   4 28.8509 2.73308   1
  -2  -5  -4 26.2407 2.75111   1
   2   5   4 20.9988 3.15597   4
   2   5   4 34.0546 2.79766   1
  -3  -5  -4 1.43841 0.99882   1
   3   5   4 1.67225 1.54583   4
   3   5   4 1.58621 1.01817   1
  -4  -5  -4 12.9645 2.15722   1
  -4  -5  -4 12.0982 1.97676   1
   4   5   4 8.87457 1.70720   1
   4   5   4 10.4811 2.46126   4
  -5  -5  -4 172.721 10.2998   1
  -5  -5  -4 174.912 10.1498   1
   5   5   4 182.223 10.1450   1
   5   5   4 181.265 10.9748   4
  -6  -5  -4 272.637 14.1782   1
   6   5   4 242.739 13.8991   1
  -7  -5  -4 37.9863 3.91160   1
  -8  -5  -4 -0.0962 1.36973   1
  -9  -5  -4 107.873 7.45314   1
 -10  -5  -4 33.4858 3.95734   1
 -11  -5  -4 63.8848 5.60515   1
  10  -6  -4 2.31402 3.65406   3
 -10   6   4 2.97641 2.18986   1
   9  -6  -4 -2.5007 2.85472   3
  -9   6   4 -0.6354 1.64389   1
   8  -6  -4 18.9290 4.61829   3
   7  -6  -4 84.6222 8.24690   3
  -7   6   4 85.3897 6.30364   1
   6  -6  -4 40.8192 5.50325   3
   6  -6  -4 33.4236 3.48487   1
  -6   6   4 30.1430 3.61516   1
   5  -6  -4 82.9507 6.99960   3
   5  -6  -4 82.9899 5.73461   1
  -5   6   4 84.2457 5.91718   1
   4  -6  -4 10.0000 2.62480   3
   4  -6  -4 7.77611 1.89416   1
  -4   6   4 9.88006 2.02232   1
   3  -6  -4 20.9723 2.58190   1
  -3   6   4 17.9048 2.46556   1
   2  -6  -4 257.190 13.7519   1
  -2   6   4 254.514 13.8288   1
   1  -6  -4 9.90024 1.88101   1
  -1   6   4 11.0068 1.85876   1
   0  -6  -4 173.627 9.81996   1
   0   6   4 179.843 9.91206   1
   0   6   4 174.766 10.1915   4
   0   6   4 173.030 9.43807   2
  -1  -6  -4 5.20120 1.45608   1
   1   6   4 8.34778 1.13685   2
   1   6   4 10.9805 2.14602   4
   1   6   4 6.44691 1.50324   1
  -2  -6  -4 473.789 26.0802   1
   2   6   4 577.121 27.0873   4
   2   6   4 500.837 26.2042   1
  -3  -6  -4 170.871 10.3801   1
   3   6   4 175.804 11.1139   4
   3   6   4 211.169 10.5793   1
  -4  -6  -4 0.12570 1.11965   1
   4   6   4 0.19212 1.69243   4
   4   6   4 2.51112 1.24623   1
  -5  -6  -4 12.3312 2.14754   1
  -5  -6  -4 11.7918 2.29300   1
   5   6   4 7.13273 1.67767   1
  -6  -6  -4 71.5453 5.49898   1
   6   6   4 83.4715 5.40421   1
  -7  -6  -4 429.616 22.5853   1
  -8  -6  -4 354.138 19.0945   1
  -9  -6  -4 175.556 10.7069   1
 -10  -6  -4 0.85339 1.74406   1
  10  -7  -4 102.062 10.7205   3
 -10   7   4 92.9958 7.66730   1
   9  -7  -4 95.3970 9.92178   3
  -9   7   4 89.1027 7.30557   1
   8  -7  -4 20.7094 5.23326   3
   7  -7  -4 327.222 19.6967   3
  -7   7   4 293.907 17.2659   1
   6  -7  -4 240.268 14.7646   3
  -6   7   4 195.365 12.4398   1
   5  -7  -4 150.010 9.22028   1
   5  -7  -4 159.410 10.8920   3
  -5   7   4 149.823 8.16806   4
  -5   7   4 152.096 9.36220   1
   4  -7  -4 -0.2402 1.23002   1
  -4   7   4 0.70163 1.24448   1
  -4   7   4 2.92909 1.02900   4
   3  -7  -4 1.89895 1.64098   1
  -3   7   4 6.82225 1.41735   4
  -3   7   4 2.48289 1.57302   1
   2  -7  -4 212.926 12.1177   1
  -2   7   4 213.495 12.1886   1
  -2   7   4 221.352 11.9487   4
   1  -7  -4 1481.90 71.5190   1
  -1   7   4 1399.41 71.4963   1
  -1   7   4 1483.13 71.6064   4
   0  -7  -4 1045.77 51.0883   1
   0   7   4 1020.91 51.0372   1
   0   7   4 1022.13 51.3611   4
  -1  -7  -4 469.992 24.9701   1
   1   7   4 480.026 25.5460   4
   1   7   4 512.859 25.1161   1
  -2  -7  -4 449.817 23.1093   1
   2   7   4 457.813 23.8965   4
   2   7   4 452.148 21.8197   2
   2   7   4 427.115 23.0203   1
  -3  -7  -4 128.131 7.66063   1
   3   7   4 118.404 7.43374   1
   3   7   4 121.102 8.25104   4
  -4  -7  -4 134.018 8.07828   1
   4   7   4 129.205 7.91991   1
  -5  -7  -4 213.207 11.5415   1
   5   7   4 188.970 11.2188   1
  -6  -7  -4 185.651 10.8737   1
  -7  -7  -4 94.2516 6.62179   1
  -8  -7  -4 664.399 34.0511   1
  -9  -7  -4 553.306 28.8458   1
 -10  -7  -4 520.640 27.3870   1
   9  -8  -4 105.945 10.6318   3
  -9   8   4 92.6524 7.90778   1
   8  -8  -4 297.793 19.9938   3
   7  -8  -4 584.901 34.6801   3
  -7   8   4 653.083 32.7715   1
   6  -8  -4 12.1597 3.62475   3
  -6   8   4 14.3216 2.96747   1
   5  -8  -4 217.375 13.9966   3
   5  -8  -4 197.557 12.0766   1
  -5   8   4 204.967 12.3042   1
   4  -8  -4 131.459 7.95312   1
  -4   8   4 103.118 7.62699   1
   3  -8  -4 89.2417 6.67161   1
  -3   8   4 114.639 7.14188   1
   2  -8  -4 13.8587 2.51451   1
  -2   8   4 14.2112 2.30302   4
  -2   8   4 12.3252 2.47846   1
   1  -8  -4 48.3875 4.38089   1
  -1   8   4 50.7364 4.31596   1
  -1   8   4 51.4147 4.25914   4
   0  -8  -4 912.182 47.8012   1
   0   8   4 969.175 48.2688   4
   0   8   4 996.711 48.0159   1
  -1  -8  -4 1389.19 71.6696   1
   1   8   4 1525.34 72.4783   4
   1   8   4 1456.96 71.7692   1
  -2  -8  -4 1560.15 74.6578   1
   2   8   4 1470.03 74.4343   1
  -3  -8  -4 47.1312 4.28182   1
   3   8   4 56.6108 4.32795   1
  -4  -8  -4 172.405 10.6359   1
   4   8   4 197.216 10.7645   1
  -5  -8  -4 179.513 10.6619   1
  -6  -8  -4 337.189 18.2437   1
  -7  -8  -4 231.135 13.2470   1
  -8  -8  -4 312.343 17.1801   1
  -9  -8  -4 35.6286 4.09905   1
   8  -9  -4 74.0630 9.66564   3
   7  -9  -4 89.2195 9.48974   3
  -7   9   4 100.853 7.79653   1
   6  -9  -4 185.163 14.1872   3
  -6   9   4 217.019 12.8855   1
   5  -9  -4 136.458 9.21332   1
   5  -9  -4 136.465 10.8489   3
  -5   9   4 143.817 9.54529   1
   4  -9  -4 6.13609 2.20255   1
  -4   9   4 5.60790 2.28869   1
   3  -9  -4 41.9392 4.54543   1
  -3   9   4 45.8141 4.91906   1
   2  -9  -4 139.519 8.71703   1
  -2   9   4 122.832 8.52375   1
   1  -9  -4 168.052 10.4692   1
  -1   9   4 177.314 10.5603   1
   0  -9  -4 7.28273 2.02763   1
   0   9   4 7.96935 2.04943   1
  -1  -9  -4 -0.2688 1.33538   1
   1   9   4 2.17677 1.49958   1
  -2  -9  -4 187.669 10.8872   1
   2   9   4 177.810 9.82102   2
   2   9   4 180.429 10.7193   1
  -3  -9  -4 155.274 9.96599   1
   3   9   4 177.873 10.1220   1
  -4  -9  -4 191.188 11.1216   1
   4   9   4 179.223 10.8219   1
  -5  -9  -4 0.12608 1.48296   1
  -6  -9  -4 20.1514 3.12330   1
  -7  -9  -4 91.9700 6.66830   1
  -8  -9  -4 62.4711 5.43317   1
  -9  -9  -4 106.127 7.53604   1
   8 -10  -4 63.2106 9.08320   3
   7 -10  -4 -6.0838 2.37379   3
   6 -10  -4 32.8939 5.90296   3
  -6  10   4 41.7868 5.20090   1
   5 -10  -4 52.6182 5.53953   1
  -5  10   4 57.9683 6.06831   1
   4 -10  -4 63.0855 5.76754   1
  -4  10   4 56.4640 5.99621   1
   3 -10  -4 1.75584 2.17864   1
  -3  10   4 1.96160 1.89437   1
   2 -10  -4 33.1563 4.31765   1
  -2  10   4 37.4444 4.69334   1
   1 -10  -4 95.7646 7.33999   1
  -1  10   4 99.5778 7.35125   1
   0 -10  -4 148.541 9.63988   1
   0  10   4 148.705 9.54115   1
  -1 -10  -4 633.300 33.2453   1
   1  10   4 650.912 33.2755   1
  -2 -10  -4 0.60934 1.82205   1
   2  10   4 1.74123 1.48816   1
  -3 -10  -4 37.7947 4.35665   1
   3  10   4 40.4980 4.34648   1
  -4 -10  -4 27.1470 3.73979   1
  -5 -10  -4 1.45207 1.93274   1
  -6 -10  -4 0.98145 1.85478   1
  -7 -10  -4 8.23978 2.43727   1
  -8 -10  -4 7.07915 2.37548   1
   6 -11  -4 308.670 21.3079   3
  -6  11   4 336.047 19.3759   1
  -5  11   4 167.773 11.4919   1
   4 -11  -4 30.1351 4.39240   1
  -4  11   4 33.3479 4.74755   1
   3 -11  -4 154.992 10.6261   1
  -3  11   4 165.082 10.8619   1
   2 -11  -4 278.656 16.0526   1
  -2  11   4 263.057 15.8859   1
   1 -11  -4 70.7197 6.28157   1
  -1  11   4 69.1255 6.17171   1
   0 -11  -4 60.4749 6.03744   1
   0  11   4 62.6422 5.63677   1
  -1 -11  -4 567.091 28.7329   1
   1  11   4 512.102 28.4433   1
  -2 -11  -4 803.970 41.1789   1
   2  11   4 797.356 41.2054   1
  -3 -11  -4 726.653 37.5468   1
  -4 -11  -4 24.7588 3.70779   1
  -5 -11  -4 0.92997 1.98807   1
  -6 -11  -4 82.0452 6.68592   1
  -7 -11  -4 93.9561 7.38419   1
  -5  12   4 328.581 19.6576   1
   4 -12  -4 214.940 14.4912   1
  -4  12   4 253.856 15.1454   1
   3 -12  -4 116.229 9.00277   1
  -3  12   4 115.559 8.95157   1
   2 -12  -4 63.9649 6.57612   1
  -2  12   4 58.4686 6.36097   1
   1 -12  -4 119.581 9.07682   1
  -1  12   4 124.816 8.99507   1
   0 -12  -4 333.502 19.0601   1
   0  12   4 328.077 18.9096   1
  -1 -12  -4 298.688 17.4230   1
  -2 -12  -4 350.329 19.8197   1
  -3 -12  -4 388.116 21.6033   1
  -4 -12  -4 286.283 16.6999   1
  -5 -12  -4 169.850 11.1503   1
  -6 -12  -4 76.1068 6.86222   1
   3 -13  -4 147.083 11.2148   1
  -3  13   4 169.808 11.6321   1
   2 -13  -4 61.6948 6.74844   1
  -2  13   4 56.6473 6.55804   1
   1 -13  -4 10.0662 3.50355   1
  -1  13   4 6.27361 2.72995   1
   0 -13  -4 -0.2455 2.47951   1
  -1 -13  -4 104.157 8.44017   1
  -2 -13  -4 204.914 13.2115   1
  -3 -13  -4 94.7493 7.86697   1
  -4 -13  -4 -2.3239 2.02600   1
   2  10  -5 290.322 17.6969   2
  -2 -10   5 255.281 16.1948   1
  -1 -10   5 373.957 21.4887   1
   0  10  -5 135.370 10.9530   2
   0 -10   5 142.261 10.3439   1
  -1  10  -5 48.6034 6.74586   2
   1 -10   5 47.8679 6.10429   1
  -5  -9   5 61.4663 5.37320   1
   4   9  -5 29.8240 5.08276   2
  -4  -9   5 26.7714 3.70667   1
   3   9  -5 27.9517 4.79676   2
  -3  -9   5 20.7032 3.60404   1
   2   9  -5 48.8085 6.50805   2
  -2  -9   5 45.2889 5.19310   1
   1   9  -5 176.828 12.4786   2
  -1  -9   5 177.763 11.6758   1
   0   9  -5 288.142 17.6760   2
   0  -9   5 269.644 16.6487   1
  -1   9  -5 205.951 14.3600   2
   1  -9   5 230.972 14.1937   1
  -2   9  -5 50.5014 6.55241   2
   2  -9   5 35.9309 5.31621   1
  -3   9  -5 8.53116 3.07243   2
   3  -9   5 1.93330 2.77947   1
  -4   9  -5 26.4306 5.40652   2
   4  -9   5 33.4345 5.34288   1
   6   8  -5 44.5998 6.11761   2
  -6  -8   5 49.7096 4.15487   1
   5   8  -5 0.94269 2.37406   2
  -5  -8   5 -0.4784 1.51324   1
   4   8  -5 -0.2297 2.13082   2
  -4  -8   5 -1.8643 1.52092   1
   3   8  -5 5.78659 3.01551   2
  -3  -8   5 3.63819 2.14460   1
   2   8  -5 7.98159 3.07194   2
  -2  -8   5 3.47792 2.15157   1
   1   8  -5 46.0455 5.83579   2
  -1  -8   5 31.4086 4.18133   1
   0   8  -5 115.921 9.24135   2
   0  -8   5 109.541 8.39934   1
  -1   8  -5 59.3692 6.84261   2
   1  -8   5 53.0124 5.89434   1
  -2   8  -5 45.2451 6.01426   2
   2  -8   5 51.3725 5.92841   1
  -3   8  -5 7.92773 2.77602   2
  -3   8  -5 12.2276 3.73443   1
   3  -8   5 14.1293 3.57740   1
  -4   8  -5 42.5134 5.64477   1
   4  -8   5 51.6063 6.37224   1
  -5   8  -5 91.6768 8.02867   1
   5  -8   5 95.8093 9.44127   3
   5  -8   5 73.1744 8.16863   1
  -6   8  -5 -0.4985 2.01572   1
   6  -8   5 0.27608 2.69956   1
   6  -8   5 -3.8967 2.87243   3
   7   7  -5 171.280 12.1103   2
   6   7  -5 248.375 15.0494   2
  -6  -7   5 215.992 12.2996   1
   5   7  -5 42.5582 5.82321   2
  -5  -7   5 31.0130 3.33783   1
   4   7  -5 -0.9122 2.04124   2
  -4  -7   5 0.64858 1.50131   1
   3   7  -5 -1.2062 1.98605   2
  -3  -7   5 -4.0287 1.04716   1
   2   7  -5 0.79108 2.24571   2
  -2  -7   5 2.21153 1.96305   1
   1   7  -5 115.792 8.84508   2
  -1  -7   5 108.415 7.91672   1
   0   7  -5 37.4199 5.36502   2
   0  -7   5 39.3436 4.62370   1
  -1   7  -5 56.0601 6.54283   2
   1  -7   5 61.4518 6.10026   1
  -2   7  -5 70.3807 6.22714   1
  -2   7  -5 63.2405 7.15907   2
   2  -7   5 82.1253 6.79923   1
  -3   7  -5 157.501 10.8954   1
  -3   7  -5 153.653 11.1659   2
   3  -7   5 177.439 11.4525   1
  -4   7  -5 27.1355 4.46719   1
   4  -7   5 21.9390 4.39083   1
  -5   7  -5 -2.1481 1.57936   1
   5  -7   5 1.80172 3.11998   3
   5  -7   5 -0.8092 2.57302   1
  -6   7  -5 -0.7439 1.89088   1
   6  -7   5 -4.1296 2.66254   3
   6  -7   5 -0.5548 2.40580   1
  -7   7  -5 4.24569 2.61989   1
   7  -7   5 -1.5659 3.07560   3
   7  -7   5 -3.8440 2.12475   1
   8   6  -5 116.156 9.27168   2
   7   6  -5 262.981 16.4680   2
   6   6  -5 169.523 11.7290   2
  -6  -6   5 168.857 9.26607   1
   5   6  -5 304.153 17.3641   2
  -5  -6   5 273.088 15.0812   1
   4   6  -5 277.723 17.2383   2
  -4  -6   5 304.612 15.8330   1
   3   6  -5 157.014 10.8789   2
  -3  -6   5 167.224 9.79032   1
   2   6  -5 297.470 16.7253   2
  -2  -6   5 257.970 15.1342   1
   1   6  -5 359.536 21.2016   2
  -1  -6   5 396.286 20.4992   1
   0   6  -5 235.521 14.4610   2
   0   6  -5 234.719 13.6008   1
   0  -6   5 239.722 13.8122   1
  -1   6  -5 114.175 7.94566   1
  -1   6  -5 107.884 8.33602   2
   1  -6   5 123.009 8.28712   1
  -2   6  -5 271.303 16.4736   1
  -2   6  -5 313.401 17.4161   2
   2  -6   5 282.429 16.7586   1
  -3   6  -5 272.379 15.6816   1
   3  -6   5 252.904 15.6457   1
  -4   6  -5 73.8779 6.58546   1
   4  -6   5 79.4598 6.98627   1
  -5   6  -5 40.4766 5.40477   1
   5  -6   5 46.2667 6.47454   3
   5  -6   5 49.7633 5.92707   1
  -6   6  -5 109.301 8.76742   1
   6  -6   5 110.021 9.91971   3
   6  -6   5 107.106 8.98666   1
  -7   6  -5 46.9572 6.15925   1
   7  -6   5 44.2185 7.11798   3
   7  -6   5 39.2518 5.72092   1
  -8   6  -5 274.039 17.3738   1
   8  -6   5 261.859 18.9874   3
   8   5  -5 89.9017 8.26771   2
   7   5  -5 375.550 21.7365   2
   6   5  -5 450.927 24.2714   2
  -6  -5   5 418.202 21.4634   1
   5   5  -5 76.3019 6.57882   2
  -5  -5   5 69.2425 4.64826   1
   4   5  -5 76.1513 6.46160   2
  -4  -5   5 67.7942 4.81103   1
   3   5  -5 30.2918 4.35429   2
  -3  -5   5 30.6810 3.28998   1
   2   5  -5 295.201 17.5424   2
  -2  -5   5 316.209 16.5861   1
   1   5  -5 83.9999 6.75099   2
   1   5  -5 80.4577 5.75331   1
  -1  -5   5 90.2322 6.10064   1
   0   5  -5 185.346 11.5606   2
   0   5  -5 179.767 10.6686   1
   0  -5   5 182.773 10.9182   1
  -1   5  -5 389.033 21.7077   2
  -1   5  -5 383.580 20.9557   1
   1  -5   5 402.029 21.2386   1
  -2   5  -5 1183.41 60.4371   2
  -2   5  -5 1181.34 59.9159   1
   2  -5   5 1227.41 60.1531   1
  -3   5  -5 279.527 15.9518   1
   3  -5   5 272.915 16.0358   1
  -4   5  -5 11.9680 2.84243   1
   4  -5   5 10.6832 3.08603   3
   4  -5   5 12.9387 3.05949   1
  -5   5  -5 2.18850 1.97360   1
   5  -5   5 4.91815 2.69925   3
   5  -5   5 1.27091 2.29935   1
  -6   5  -5 7.02818 2.62799   1
   6  -5   5 10.7801 3.68240   3
   6  -5   5 3.93380 2.61476   1
  -7   5  -5 175.411 12.3505   1
   7  -5   5 171.667 13.4459   3
   7  -5   5 197.825 12.6572   1
  -8   5  -5 190.227 13.7807   1
   8  -5   5 226.931 15.9377   3
  -9   5  -5 71.7464 7.98394   1
   9  -5   5 83.8659 10.3048   3
   8   4  -5 75.9479 7.14694   2
   7   4  -5 66.0381 6.48886   2
   6   4  -5 147.348 10.3104   2
  -6  -4   5 146.692 7.53501   1
   5   4  -5 213.164 13.0675   2
  -5  -4   5 206.198 10.9262   1
   4   4  -5 67.3909 5.73914   2
  -4  -4   5 56.0177 4.08161   1
   3   4  -5 37.5332 4.47412   2
  -3  -4   5 30.7366 3.05943   1
  -3  -4   5 29.5138 2.87998   1
   2   4  -5 8.44910 2.44624   2
   2   4  -5 7.14482 1.50673   1
  -2  -4   5 9.21883 1.56557   1
  -2  -4   5 8.55273 1.76136   1
   1   4  -5 16.4708 2.38297   1
   1   4  -5 12.3715 2.60355   2
  -1  -4   5 17.9891 2.23666   1
  -1  -4   5 15.4695 2.36993   1
   0   4  -5 25.0203 2.91216   1
   0   4  -5 20.9536 3.41846   2
   0  -4   5 20.1777 2.83759   1
  -1   4  -5 389.815 21.8084   2
  -1   4  -5 426.818 21.3421   1
   1  -4   5 385.285 21.2804   1
  -2   4  -5 249.308 15.0676   2
  -2   4  -5 269.741 14.6929   1
   2  -4   5 259.622 14.7795   1
  -3   4  -5 171.540 10.6362   1
   3  -4   5 174.734 10.8527   1
  -4   4  -5 68.7801 5.88194   1
   4  -4   5 76.5019 6.57781   3
   4  -4   5 69.6036 6.10303   1
  -5   4  -5 3.30174 2.00826   1
   5  -4   5 -0.0164 2.23150   3
   5  -4   5 1.95141 2.23115   1
  -6   4  -5 69.4605 6.28032   1
   6  -4   5 62.9156 6.50559   1
   6  -4   5 65.3961 6.85878   3
  -7   4  -5 25.7027 4.33242   1
   7  -4   5 27.3815 4.32430   1
   7  -4   5 27.2377 5.28785   3
  -8   4  -5 -0.8789 1.61931   1
   8  -4   5 0.33558 2.82585   3
  -9   4  -5 52.1717 6.76057   1
   9  -4   5 73.3276 9.38098   3
   8   3  -5 14.4648 3.64636   2
   7   3  -5 378.558 21.5415   2
   6   3  -5 -3.0539 1.64767   2
   5   3  -5 138.456 9.36422   2
  -5  -3   5 139.381 7.20356   1
  -5  -3   5 136.629 7.32321   1
   4   3  -5 10.7337 2.66384   2
   4   3  -5 7.14653 0.83022   1
  -4  -3   5 7.76625 1.20799   1
  -4  -3   5 5.99395 1.20861   1
   3   3  -5 470.739 23.6108   1
   3   3  -5 454.844 25.1720   2
  -3  -3   5 493.328 23.9554   1
   2   3  -5 86.5910 5.48491   1
   2   3  -5 89.3805 6.53135   2
  -2  -3   5 96.2935 5.78462   1
   1   3  -5 20.5400 3.23522   2
   1   3  -5 20.7983 2.37861   1
  -1  -3   5 22.5243 2.61812   1
  -1  -3   5 19.4293 2.30441   1
   0   3  -5 2.42338 1.64609   2
   0   3  -5 0.49277 1.06175   1
   0  -3   5 1.27749 1.08163   1
   0  -3   5 -0.7280 1.04659   1
  -1   3  -5 877.430 44.8538   2
  -1   3  -5 905.158 44.4215   1
   1  -3   5 875.674 44.4203   1
  -2   3  -5 467.246 24.5608   1
  -2   3  -5 477.780 24.9367   2
   2  -3   5 459.212 24.5444   1
  -3   3  -5 428.551 23.4902   1
   3  -3   5 425.230 23.5138   1
   3  -3   5 472.856 23.8879   3
  -4   3  -5 220.203 13.5906   1
   4  -3   5 253.181 14.2537   3
   4  -3   5 226.505 13.6398   1
  -5   3  -5 83.8695 6.59914   1
   5  -3   5 84.0854 7.25887   3
   5  -3   5 78.9237 6.47311   1
  -6   3  -5 243.290 15.4014   1
   6  -3   5 262.542 16.6434   3
   6  -3   5 283.421 15.7168   1
  -7   3  -5 133.973 9.97283   1
   7  -3   5 181.070 11.9592   3
   7  -3   5 130.052 9.89285   1
  -8   3  -5 55.4669 6.22415   1
   8  -3   5 58.4035 7.72432   3
  -9   3  -5 36.3761 5.11370   1
   9  -3   5 19.4491 5.28851   3
 -10   3  -5 67.7863 7.34199   1
  10  -3   5 67.1513 9.27401   3
   7   2  -5 32.3516 4.63910   2
   6   2  -5 290.640 16.9690   2
   5   2  -5 992.011 51.7035   2
  -5  -2   5 1010.67 49.4163   1
  -5  -2   5 1052.71 49.3766   1
   4   2  -5 193.526 11.3914   2
  -4  -2   5 182.614 9.73732   1
   3   2  -5 622.872 30.7274   1
   3   2  -5 593.819 32.2371   2
  -3  -2   5 672.817 30.9325   1
  -3  -2   5 608.768 31.0149   1
   2   2  -5 532.538 27.6157   2
   2   2  -5 541.410 26.4433   1
  -2  -2   5 505.951 26.5397   1
  -2  -2   5 539.202 26.4608   1
   1   2  -5 716.424 35.4258   1
   1   2  -5 692.827 36.3232   2
  -1  -2   5 705.551 35.3529   1
  -1  -2   5 732.932 35.5516   1
   0   2  -5 802.253 41.5775   2
   0   2  -5 829.240 41.0283   1
   0  -2   5 829.282 41.0876   1
   0  -2   5 835.801 40.9141   1
  -1   2  -5 195.229 11.2290   1
  -1   2  -5 186.731 11.5748   2
   1  -2   5 222.215 11.4897   1
  -2   2  -5 431.259 23.3169   1
  -2   2  -5 447.638 23.6435   2
   2  -2   5 470.321 23.5601   1
  -3   2  -5 1590.47 79.2644   1
   3  -2   5 1600.52 79.3346   3
   3  -2   5 1635.17 79.2983   1
  -4   2  -5 1395.15 68.1706   1
   4  -2   5 1309.24 68.0145   1
   4  -2   5 1411.26 68.5282   3
  -5   2  -5 335.036 17.9556   1
   5  -2   5 313.781 18.5103   3
   5  -2   5 315.057 17.8275   1
  -6   2  -5 102.893 7.40323   1
   6  -2   5 105.245 8.25092   3
   6  -2   5 88.8583 7.10403   1
  -7   2  -5 86.3917 7.00379   1
   7  -2   5 87.6747 7.07843   1
   7  -2   5 85.8473 7.82151   3
  -8   2  -5 221.616 13.9663   1
   8  -2   5 222.980 15.2385   3
  -9   2  -5 377.175 21.5702   1
   9  -2   5 374.116 23.4046   3
 -10   2  -5 300.686 18.3583   1
  10  -2   5 309.796 20.5474   3
  10   1  -5 106.626 9.89365   3
   9   1  -5 50.9755 6.81494   3
   8   1  -5 307.522 18.6599   3
   7   1  -5 -1.8727 1.70892   3
   7   1  -5 -2.6859 1.76087   2
   6   1  -5 479.943 26.1489   2
   6   1  -5 486.287 26.1317   3
   5   1  -5 259.322 15.1125   2
  -5  -1   5 260.619 12.8244   1
  -5  -1   5 258.817 12.8284   1
   4   1  -5 1202.52 66.2825   2
  -4  -1   5 1441.02 64.7051   1
  -4  -1   5 1346.05 64.6998   1
   3   1  -5 470.410 24.9644   2
   3   1  -5 490.367 23.3708   1
  -3  -1   5 488.364 23.6093   1
  -3  -1   5 448.085 23.5972   1
   2   1  -5 11.1307 2.09941   2
  -2  -1   5 14.0344 2.00393   3
  -2  -1   5 12.0520 1.56346   1
  -2  -1   5 16.1628 1.80464   1
   1   1  -5 55.3087 4.54558   2
   1   1  -5 57.3358 3.91678   1
  -1  -1   5 62.0238 4.16003   1
  -1  -1   5 63.0764 3.99743   1
   0   1  -5 576.380 30.7740   1
   0   1  -5 686.620 31.5638   2
   0  -1   5 588.439 30.8498   1
   0  -1   5 617.098 30.8326   1
  -1   1  -5 1708.57 80.8580   1
  -1   1  -5 1601.73 81.1202   2
   1  -1   5 1630.35 80.7325   1
   1  -1   5 1671.41 80.9223   1
  -2   1  -5 1436.03 71.4818   1
  -2   1  -5 1477.53 71.6982   2
   2  -1   5 1425.37 71.2223   3
   2  -1   5 1481.22 71.5975   1
  -3   1  -5 784.536 39.6508   1
   3  -1   5 789.205 39.6361   1
   3  -1   5 785.020 39.5871   3
  -4   1  -5 248.482 13.7374   1
   4  -1   5 253.130 13.7495   1
   4  -1   5 224.567 13.7436   3
  -5   1  -5 487.553 25.9023   1
   5  -1   5 467.215 25.8024   1
   5  -1   5 515.567 26.5534   3
  -6   1  -5 153.923 10.3566   1
   6  -1   5 167.764 10.4550   1
   6  -1   5 181.150 11.4831   3
  -7   1  -5 96.6135 7.29628   1
   7  -1   5 90.2691 8.14196   3
   7  -1   5 104.390 7.36877   1
  -8   1  -5 3.92702 2.04068   1
   8  -1   5 1.69260 2.46197   3
  -9   1  -5 106.669 8.53178   1
   9  -1   5 119.363 10.3188   3
 -10   1  -5 87.8145 7.83914   1
  10  -1   5 109.239 10.2438   3
  11   0  -5 0.00013 3.17850   3
  10   0  -5 13.6406 4.14788   3
   9   0  -5 0.63341 2.39702   3
   8   0  -5 7.82179 3.11971   3
   7   0  -5 39.0857 5.17115   3
   6   0  -5 419.820 24.1770   2
   6   0  -5 428.666 24.2016   3
  -6   0   5 465.941 21.7868   1
  -6   0   5 457.444 21.7401   1
   5   0  -5 73.7723 5.88988   3
   5   0  -5 73.4364 6.01620   2
  -5   0   5 71.5006 4.03838   1
  -5   0   5 80.1111 4.16515   1
   4   0  -5 269.395 14.9784   3
   4   0  -5 272.713 15.4652   2
   4   0  -5 264.039 13.3190   1
  -4   0   5 281.126 13.8133   1
  -4   0   5 281.540 13.7963   1
   3   0  -5 87.6324 6.23009   2
   3   0  -5 88.3989 4.78184   1
  -3   0   5 87.3024 5.02430   1
  -3   0   5 84.7375 4.98686   1
  -3   0   5 92.0941 5.76805   3
   2   0  -5 244.371 12.6442   1
   2   0  -5 229.150 13.5145   2
  -2   0   5 255.504 12.8572   1
  -2   0   5 251.981 12.8096   1
  -2   0   5 250.923 12.9377   3
   1   0  -5 11.3262 1.94838   2
   1   0  -5 12.2220 1.62719   1
  -1   0   5 13.8032 1.72046   1
  -1   0   5 16.1242 1.43775   3
  -1   0   5 13.2422 1.80277   1
   0   0  -5 102.036 5.93186   1
   0   0  -5 91.7307 6.17277   2
   0   0   5 98.2574 6.03681   1
   0   0   5 99.9260 5.90710   1
  -1   0  -5 240.952 13.3815   2
  -1   0  -5 255.575 13.3174   1
   1   0   5 253.893 13.3819   1
   1   0   5 239.842 12.6133   3
   1   0   5 251.243 13.2156   1
  -2   0  -5 394.315 19.8521   2
  -2   0  -5 394.538 19.8735   1
   2   0   5 354.785 19.7013   1
   2   0   5 374.169 19.3691   3
  -3   0  -5 658.828 32.4396   1
   3   0   5 637.782 32.2218   3
   3   0   5 614.461 32.2716   1
  -4   0  -5 133.444 8.31450   1
   4   0   5 132.178 8.30613   1
   4   0   5 132.220 8.50948   3
  -5   0  -5 21.4415 3.13541   1
   5   0   5 25.2886 3.28895   1
   5   0   5 24.5418 3.75686   3
  -6   0  -5 41.5446 4.51800   1
   6   0   5 31.0662 4.03536   1
   6   0   5 43.1015 5.26204   3
  -7   0  -5 6.38905 2.27982   1
   7   0   5 5.98325 1.82311   4
   7   0   5 5.93615 2.08307   1
   7   0   5 6.98650 2.80301   3
  -8   0  -5 7.97396 2.47011   1
   8   0   5 16.1446 4.02788   3
   8   0   5 21.4021 3.12000   4
  -9   0  -5 9.92394 2.87792   1
   9   0   5 4.71575 3.32122   3
 -10   0  -5 -1.5589 1.74949   1
  10   0   5 -5.1189 2.33288   3
 -11   0  -5 20.7902 3.99152   1
  11   0   5 13.9998 5.01027   3
  11  -1  -5 73.7008 9.33847   3
  10  -1  -5 49.8878 7.26863   3
   9  -1  -5 50.8067 6.91476   3
   8  -1  -5 -0.6165 1.94648   3
  -8   1   5 -0.7691 0.52242   1
   7  -1  -5 17.3518 3.65753   3
  -7   1   5 17.3415 1.51552   1
   6  -1  -5 211.459 12.3993   3
  -6   1   5 191.087 9.96239   1
  -6   1   5 190.889 10.0142   1
   5  -1  -5 463.173 23.9135   3
   5  -1  -5 473.074 24.1682   2
  -5   1   5 432.623 22.1340   1
  -5   1   5 432.091 22.0421   1
   4  -1  -5 358.653 18.0502   1
   4  -1  -5 400.565 20.0556   2
   4  -1  -5 355.504 19.4360   3
  -4   1   5 372.515 18.4224   1
  -4   1   5 358.808 18.3351   1
   3  -1  -5 0.47720 1.03366   3
   3  -1  -5 1.55572 1.14884   2
   3  -1  -5 2.76165 0.70139   1
  -3   1   5 1.52401 1.08459   3
  -3   1   5 1.68785 0.75981   1
  -3   1   5 2.07125 0.79437   1
   2  -1  -5 -0.1514 0.70453   3
   2  -1  -5 -0.1200 0.63146   1
   2  -1  -5 0.91098 1.22925   2
  -2   1   5 0.36424 0.65299   3
  -2   1   5 -0.9505 0.61531   1
  -2   1   5 0.60913 0.67008   1
   1  -1  -5 154.852 9.15593   2
   1  -1  -5 159.195 8.70982   1
  -1   1   5 163.187 8.06244   3
  -1   1   5 175.879 8.89559   1
  -1   1   5 152.823 8.77205   1
   0  -1  -5 430.482 22.9308   2
   0  -1  -5 454.934 22.7689   1
   0   1   5 448.998 22.8473   1
   0   1   5 467.600 22.8390   1
  -1  -1  -5 3.02983 1.17493   1
  -1  -1  -5 3.83698 1.23168   2
   1   1   5 2.38121 1.07704   1
   1   1   5 4.23231 0.66975   3
   1   1   5 2.59078 1.17763   1
  -2  -1  -5 16.2992 2.22796   1
  -2  -1  -5 16.8399 2.15716   2
   2   1   5 14.5355 1.76078   3
   2   1   5 11.4627 1.94526   1
  -3  -1  -5 35.7712 3.12221   3
  -3  -1  -5 35.0138 3.35177   1
  -3  -1  -5 45.9952 3.32580   2
   3   1   5 35.2249 3.37004   1
   3   1   5 37.0545 3.27307   3
  -4  -1  -5 815.271 40.1672   1
   4   1   5 756.276 40.0370   1
   4   1   5 820.376 40.3593   3
  -5  -1  -5 398.353 22.0190   1
   5   1   5 403.715 22.0008   1
   5   1   5 449.808 22.7403   3
  -6  -1  -5 251.598 14.9177   1
   6   1   5 301.434 16.1770   3
   6   1   5 247.537 14.7647   1
  -7  -1  -5 51.6476 4.46569   1
   7   1   5 49.4849 5.92745   3
   7   1   5 30.1630 3.97833   1
   7   1   5 34.6707 4.02032   4
  -8  -1  -5 32.4591 4.22871   1
   8   1   5 32.7977 4.10690   4
   8   1   5 40.0677 5.70599   3
  -9  -1  -5 9.25295 2.59422   1
   9   1   5 2.44340 2.80136   3
 -10  -1  -5 75.5057 6.59532   1
  10   1   5 62.6161 8.51358   3
 -11  -1  -5 73.5065 6.64082   1
  11   1   5 64.3898 8.96161   3
  11  -2  -5 217.432 16.2078   3
  10  -2  -5 70.0079 8.77711   3
 -10   2   5 77.6562 4.66322   1
   9  -2  -5 321.038 19.7997   3
  -9   2   5 304.998 15.8868   1
   8  -2  -5 116.261 9.41192   3
   7  -2  -5 269.527 16.8465   3
  -7   2   5 285.806 14.3859   1
   6  -2  -5 157.102 10.5189   3
   6  -2  -5 161.297 8.26684   1
  -6   2   5 155.986 8.46813   1
  -6   2   5 157.747 8.48101   1
   5  -2  -5 515.383 28.1739   3
   5  -2  -5 546.865 26.3389   1
  -5   2   5 534.230 26.5767   1
  -5   2   5 546.066 26.6586   1
   4  -2  -5 2190.26 106.111   2
   4  -2  -5 2077.32 105.675   3
  -4   2   5 2248.26 104.734   1
  -4   2   5 2135.32 105.015   1
   3  -2  -5 2221.64 111.869   1
   3  -2  -5 2312.09 113.130   2
   3  -2  -5 2401.71 112.661   3
  -3   2   5 2253.02 112.081   1
  -3   2   5 2292.33 112.442   3
  -3   2   5 2424.41 112.191   1
   2  -2  -5 1214.24 59.2123   2
   2  -2  -5 1155.04 58.3029   1
   2  -2  -5 1169.03 58.3453   3
  -2   2   5 1254.13 58.5229   1
  -2   2   5 1198.31 58.4747   1
   1  -2  -5 120.278 6.27178   3
   1  -2  -5 120.934 6.93249   1
   1  -2  -5 121.533 7.29066   2
  -1   2   5 145.222 7.21155   1
  -1   2   5 115.315 6.95647   1
   0  -2  -5 0.14427 0.82633   1
   0  -2  -5 -0.2091 0.78952   2
   0   2   5 0.06860 0.88064   1
   0   2   5 0.10672 0.82049   1
  -1  -2  -5 536.194 27.1908   2
  -1  -2  -5 546.274 27.3389   1
  -1  -2  -5 527.621 26.4534   3
   1   2   5 565.291 27.4671   1
   1   2   5 564.951 27.1961   2
   1   2   5 521.332 27.3618   1
  -2  -2  -5 586.567 29.4426   2
  -2  -2  -5 592.189 29.3063   3
  -2  -2  -5 560.848 29.7403   1
   2   2   5 642.680 29.9795   1
   2   2   5 578.916 29.2494   3
  -3  -2  -5 888.384 42.1509   2
  -3  -2  -5 804.090 42.2959   3
  -3  -2  -5 872.816 42.6519   1
   3   2   5 879.037 42.4353   3
   3   2   5 825.703 42.5784   1
  -4  -2  -5 617.505 29.8495   1
   4   2   5 576.252 29.9064   3
   4   2   5 555.004 29.6870   1
  -5  -2  -5 235.937 13.5284   1
   5   2   5 243.965 14.0739   3
   5   2   5 245.313 13.5797   1
  -6  -2  -5 819.471 41.3054   1
   6   2   5 803.428 42.1386   3
   6   2   5 787.020 41.1723   1
   6   2   5 849.898 41.5258   4
  -7  -2  -5 58.3717 5.23380   1
   7   2   5 76.6525 5.52296   1
   7   2   5 65.0965 6.41920   3
   7   2   5 67.6338 5.45646   4
  -8  -2  -5 79.4306 6.42632   1
   8   2   5 85.3877 6.52699   4
   8   2   5 89.0188 7.87513   3
  -9  -2  -5 6.08708 2.29040   1
   9   2   5 5.72059 3.24781   3
 -10  -2  -5 81.7559 7.11621   1
  10   2   5 92.0189 9.22404   3
 -11  -2  -5 141.791 9.99720   1
  11   2   5 143.929 12.4910   3
  11  -3  -5 203.052 14.9560   3
 -11   3   5 171.399 10.4665   1
  10  -3  -5 220.418 15.5259   3
 -10   3   5 201.430 11.4100   1
   9  -3  -5 242.025 16.3243   3
  -9   3   5 235.142 12.8019   1
   8  -3  -5 3.67013 2.62763   3
   7  -3  -5 218.760 13.9774   3
  -7   3   5 215.199 11.6249   1
   6  -3  -5 159.857 10.4974   3
  -6   3   5 157.759 8.51213   1
  -6   3   5 144.603 8.39931   1
   5  -3  -5 1229.06 61.3220   3
   5  -3  -5 1209.34 59.4825   1
  -5   3   5 1254.73 59.7429   1
  -5   3   5 1195.47 59.6438   1
   4  -3  -5 455.290 24.3090   3
   4  -3  -5 455.085 23.0785   1
  -4   3   5 481.878 23.3243   1
  -4   3   5 459.150 23.2466   1
   3  -3  -5 566.546 28.6698   1
   3  -3  -5 590.775 29.4596   3
  -3   3   5 561.946 28.8153   1
  -3   3   5 598.815 28.9220   1
   2  -3  -5 714.343 35.5801   3
   2  -3  -5 689.619 35.3678   1
   2  -3  -5 724.175 36.1108   2
  -2   3   5 689.475 35.4999   1
  -2   3   5 772.625 35.6524   1
   1  -3  -5 1401.27 71.6878   1
   1  -3  -5 1421.39 72.0205   2
   1  -3  -5 1695.95 71.7793   3
  -1   3   5 1429.20 71.8213   1
  -1   3   5 1408.05 71.8073   1
   0  -3  -5 581.528 29.1452   1
   0  -3  -5 583.225 29.1304   2
   0   3   5 570.739 29.2247   1
   0   3   5 549.887 29.0381   2
   0   3   5 631.888 29.3243   1
  -1  -3  -5 36.6842 2.73594   2
  -1  -3  -5 38.2015 2.59069   3
  -1  -3  -5 37.0598 3.09419   1
   1   3   5 39.7522 2.77954   2
   1   3   5 33.6485 3.05735   1
  -2  -3  -5 43.5749 3.20804   3
  -2  -3  -5 40.5936 3.41583   1
  -2  -3  -5 48.5546 3.02138   2
   2   3   5 39.1058 3.31264   1
  -3  -3  -5 1575.22 71.2365   1
  -3  -3  -5 1406.91 71.1257   3
  -3  -3  -5 1441.41 70.4000   2
   3   3   5 1378.75 71.0906   1
  -4  -3  -5 1138.57 57.6775   1
  -4  -3  -5 1123.72 56.8686   2
   4   3   5 1176.62 57.9246   3
   4   3   5 1231.50 57.8290   1
  -5  -3  -5 788.017 40.5601   1
   5   3   5 798.562 40.5209   1
   5   3   5 828.547 41.1713   3
  -6  -3  -5 174.520 11.1904   1
   6   3   5 216.573 11.8796   4
   6   3   5 191.359 11.2791   1
   6   3   5 191.034 12.1478   3
  -7  -3  -5 -0.5657 1.33998   1
   7   3   5 -0.5552 2.21813   3
   7   3   5 -0.7102 1.56523   4
   7   3   5 1.33958 1.38971   1
  -8  -3  -5 292.339 17.1247   1
   8   3   5 331.982 18.9728   3
   8   3   5 300.297 17.5434   4
  -9  -3  -5 108.234 7.84081   1
   9   3   5 114.280 9.63163   3
 -10  -3  -5 144.317 9.79887   1
  10   3   5 149.018 11.9451   3
 -11  -3  -5 2.87769 2.09732   1
  11   3   5 3.22924 3.32544   3
  10  -4  -5 78.1385 9.82912   3
 -10   4   5 91.1327 6.20030   1
   9  -4  -5 40.3202 6.59205   3
  -9   4   5 44.3349 4.11208   1
   8  -4  -5 66.0398 7.86535   3
   7  -4  -5 0.48697 1.98746   3
  -7   4   5 -1.3286 1.06273   1
   6  -4  -5 4.17188 2.32597   3
  -6   4   5 3.09645 1.43876   1
   5  -4  -5 294.688 15.8606   1
   5  -4  -5 293.566 17.4811   3
  -5   4   5 305.957 16.0630   1
  -5   4   5 335.785 16.1714   1
   4  -4  -5 399.805 21.3438   3
   4  -4  -5 401.499 20.0848   1
  -4   4   5 404.031 20.2592   1
  -4   4   5 376.283 20.1276   1
   3  -4  -5 358.993 19.4444   3
   3  -4  -5 371.230 18.7875   1
  -3   4   5 352.919 18.8506   1
  -3   4   5 391.825 19.0077   1
   2  -4  -5 102.126 6.44181   3
   2  -4  -5 109.542 6.22148   1
  -2   4   5 106.189 6.29431   1
  -2   4   5 106.660 6.34023   1
   1  -4  -5 74.9844 5.11290   1
  -1   4   5 88.4077 5.38406   1
  -1   4   5 92.9474 5.42514   1
   0  -4  -5 554.227 27.5593   2
   0  -4  -5 532.886 27.7169   1
   0   4   5 586.885 27.6077   2
   0   4   5 530.066 27.7818   1
  -1  -4  -5 188.052 10.3099   1
  -1  -4  -5 176.019 9.76412   2
   1   4   5 194.463 9.77757   2
   1   4   5 188.203 10.3805   1
  -2  -4  -5 10.2290 1.24175   2
  -2  -4  -5 11.9895 1.92297   1
  -2  -4  -5 13.4988 1.97484   3
   2   4   5 14.7939 2.06881   1
  -3  -4  -5 4.84140 0.78858   2
  -3  -4  -5 1.41191 1.22868   1
   3   4   5 5.16533 1.44571   1
  -4  -4  -5 70.2361 3.84635   2
  -4  -4  -5 61.4641 4.83240   1
   4   4   5 67.9466 4.87774   1
  -5  -4  -5 793.209 41.7302   1
  -5  -4  -5 783.432 40.6014   2
   5   4   5 810.799 41.7056   1
   5   4   5 948.934 42.7120   4
   5   4   5 840.070 42.4816   3
  -6  -4  -5 10.5638 2.24861   1
   6   4   5 5.84994 1.77695   1
   6   4   5 7.57947 2.64460   3
   6   4   5 8.47336 2.56336   4
  -7  -4  -5 4.21816 1.91620   1
   7   4   5 6.39468 2.32219   4
   7   4   5 4.86558 1.75113   1
   7   4   5 5.51416 2.67692   3
  -8  -4  -5 1.85054 1.71127   1
   8   4   5 1.39867 2.44848   3
  -9  -4  -5 18.2280 3.23228   1
   9   4   5 12.1810 3.73593   3
 -10  -4  -5 37.5144 4.59071   1
  10   4   5 45.5092 6.92270   3
 -11  -4  -5 45.0879 5.04206   1
  11   4   5 31.0283 6.46353   3
  10  -5  -5 64.8512 9.07665   3
 -10   5   5 83.1030 6.15138   1
   9  -5  -5 0.01015 2.54789   3
   8  -5  -5 -1.7738 2.23985   3
  -8   5   5 0.26874 1.41786   1
   7  -5  -5 1.47564 2.27389   3
  -7   5   5 6.10534 1.86181   1
   6  -5  -5 158.035 10.8925   3
  -6   5   5 156.246 9.24482   1
   5  -5  -5 19.7028 2.41780   1
   5  -5  -5 19.8446 3.69760   3
  -5   5   5 23.6544 2.62959   1
  -5   5   5 19.4717 2.56272   1
   4  -5  -5 19.1422 2.31596   1
   4  -5  -5 18.1541 3.21679   3
  -4   5   5 18.7210 2.41880   1
  -4   5   5 21.1371 2.54987   1
   3  -5  -5 0.15641 0.90595   1
   3  -5  -5 -1.3683 1.13104   3
  -3   5   5 0.53472 0.92662   1
  -3   5   5 1.39629 1.02356   1
   2  -5  -5 424.560 22.0971   1
  -2   5   5 440.863 22.2520   1
  -2   5   5 436.652 22.7189   1
   1  -5  -5 933.110 44.7273   1
  -1   5   5 874.935 44.7686   1
   0  -5  -5 95.0085 5.61142   1
   0   5   5 84.6238 5.21192   2
   0   5   5 81.2219 5.53345   1
  -1  -5  -5 66.9715 4.58193   1
   1   5   5 63.9006 3.91523   2
   1   5   5 68.2841 4.68484   1
  -2  -5  -5 2.26552 1.15282   1
   2   5   5 -0.1179 0.92296   1
  -3  -5  -5 686.940 35.3363   1
   3   5   5 717.933 35.4035   1
  -4  -5  -5 465.547 24.2131   1
   4   5   5 478.043 24.2605   1
   4   5   5 459.589 24.8749   4
  -5  -5  -5 852.076 46.3167   1
   5   5   5 977.752 46.5493   1
   5   5   5 961.843 47.3882   4
  -6  -5  -5 37.9209 4.03504   1
   6   5   5 44.8954 5.32393   4
   6   5   5 33.1050 3.66583   1
  -7  -5  -5 846.243 40.3536   1
   7   5   5 735.673 40.9910   4
  -8  -5  -5 26.9498 3.58967   1
  -9  -5  -5 15.1210 2.92943   1
 -10  -5  -5 15.9684 2.98175   1
  10  -6  -5 163.575 13.9334   3
 -10   6   5 171.818 10.7588   1
   9  -6  -5 121.630 10.9209   3
   8  -6  -5 16.8738 4.44813   3
  -8   6   5 14.0929 2.74990   1
   7  -6  -5 2.06617 2.43400   3
  -7   6   5 -0.0425 1.48224   1
   6  -6  -5 1.36141 2.01169   3
  -6   6   5 -0.1906 1.29539   1
   5  -6  -5 453.105 25.0732   3
   5  -6  -5 466.021 23.5171   1
  -5   6   5 444.213 23.6235   1
   4  -6  -5 814.889 41.0785   3
   4  -6  -5 875.244 39.9398   1
  -4   6   5 701.455 39.7360   1
   3  -6  -5 386.040 20.7137   1
  -3   6   5 415.129 20.9293   1
   2  -6  -5 886.343 43.6612   1
  -2   6   5 869.284 43.7251   1
   1  -6  -5 983.471 49.6425   1
  -1   6   5 1023.75 49.7779   1
   0  -6  -5 788.930 39.3766   1
   0   6   5 784.090 39.4558   1
   0   6   5 792.431 38.9993   2
  -1  -6  -5 113.101 7.15813   1
   1   6   5 112.503 6.44164   2
   1   6   5 138.008 7.49723   1
  -2  -6  -5 5.58154 1.66274   1
   2   6   5 -1.0784 0.94586   1
  -3  -6  -5 105.552 6.89298   1
   3   6   5 113.435 7.59273   4
   3   6   5 104.524 6.81030   1
  -4  -6  -5 1577.75 76.3439   1
   4   6   5 1587.58 76.2953   1
   4   6   5 1488.74 77.0816   4
  -5  -6  -5 864.308 44.9346   1
   5   6   5 911.317 44.9447   1
   5   6   5 917.785 46.0881   4
  -6  -6  -5 286.140 15.8691   1
   6   6   5 295.144 15.7350   1
   6   6   5 278.780 16.8510   4
  -7  -6  -5 521.898 27.2916   1
  -8  -6  -5 333.252 18.3623   1
  -9  -6  -5 405.958 22.0090   1
 -10  -6  -5 72.7002 6.16460   1
   9  -7  -5 67.7706 8.99546   3
   8  -7  -5 111.324 10.2536   3
  -8   7   5 122.777 8.41129   1
   7  -7  -5 107.746 9.39853   3
  -7   7   5 102.427 7.44874   1
   6  -7  -5 106.933 8.97642   3
  -6   7   5 122.337 7.87007   1
   5  -7  -5 25.8879 3.17537   1
   5  -7  -5 20.1140 3.84589   3
  -5   7   5 25.3034 3.27186   1
   4  -7  -5 -0.1097 1.76265   3
   4  -7  -5 2.90875 1.49618   1
  -4   7   5 3.97359 1.59314   1
   3  -7  -5 415.353 21.6723   1
  -3   7   5 411.728 21.7385   1
   2  -7  -5 1681.47 80.1314   1
  -2   7   5 1584.56 80.1815   1
   1  -7  -5 519.984 28.4859   1
  -1   7   5 602.444 28.7685   1
   0  -7  -5 258.308 14.5234   1
   0   7   5 278.297 14.7165   1
  -1  -7  -5 136.171 8.09574   1
   1   7   5 133.975 7.21038   2
   1   7   5 116.912 7.88564   1
   1   7   5 141.653 8.69334   4
  -2  -7  -5 751.649 37.1767   1
   2   7   5 726.832 37.7778   4
   2   7   5 759.939 37.1791   1
   2   7   5 711.949 35.4757   2
  -3  -7  -5 209.061 12.2993   1
   3   7   5 227.366 13.2900   4
   3   7   5 223.644 12.3952   1
  -4  -7  -5 823.243 40.8176   1
   4   7   5 715.292 41.4991   4
   4   7   5 885.000 40.8418   1
  -5  -7  -5 13.2740 2.53415   1
   5   7   5 14.4579 2.44748   1
   5   7   5 15.8108 3.34021   4
  -6  -7  -5 824.953 41.7720   1
  -7  -7  -5 267.943 15.1409   1
  -8  -7  -5 157.523 9.97724   1
  -9  -7  -5 47.2846 5.03645   1
 -10  -7  -5 96.8530 7.31734   1
   9  -8  -5 7.62199 4.21526   3
   8  -8  -5 40.3845 6.85315   3
  -8   8   5 39.2261 4.83622   1
   7  -8  -5 -3.1548 1.96083   3
  -7   8   5 -3.0221 1.68184   1
   6  -8  -5 279.056 17.8943   3
  -6   8   5 285.668 16.1795   1
   5  -8  -5 58.1107 5.96794   3
   5  -8  -5 46.5035 4.76312   1
  -5   8   5 46.6438 4.91858   1
   4  -8  -5 70.3197 5.48152   1
  -4   8   5 69.3163 5.63284   1
  -4   8   5 72.2232 4.88929   4
   3  -8  -5 -2.0171 1.27345   1
  -3   8   5 1.43072 1.22675   4
  -3   8   5 0.48694 1.33016   1
   2  -8  -5 106.105 6.73645   1
  -2   8   5 91.2181 6.28140   4
  -2   8   5 88.5413 6.45699   1
   1  -8  -5 145.257 9.59837   1
  -1   8   5 170.075 9.90007   1
  -1   8   5 174.362 10.0466   4
   0  -8  -5 339.675 17.8593   1
   0   8   5 322.128 17.7456   1
   0   8   5 329.462 18.1830   4
  -1  -8  -5 0.51521 1.45086   1
   1   8   5 1.18707 1.39565   1
   1   8   5 1.14876 1.88690   4
   1   8   5 0.98680 0.84849   2
  -2  -8  -5 123.785 7.27093   1
   2   8   5 100.277 7.49741   4
   2   8   5 99.1341 5.49217   2
   2   8   5 110.985 7.07074   1
  -3  -8  -5 58.3214 4.76840   1
   3   8   5 61.8734 5.57799   4
   3   8   5 50.5421 4.51467   1
  -4  -8  -5 134.942 9.02227   1
   4   8   5 150.773 10.2611   4
   4   8   5 157.558 9.09163   1
  -5  -8  -5 12.1291 2.52031   1
   5   8   5 13.7420 2.40182   1
  -6  -8  -5 37.1391 4.13969   1
  -7  -8  -5 5.25667 2.13395   1
  -8  -8  -5 105.141 7.58599   1
  -9  -8  -5 16.0181 3.08173   1
   8  -9  -5 41.3140 7.29529   3
   7  -9  -5 6.34119 3.57715   3
  -7   9   5 4.16930 2.63016   1
   6  -9  -5 6.01152 3.17514   3
  -6   9   5 6.62020 2.78074   1
   5  -9  -5 5.29480 2.99433   3
   5  -9  -5 1.71511 1.99825   1
  -5   9   5 2.87123 2.14500   1
   4  -9  -5 27.6963 3.86281   1
  -4   9   5 34.9426 4.31513   1
   3  -9  -5 283.125 16.3295   1
  -3   9   5 295.559 15.8865   4
  -3   9   5 294.577 16.5362   1
   2  -9  -5 310.025 17.2676   1
  -2   9   5 293.553 16.9762   4
  -2   9   5 335.660 17.5137   1
   1  -9  -5 95.8013 6.95517   1
  -1   9   5 93.1366 6.93341   4
  -1   9   5 105.859 7.06916   1
   0  -9  -5 142.165 8.53317   1
   0   9   5 122.792 8.53898   4
   0   9   5 121.133 8.21303   1
  -1  -9  -5 14.6807 2.75409   1
   1   9   5 27.3274 3.96587   4
   1   9   5 24.2517 3.15464   1
  -2  -9  -5 -2.5862 1.32461   1
   2   9   5 -0.3597 1.78173   4
   2   9   5 0.01932 1.21142   1
  -3  -9  -5 2.66113 1.73356   1
   3   9   5 2.10889 1.48199   1
  -4  -9  -5 18.0271 3.00844   1
   4   9   5 19.3427 2.85201   1
  -5  -9  -5 237.104 13.6171   1
  -6  -9  -5 271.843 15.4141   1
  -7  -9  -5 127.430 8.69724   1
  -8  -9  -5 10.8208 2.65234   1
  -9  -9  -5 5.35218 2.28968   1
   7 -10  -5 240.665 17.2774   3
  -7  10   5 241.464 14.9998   1
   6 -10  -5 85.8707 8.82871   3
  -6  10   5 92.2596 7.50758   1
   5 -10  -5 74.6674 7.93037   3
  -5  10   5 80.1319 6.83450   1
   4 -10  -5 39.5205 4.66792   1
  -4  10   5 35.4897 4.61457   1
   3 -10  -5 358.400 20.3095   1
  -3  10   5 378.247 20.5646   1
   2 -10  -5 466.952 24.7267   1
  -2  10   5 451.498 24.7091   1
   1 -10  -5 1310.83 66.8330   1
  -1  10   5 1368.14 66.9987   1
   0 -10  -5 527.836 28.5237   1
   0  10   5 556.813 28.6311   1
  -1 -10  -5 42.0145 4.65388   1
   1  10   5 48.6247 4.93343   1
  -2 -10  -5 122.150 8.45123   1
   2  10   5 124.599 8.36648   1
  -3 -10  -5 143.022 9.46916   1
   3  10   5 150.886 9.43437   1
  -4 -10  -5 227.096 13.3971   1
  -5 -10  -5 18.0029 3.13325   1
  -6 -10  -5 55.7870 5.18322   1
  -7 -10  -5 255.447 14.8510   1
  -8 -10  -5 413.557 22.5043   1
   6 -11  -5 152.989 12.9803   3
  -6  11   5 164.391 11.3516   1
   5 -11  -5 122.873 10.7865   3
  -5  11   5 125.860 9.37038   1
   4 -11  -5 108.523 8.16796   1
  -4  11   5 101.374 8.08740   1
   3 -11  -5 42.4280 4.90960   1
  -3  11   5 32.2780 4.72057   1
   2 -11  -5 204.705 12.5879   1
  -2  11   5 192.161 12.4710   1
   1 -11  -5 648.981 33.1888   1
  -1  11   5 608.904 33.0703   1
   0 -11  -5 409.151 22.9123   1
   0  11   5 428.150 22.9926   1
  -1 -11  -5 440.422 23.5756   1
   1  11   5 422.777 23.3931   1
  -2 -11  -5 103.846 7.52913   1
   2  11   5 90.5702 7.14930   1
  -3 -11  -5 117.337 8.44082   1
  -4 -11  -5 163.134 10.6295   1
  -5 -11  -5 185.474 11.6493   1
  -6 -11  -5 146.179 9.76275   1
  -7 -11  -5 59.1351 5.97119   1
   5 -12  -5 12.4129 4.36514   3
  -5  12   5 8.15438 3.22517   1
   4 -12  -5 4.03069 2.80813   1
  -4  12   5 5.39821 2.75331   1
   3 -12  -5 6.16975 2.92481   1
  -3  12   5 7.04539 2.61842   1
   2 -12  -5 111.888 8.93017   1
  -2  12   5 126.473 9.08038   1
   1 -12  -5 30.9169 4.58317   1
  -1  12   5 32.1800 4.65129   1
   0 -12  -5 42.7757 5.12758   1
   0  12   5 39.8754 5.04159   1
  -1 -12  -5 59.0707 6.31076   1
   1  12   5 71.8269 6.17157   1
  -2 -12  -5 56.7386 6.03758   1
  -3 -12  -5 44.8073 5.33402   1
  -4 -12  -5 50.3859 5.59700   1
  -5 -12  -5 -3.4344 1.73218   1
  -6 -12  -5 34.2682 4.66252   1
   3 -13  -5 -0.7155 2.52510   1
  -3  13   5 -0.5996 2.39563   1
   2 -13  -5 36.1750 5.22597   1
  -2  13   5 38.3012 5.32657   1
   1 -13  -5 84.6303 7.77359   1
  -1  13   5 89.4147 7.52942   1
   0 -13  -5 63.9892 6.81744   1
  -1 -13  -5 -5.8333 1.94155   1
  -2 -13  -5 20.7833 4.11770   1
  -3 -13  -5 19.3115 3.98876   1
  -4 -13  -5 19.2891 3.94747   1
   3   9  -6 107.569 9.60309   2
  -3  -9   6 120.978 8.59448   1
   2   9  -6 125.857 10.7041   2
  -2  -9   6 141.603 9.81553   1
   1   9  -6 24.3289 5.18345   2
  -1  -9   6 12.9784 3.46405   1
   0   9  -6 15.6273 3.83933   2
   0  -9   6 12.7934 3.57618   1
  -1   9  -6 7.07878 3.24721   2
   1  -9   6 5.10352 2.90706   1
  -2   9  -6 -4.6432 2.32018   2
   2  -9   6 -3.1665 2.31506   1
   5   8  -6 42.4849 6.11451   2
  -5  -8   6 34.8577 3.95700   1
   4   8  -6 24.8093 4.88717   2
  -4  -8   6 18.7413 3.17723   1
   3   8  -6 2.22344 2.70660   2
  -3  -8   6 -1.2130 1.64905   1
   2   8  -6 16.2020 4.27922   2
  -2  -8   6 23.0488 3.76303   1
   1   8  -6 169.024 12.0164   2
  -1  -8   6 159.408 11.0201   1
   0   8  -6 65.7993 7.52439   2
   0  -8   6 59.7668 6.42351   1
  -1   8  -6 20.9650 4.55262   2
   1  -8   6 18.4486 3.91606   1
  -2   8  -6 -1.7284 1.50207   2
   2  -8   6 1.43517 2.58455   1
  -3   8  -6 8.31280 3.47257   2
   3  -8   6 0.87302 2.64865   1
  -4   8  -6 57.8138 7.44857   2
   4  -8   6 61.4329 7.24117   1
   6   7  -6 13.8753 3.85194   2
  -6  -7   6 19.3115 2.40233   1
   5   7  -6 77.3680 7.64763   2
  -5  -7   6 81.7528 5.81705   1
   4   7  -6 245.007 15.9808   2
  -4  -7   6 254.057 14.2665   1
   3   7  -6 408.195 23.3561   2
  -3  -7   6 397.971 21.7148   1
   2   7  -6 295.694 18.2330   2
  -2  -7   6 296.971 16.8432   1
   1   7  -6 51.8352 6.36280   2
  -1  -7   6 40.9976 4.83057   1
   0   7  -6 61.0053 7.12496   2
   0  -7   6 79.5611 6.56217   1
  -1   7  -6 340.526 19.7192   2
   1  -7   6 308.325 18.6794   1
  -2   7  -6 157.641 11.4417   2
   2  -7   6 155.198 10.9406   1
  -3   7  -6 0.16326 2.24004   1
  -3   7  -6 -0.2239 2.47098   2
   3  -7   6 2.85343 2.59523   1
  -4   7  -6 55.4473 6.98293   2
  -4   7  -6 57.6200 6.61137   1
   4  -7   6 62.6766 6.95802   1
   4  -7   6 47.4736 6.87085   3
  -5   7  -6 167.875 11.7298   1
   5  -7   6 142.859 12.2514   3
   5  -7   6 170.586 12.1339   1
  -6   7  -6 304.515 19.6648   1
   6  -7   6 339.778 20.1566   1
   6  -7   6 320.866 21.2860   3
   7   6  -6 38.9630 5.78889   2
   6   6  -6 93.6911 8.02912   2
  -6  -6   6 75.6912 5.14718   1
   5   6  -6 2.15085 2.57959   2
  -5  -6   6 4.68918 1.55625   1
   4   6  -6 14.9700 3.61818   2
  -4  -6   6 9.66169 2.16299   1
   3   6  -6 17.4365 3.58204   2
  -3  -6   6 15.8165 2.69261   1
   2   6  -6 1023.51 53.2148   2
  -2  -6   6 1036.41 51.7986   1
   1   6  -6 473.170 26.3445   2
  -1  -6   6 467.804 25.1353   1
   0   6  -6 257.176 15.4956   2
   0  -6   6 233.911 14.4131   1
  -1   6  -6 5.49222 2.45074   2
   1  -6   6 1.92987 2.01321   1
  -2   6  -6 0.09364 2.09432   2
  -2   6  -6 2.09351 1.88178   1
   2  -6   6 1.99732 2.34527   1
  -3   6  -6 73.2051 6.81612   1
  -3   6  -6 96.3426 7.96137   2
   3  -6   6 85.4018 7.50489   1
  -4   6  -6 113.646 8.67071   1
  -4   6  -6 102.765 8.75201   2
   4  -6   6 127.070 9.29778   1
   4  -6   6 95.3655 8.91410   3
  -5   6  -6 36.0383 5.20462   1
   5  -6   6 34.6080 6.05766   3
   5  -6   6 33.8008 5.27187   1
  -6   6  -6 94.9033 7.99805   1
   6  -6   6 64.8540 7.47529   1
   6  -6   6 73.1476 8.92807   3
  -7   6  -6 325.860 20.4371   1
   7  -6   6 353.379 22.1004   3
   7  -6   6 331.403 20.5562   1
   8   5  -6 76.1125 7.55870   2
   7   5  -6 8.04811 2.86261   2
   6   5  -6 3.17612 2.69353   2
  -6  -5   6 2.77692 1.00099   1
   5   5  -6 -2.4436 1.88534   2
  -5  -5   6 0.03805 1.09583   1
   4   5  -6 1.80237 1.92090   2
  -4  -5   6 0.72825 1.38532   1
   3   5  -6 107.023 8.33442   2
  -3  -5   6 98.8445 6.76972   1
   2   5  -6 98.0570 7.48987   2
  -2  -5   6 83.9529 6.33331   1
   1   5  -6 0.87606 2.25462   2
  -1  -5   6 2.06444 1.73112   1
   0   5  -6 440.647 24.7034   2
   0   5  -6 435.670 23.6404   1
   0  -5   6 461.504 23.9809   1
  -1   5  -6 233.458 13.8954   2
  -1   5  -6 220.088 13.0563   1
   1  -5   6 204.260 13.0639   1
  -2   5  -6 13.8014 3.25264   2
  -2   5  -6 7.65204 2.52626   1
   2  -5   6 10.1492 2.91030   1
  -3   5  -6 13.8971 3.50089   2
  -3   5  -6 20.8099 3.54207   1
   3  -5   6 15.7362 3.45356   1
  -4   5  -6 14.6654 3.31693   1
   4  -5   6 16.8023 4.01170   3
   4  -5   6 20.2051 3.84444   1
  -5   5  -6 63.8603 6.69937   1
   5  -5   6 48.5934 5.89609   1
   5  -5   6 58.5221 7.32661   3
  -6   5  -6 60.4106 7.06672   1
   6  -5   6 68.7859 8.36807   3
   6  -5   6 70.9210 7.43198   1
  -7   5  -6 68.5368 7.24141   1
   7  -5   6 58.1007 8.03356   3
   7  -5   6 47.7270 6.31653   1
  -8   5  -6 -3.9366 1.53445   1
   8  -5   6 -3.0603 3.09189   3
   8   4  -6 86.0074 8.01510   2
   7   4  -6 148.787 10.7493   2
   6   4  -6 58.5323 6.76756   2
  -6  -4   6 65.0493 3.79287   1
   5   4  -6 17.1443 3.77648   2
  -5  -4   6 19.3526 2.09962   1
   4   4  -6 46.0612 5.68049   2
  -4  -4   6 55.0199 4.00767   1
   3   4  -6 498.124 25.9856   2
  -3  -4   6 450.261 24.1716   1
   2   4  -6 111.313 8.20523   2
  -2  -4   6 101.226 6.80898   1
   1   4  -6 252.131 13.7580   1
   1   4  -6 241.154 14.9381   2
  -1  -4   6 248.373 13.9354   1
   0   4  -6 66.5351 5.04926   1
   0   4  -6 58.7550 5.55155   2
   0  -4   6 70.4184 5.38182   1
  -1   4  -6 126.090 8.95492   2
  -1   4  -6 132.975 8.46174   1
   1  -4   6 127.520 8.59317   1
  -2   4  -6 875.737 43.0721   1
  -2   4  -6 820.401 43.4132   2
   2  -4   6 828.115 43.0558   1
  -3   4  -6 299.984 17.1170   2
  -3   4  -6 284.067 16.7161   1
   3  -4   6 291.032 16.8802   1
  -4   4  -6 23.5094 3.77334   1
   4  -4   6 26.5223 4.26186   3
   4  -4   6 23.9241 3.94752   1
  -5   4  -6 0.53889 1.88559   1
   5  -4   6 0.84093 2.27516   3
   5  -4   6 2.92066 2.30751   1
  -6   4  -6 415.064 22.6884   1
   6  -4   6 386.298 22.4670   1
   6  -4   6 387.746 23.3295   3
  -7   4  -6 356.727 21.7548   1
   7  -4   6 381.170 21.9600   1
   7  -4   6 395.714 23.3056   3
  -8   4  -6 148.952 11.1093   1
   8  -4   6 145.371 12.4341   3
  -9   4  -6 16.1521 4.08943   1
   9  -4   6 13.7456 5.35621   3
   8   3  -6 101.244 8.69675   2
   7   3  -6 302.893 18.2607   2
   6   3  -6 251.631 15.4122   2
  -6  -3   6 248.242 12.3203   1
   5   3  -6 81.9977 6.66530   2
  -5  -3   6 59.7384 3.99092   1
   4   3  -6 355.643 19.9420   2
  -4  -3   6 347.958 18.0385   1
   3   3  -6 508.495 26.5209   2
  -3  -3   6 472.752 24.8206   1
   2   3  -6 223.119 13.5382   2
   2   3  -6 227.762 12.2232   1
  -2  -3   6 213.988 12.3175   1
  -2  -3   6 231.857 12.1177   1
   1   3  -6 945.904 47.4101   1
   1   3  -6 953.885 48.6816   2
  -1  -3   6 994.295 47.3629   1
  -1  -3   6 921.264 47.5266   1
   0   3  -6 1076.40 56.1497   1
   0   3  -6 1211.94 57.2854   2
   0  -3   6 1114.14 56.3155   1
  -1   3  -6 1011.47 53.2919   2
  -1   3  -6 1083.43 52.7421   1
   1  -3   6 1067.41 52.8222   1
  -2   3  -6 451.523 23.4754   1
  -2   3  -6 439.655 23.9200   2
   2  -3   6 431.457 23.5467   1
  -3   3  -6 47.3684 5.17510   2
  -3   3  -6 34.8069 4.21692   1
   3  -3   6 40.4342 4.20708   3
   3  -3   6 31.3676 4.20116   1
  -4   3  -6 210.489 12.1245   1
   4  -3   6 175.195 11.8457   1
   4  -3   6 193.872 12.2514   3
  -5   3  -6 191.245 12.5774   1
   5  -3   6 200.177 13.1900   3
   5  -3   6 221.040 13.0083   1
  -6   3  -6 564.658 29.1301   1
   6  -3   6 503.288 29.5416   3
   6  -3   6 538.901 28.9898   1
  -7   3  -6 183.658 12.9230   1
   7  -3   6 219.350 13.3026   1
   7  -3   6 199.186 14.1405   3
  -8   3  -6 433.014 25.3217   1
   8  -3   6 467.010 26.9654   3
  -9   3  -6 338.452 20.4285   1
   9  -3   6 343.064 22.1733   3
   8   2  -6 364.736 21.4531   2
   7   2  -6 421.217 23.9121   2
   6   2  -6 11.4136 3.14907   2
   5   2  -6 1.19004 2.06239   2
  -5  -2   6 5.01903 0.97783   1
   4   2  -6 135.286 8.73465   2
  -4  -2   6 115.309 6.54527   1
  -4  -2   6 114.058 6.70369   1
   3   2  -6 215.913 11.1920   1
   3   2  -6 197.465 12.6892   2
  -3  -2   6 218.791 11.5882   1
  -3  -2   6 220.014 11.3789   1
   2   2  -6 304.641 16.0712   1
   2   2  -6 310.043 17.3625   2
  -2  -2   6 319.678 16.4016   1
  -2  -2   6 305.480 16.1027   1
   1   2  -6 404.357 21.8299   2
   1   2  -6 388.877 20.7581   1
  -1  -2   6 381.255 20.8210   1
  -1  -2   6 432.153 20.7933   1
   0   2  -6 429.124 22.1188   1
   0   2  -6 434.129 22.8778   2
   0  -2   6 437.461 22.0224   1
   0  -2   6 400.016 22.1011   1
  -1   2  -6 1010.64 52.3236   2
  -1   2  -6 1060.03 51.8713   1
   1  -2   6 1048.63 51.9604   1
  -2   2  -6 435.576 22.4582   1
  -2   2  -6 410.759 22.6304   2
   2  -2   6 417.638 22.4180   1
  -3   2  -6 27.3086 3.56370   2
  -3   2  -6 30.3603 3.74843   1
   3  -2   6 26.9675 3.59978   1
   3  -2   6 25.5772 3.47646   3
  -4   2  -6 36.1621 4.34841   1
   4  -2   6 33.0452 4.20101   1
   4  -2   6 39.6708 4.14177   3
  -5   2  -6 162.714 10.4529   1
   5  -2   6 146.394 10.0865   1
   5  -2   6 165.154 10.7661   3
  -6   2  -6 442.075 23.8073   1
   6  -2   6 430.614 24.3400   3
   6  -2   6 413.509 23.5809   1
  -7   2  -6 213.233 13.1878   1
   7  -2   6 193.874 12.8874   1
   7  -2   6 210.374 14.0932   3
  -8   2  -6 63.4467 6.58448   1
   8  -2   6 47.4891 6.95326   3
  -9   2  -6 42.1690 5.65792   1
   9  -2   6 40.4776 6.79623   3
 -10   2  -6 83.7283 7.79898   1
  10  -2   6 80.0344 9.90775   3
   7   1  -6 74.4233 6.97274   2
   6   1  -6 30.1204 4.46871   2
  -6  -1   6 29.0175 1.62446   1
   5   1  -6 76.0607 6.19154   2
  -5  -1   6 68.9489 4.11535   1
  -5  -1   6 73.1444 4.10309   1
   4   1  -6 7.61777 0.79932   1
   4   1  -6 11.5084 2.82633   2
  -4  -1   6 8.80786 1.28784   1
  -4  -1   6 8.68810 1.33065   1
   3   1  -6 27.2487 2.06931   1
   3   1  -6 23.0681 3.33805   2
  -3  -1   6 23.0001 2.17811   1
  -3  -1   6 22.8250 2.38653   1
   2   1  -6 36.3203 2.76582   1
   2   1  -6 31.6539 3.83047   2
  -2  -1   6 35.3043 2.98973   1
  -2  -1   6 31.7679 2.77361   1
  -2  -1   6 35.1976 3.05191   3
   1   1  -6 172.726 9.83164   1
   1   1  -6 166.732 10.5815   2
  -1  -1   6 196.988 9.78144   3
  -1  -1   6 179.105 9.89626   1
  -1  -1   6 166.641 9.92191   1
   0   1  -6 9.14981 2.10404   2
   0   1  -6 10.6266 1.91380   1
   0  -1   6 7.47432 1.77622   1
   0  -1   6 9.39374 1.77217   1
  -1   1  -6 384.349 20.7812   2
  -1   1  -6 411.439 20.5502   1
   1  -1   6 370.984 20.4743   1
  -2   1  -6 -2.4794 1.14771   2
  -2   1  -6 -1.0122 1.21825   1
   2  -1   6 -1.3189 0.98049   1
   2  -1   6 0.78717 1.01259   3
  -3   1  -6 27.8384 3.48365   2
  -3   1  -6 24.5489 3.35974   1
   3  -1   6 22.6672 2.94444   3
   3  -1   6 24.4876 3.34691   1
  -4   1  -6 36.2310 4.25420   1
   4  -1   6 33.3562 4.12354   1
   4  -1   6 42.6206 4.06633   3
  -5   1  -6 14.6582 2.84908   1
   5  -1   6 12.9719 3.09623   3
   5  -1   6 17.7379 3.16047   1
  -6   1  -6 23.7157 3.72131   1
   6  -1   6 21.5045 3.58863   1
   6  -1   6 25.6026 4.27263   3
  -7   1  -6 16.9639 3.34118   1
   7  -1   6 9.94987 2.81231   1
   7  -1   6 7.90862 3.14423   3
  -8   1  -6 108.732 8.32681   1
   8  -1   6 100.018 9.20234   3
  -9   1  -6 27.1476 4.48149   1
   9  -1   6 23.6945 5.44562   3
 -10   1  -6 3.64755 2.46631   1
  10  -1   6 9.54722 4.44200   3
  10   0  -6 22.0356 4.85745   3
   9   0  -6 147.336 11.3418   3
   8   0  -6 383.426 22.3138   3
   7   0  -6 27.9814 4.45018   3
   6   0  -6 75.3302 6.41055   3
   6   0  -6 91.9906 7.16843   2
  -6   0   6 79.5046 4.33199   1
  -6   0   6 78.8491 4.28322   1
   5   0  -6 25.7939 4.12974   2
   5   0  -6 37.1680 3.81014   3
  -5   0   6 32.2601 2.34237   1
  -5   0   6 34.1378 2.33838   1
   4   0  -6 398.007 20.2132   1
   4   0  -6 409.105 22.4145   2
  -4   0   6 410.538 20.7013   1
  -4   0   6 435.397 20.7458   1
   3   0  -6 0.90242 0.68239   1
   3   0  -6 0.04806 1.49625   2
  -3   0   6 1.28990 0.88474   1
  -3   0   6 4.16322 1.32887   3
  -3   0   6 1.70342 0.84852   1
   2   0  -6 2.31976 1.58586   2
   2   0  -6 2.74804 0.99061   1
  -2   0   6 1.75058 0.96048   1
  -2   0   6 2.77080 1.06571   3
  -2   0   6 2.20248 1.11074   1
   1   0  -6 14.1721 1.79991   1
   1   0  -6 9.33660 2.16762   2
  -1   0   6 9.06359 1.69851   1
  -1   0   6 10.4270 1.66246   1
  -1   0   6 11.4690 1.36238   3
   0   0  -6 196.816 11.4245   1
   0   0  -6 207.618 12.0294   2
   0   0   6 216.172 11.6779   1
   0   0   6 218.942 11.5792   1
  -1   0  -6 1163.77 53.2822   1
  -1   0  -6 1029.86 53.3459   2
   1   0   6 1069.26 52.3042   3
   1   0   6 1032.31 53.2462   1
  -2   0  -6 179.150 10.8395   2
  -2   0  -6 186.446 10.8919   1
   2   0   6 182.092 10.2349   3
   2   0   6 213.255 11.2119   1
  -3   0  -6 112.105 7.75736   1
  -3   0  -6 124.264 7.75200   2
   3   0   6 125.676 7.95467   1
   3   0   6 120.636 7.44958   3
  -4   0  -6 29.3164 3.78981   1
   4   0   6 29.8847 3.81124   1
   4   0   6 35.4543 3.54146   3
  -5   0  -6 114.837 8.00743   1
   5   0   6 118.657 8.22617   3
   5   0   6 118.327 8.03892   1
  -6   0  -6 6.31251 2.19214   1
   6   0   6 10.8436 2.47146   1
   6   0   6 5.23333 2.55353   3
  -7   0  -6 22.4648 3.78567   1
   7   0   6 24.2708 4.31569   3
   7   0   6 18.6544 3.35759   1
  -8   0  -6 45.7668 5.46945   1
   8   0   6 39.3059 6.12954   3
   8   0   6 45.7011 4.39812   4
  -9   0  -6 166.787 10.9514   1
   9   0   6 145.597 12.0856   3
 -10   0  -6 200.784 12.8371   1
  10   0   6 180.841 14.3837   3
  10  -1  -6 14.5828 4.26554   3
   9  -1  -6 105.091 9.22278   3
   8  -1  -6 242.892 15.6279   3
  -8   1   6 245.847 12.0883   1
   7  -1  -6 770.183 37.6169   3
  -7   1   6 661.915 34.4453   1
   6  -1  -6 918.787 46.9528   2
   6  -1  -6 946.772 46.7069   3
  -6   1   6 869.034 44.3578   1
  -6   1   6 919.991 44.5252   1
   5  -1  -6 321.011 18.9509   2
   5  -1  -6 350.131 18.6333   3
  -5   1   6 342.533 17.1979   1
  -5   1   6 341.665 17.0979   1
   4  -1  -6 382.240 19.8585   3
   4  -1  -6 366.657 20.5819   2
  -4   1   6 381.952 19.0498   1
  -4   1   6 372.096 18.9881   1
   3  -1  -6 36.2982 4.10097   2
  -3   1   6 30.7351 2.61750   1
  -3   1   6 35.7339 2.88899   3
  -3   1   6 28.3531 2.57270   1
   2  -1  -6 1035.92 52.1622   1
   2  -1  -6 1055.21 53.2254   2
  -2   1   6 1044.20 52.3694   1
  -2   1   6 1076.61 51.9847   3
  -2   1   6 1121.97 52.4691   1
   1  -1  -6 80.7399 5.68648   2
   1  -1  -6 76.6144 5.01459   1
  -1   1   6 86.0368 5.25908   1
  -1   1   6 82.3299 5.18459   1
   0  -1  -6 1391.41 65.5301   1
   0  -1  -6 1281.53 65.7583   2
   0   1   6 1329.86 65.5144   1
   0   1   6 1340.49 65.6357   1
  -1  -1  -6 664.411 33.8393   1
  -1  -1  -6 658.397 33.9917   2
   1   1   6 684.298 33.9573   1
   1   1   6 680.743 32.6155   3
  -2  -1  -6 1740.82 91.4100   1
  -2  -1  -6 1942.29 91.5241   2
   2   1   6 1824.17 90.7049   3
   2   1   6 1980.82 91.6883   1
  -3  -1  -6 399.251 20.7177   2
  -3  -1  -6 394.565 20.9324   1
   3   1   6 392.289 20.9761   1
   3   1   6 397.332 20.5097   3
  -4  -1  -6 4.40516 1.71278   1
  -4  -1  -6 6.09203 1.65570   2
   4   1   6 2.63768 1.48582   3
   4   1   6 3.88284 1.61264   1
  -5  -1  -6 56.9757 4.96449   1
   5   1   6 54.6428 5.19671   3
   5   1   6 70.4751 5.24334   1
  -6  -1  -6 87.0362 6.43573   1
   6   1   6 84.0081 7.07384   3
   6   1   6 77.8052 6.22002   1
  -7  -1  -6 534.917 27.5552   1
   7   1   6 494.577 27.3255   1
   7   1   6 515.416 28.4007   3
  -8  -1  -6 147.339 9.92027   1
   8   1   6 144.994 10.9465   3
   8   1   6 143.232 9.46532   4
  -9  -1  -6 111.782 8.47440   1
   9   1   6 110.880 10.0554   3
 -10  -1  -6 109.196 8.49978   1
  10   1   6 104.616 10.1305   3
  10  -2  -6 84.7663 8.72107   3
   9  -2  -6 208.957 14.3630   3
  -9   2   6 203.292 10.6448   1
   8  -2  -6 127.525 9.96077   3
   7  -2  -6 262.118 15.8285   3
  -7   2   6 253.645 13.2158   1
   6  -2  -6 217.613 13.7259   3
  -6   2   6 236.821 11.8258   1
  -6   2   6 220.357 12.9158   1
   5  -2  -6 555.293 29.3741   2
   5  -2  -6 564.318 28.9758   3
  -5   2   6 546.104 27.5638   1
  -5   2   6 548.711 27.4466   1
   4  -2  -6 404.767 21.7205   3
   4  -2  -6 390.338 22.2712   2
   4  -2  -6 414.848 20.6672   1
  -4   2   6 426.122 20.9917   1
  -4   2   6 435.520 21.0783   1
   3  -2  -6 154.936 9.78055   2
   3  -2  -6 160.676 8.61079   1
   3  -2  -6 164.821 9.06978   3
  -3   2   6 154.027 8.82225   1
  -3   2   6 168.678 8.94871   1
   2  -2  -6 39.2730 2.50367   3
   2  -2  -6 30.0878 2.66563   1
   2  -2  -6 36.3149 3.56026   2
  -2   2   6 32.3687 2.88118   1
  -2   2   6 34.0783 2.89163   1
   1  -2  -6 251.685 12.9494   1
   1  -2  -6 247.970 13.4887   2
  -1   2   6 234.231 13.0187   1
  -1   2   6 245.538 13.0891   1
   0  -2  -6 1331.70 66.1528   1
   0  -2  -6 1326.95 66.3568   2
   0   2   6 1347.13 66.2777   1
   0   2   6 1398.19 66.3262   1
  -1  -2  -6 546.002 26.2801   2
  -1  -2  -6 493.783 26.1953   1
   1   2   6 505.808 26.3191   1
  -2  -2  -6 995.642 48.8594   2
  -2  -2  -6 914.307 48.9876   1
   2   2   6 989.600 48.1985   3
   2   2   6 1054.10 49.3220   1
  -3  -2  -6 15.7283 2.10165   2
  -3  -2  -6 11.3290 1.82063   3
  -3  -2  -6 13.1057 2.20162   1
   3   2   6 12.9453 1.97020   3
   3   2   6 12.5267 2.32955   1
  -4  -2  -6 1039.47 51.5628   2
  -4  -2  -6 1054.33 52.2375   1
   4   2   6 1057.57 52.2383   1
   4   2   6 1023.49 51.9400   3
  -5  -2  -6 209.864 11.9886   1
   5   2   6 188.242 11.8322   1
   5   2   6 206.450 12.1987   3
  -6  -2  -6 250.437 14.4448   1
   6   2   6 268.296 14.5693   1
   6   2   6 235.461 14.8407   3
  -7  -2  -6 12.0717 2.67203   1
   7   2   6 7.14591 2.16110   1
   7   2   6 9.37463 2.37974   4
   7   2   6 13.7939 3.35263   3
  -8  -2  -6 157.108 10.3356   1
   8   2   6 158.758 10.3523   4
   8   2   6 154.837 11.4068   3
  -9  -2  -6 203.181 12.3500   1
   9   2   6 169.648 13.2939   3
   9   2   6 195.928 12.1165   4
 -10  -2  -6 176.305 11.8460   1
  10   2   6 181.509 13.7711   3
  10  -3  -6 1.19611 2.83031   3
 -10   3   6 -0.5422 1.10177   1
   9  -3  -6 13.6166 4.02961   3
  -9   3   6 12.3154 1.95625   1
   8  -3  -6 58.8182 7.20624   3
  -8   3   6 62.2438 4.27558   1
   7  -3  -6 94.1308 8.11502   3
  -7   3   6 102.469 6.02623   1
   6  -3  -6 9.42266 2.84895   3
  -6   3   6 6.83589 1.42098   1
   5  -3  -6 17.9822 3.19212   3
   5  -3  -6 20.3246 1.87450   1
  -5   3   6 19.7416 2.19745   1
  -5   3   6 19.6938 2.14758   1
   4  -3  -6 110.710 6.28244   1
   4  -3  -6 108.859 7.28489   3
  -4   3   6 110.643 6.52571   1
  -4   3   6 114.456 6.61150   1
   3  -3  -6 207.033 11.5862   3
   3  -3  -6 204.601 11.0970   1
   3  -3  -6 215.367 12.3152   2
  -3   3   6 212.076 11.3691   1
  -3   3   6 218.417 11.4503   1
   2  -3  -6 108.291 6.36828   1
   2  -3  -6 102.772 6.97281   2
   2  -3  -6 103.314 6.15321   3
  -2   3   6 122.140 6.63743   1
  -2   3   6 108.756 6.51660   1
   1  -3  -6 11.1954 2.13759   2
   1  -3  -6 16.7915 2.09863   1
   1  -3  -6 15.6709 1.28064   3
  -1   3   6 14.6748 2.03074   1
  -1   3   6 15.6042 2.14928   1
   0  -3  -6 0.77822 1.02771   2
   0  -3  -6 1.31789 1.05280   1
   0   3   6 1.32880 1.07996   1
  -1  -3  -6 1133.66 58.0443   2
  -1  -3  -6 1323.38 58.5354   1
  -1  -3  -6 1135.60 57.3235   3
   1   3   6 1156.28 58.3801   1
  -2  -3  -6 811.773 42.1704   2
  -2  -3  -6 836.678 42.0619   3
  -2  -3  -6 892.477 42.8470   1
   2   3   6 891.499 42.8856   1
  -3  -3  -6 4.48919 1.48687   1
  -3  -3  -6 7.19780 1.32534   2
  -3  -3  -6 4.89326 1.42876   3
   3   3   6 4.77876 1.61211   1
  -4  -3  -6 2.61756 1.57686   1
  -4  -3  -6 3.65400 1.17536   2
   4   3   6 0.04183 1.30226   1
   4   3   6 2.60454 1.52120   3
  -5  -3  -6 16.8708 2.18497   2
  -5  -3  -6 18.8132 2.83082   1
   5   3   6 16.5249 2.69087   1
   5   3   6 14.0673 2.72941   3
  -6  -3  -6 154.679 10.5660   1
   6   3   6 203.475 11.6335   3
   6   3   6 172.377 10.6705   1
  -7  -3  -6 3.28945 1.75779   1
   7   3   6 1.11384 2.05775   4
   7   3   6 4.18507 1.77344   1
   7   3   6 0.16379 1.95045   3
  -8  -3  -6 4.60487 2.11504   1
   8   3   6 2.25248 2.55215   3
   8   3   6 3.08665 1.96574   4
  -9  -3  -6 5.77041 2.42141   1
   9   3   6 6.08779 3.33878   3
 -10  -3  -6 260.233 15.6915   1
  10   3   6 262.126 17.6838   3
  10  -4  -6 -0.6221 2.66474   3
 -10   4   6 2.01101 1.43113   1
   9  -4  -6 0.93338 2.45755   3
   8  -4  -6 36.7834 5.83887   3
  -8   4   6 30.8752 3.34345   1
   7  -4  -6 97.1197 8.43522   3
  -7   4   6 100.777 6.30804   1
   6  -4  -6 65.4496 6.41088   3
  -6   4   6 80.9748 5.08591   1
   5  -4  -6 349.738 19.7218   3
  -5   4   6 352.130 18.3734   1
  -5   4   6 361.883 18.5146   1
   4  -4  -6 29.7580 3.68124   3
   4  -4  -6 23.4874 2.43297   1
  -4   4   6 22.8275 2.60474   1
  -4   4   6 29.0290 2.87080   1
   3  -4  -6 0.94692 0.93307   1
   3  -4  -6 0.41985 1.10428   3
  -3   4   6 -0.3473 0.73438   1
  -3   4   6 0.61795 0.96190   1
   2  -4  -6 9.99954 2.17844   2
   2  -4  -6 11.4507 1.73704   3
   2  -4  -6 8.93592 1.63843   1
  -2   4   6 8.55896 1.64289   1
  -2   4   6 12.9236 1.96968   1
   1  -4  -6 0.96379 0.97384   1
   1  -4  -6 0.91861 1.08851   2
  -1   4   6 -1.0239 0.78391   1
  -1   4   6 -0.2212 0.90289   1
   0  -4  -6 258.405 14.0759   1
   0  -4  -6 254.789 13.9773   2
   0   4   6 279.408 14.2931   1
  -1  -4  -6 721.007 35.8886   2
  -1  -4  -6 754.096 36.3812   1
  -1  -4  -6 739.732 35.7160   3
   1   4   6 731.417 35.8480   2
   1   4   6 671.275 36.2774   1
  -2  -4  -6 131.279 7.66329   3
  -2  -4  -6 117.137 7.81233   1
  -2  -4  -6 131.570 7.32105   2
   2   4   6 150.918 8.22767   1
  -3  -4  -6 1738.25 86.3157   1
  -3  -4  -6 1738.17 85.3284   2
   3   4   6 1807.38 86.3902   1
  -4  -4  -6 842.895 41.3374   2
  -4  -4  -6 851.943 42.4731   1
   4   4   6 832.975 42.3932   1
  -5  -4  -6 407.911 19.6436   2
  -5  -4  -6 382.796 20.7887   1
   5   4   6 366.572 20.6217   1
  -6  -4  -6 74.7682 4.88965   2
  -6  -4  -6 89.9274 6.19561   1
   6   4   6 68.7674 5.75303   1
   6   4   6 77.2222 6.39929   4
   6   4   6 94.4302 6.85892   3
  -7  -4  -6 20.9145 3.30890   1
   7   4   6 26.6909 4.08910   4
   7   4   6 29.7751 4.58380   3
   7   4   6 22.4210 3.22530   1
  -8  -4  -6 92.5965 7.08994   1
   8   4   6 95.7071 7.63066   4
   8   4   6 92.1549 8.20804   3
  -9  -4  -6 379.276 20.4103   1
   9   4   6 345.459 21.8258   3
 -10  -4  -6 182.129 11.6753   1
  10   4   6 169.656 13.4334   3
  10  -5  -6 5.16151 3.43198   3
 -10   5   6 6.25090 2.18457   1
   9  -5  -6 27.7561 5.40835   3
   8  -5  -6 25.2335 5.27708   3
  -8   5   6 32.6757 3.59023   1
   7  -5  -6 70.4177 6.85400   3
  -7   5   6 64.2611 5.04506   1
   6  -5  -6 388.076 21.9006   3
  -6   5   6 378.971 20.0395   1
   5  -5  -6 1398.24 70.1842   1
   5  -5  -6 1422.40 71.8537   3
  -5   5   6 1483.40 70.4630   1
   4  -5  -6 392.476 18.2848   1
   4  -5  -6 349.636 19.2293   3
  -4   5   6 326.809 18.1724   1
  -4   5   6 327.941 18.2515   1
   3  -5  -6 885.534 44.6186   1
   3  -5  -6 915.995 45.3388   3
  -3   5   6 906.864 44.8825   1
  -3   5   6 899.612 44.8004   1
   2  -5  -6 3.45303 1.35343   3
   2  -5  -6 2.56738 1.20811   1
  -2   5   6 3.02220 1.27072   1
   1  -5  -6 244.069 13.7334   1
  -1   5   6 270.281 13.9957   1
   0  -5  -6 811.123 41.7829   1
   0   5   6 866.272 41.9451   1
  -1  -5  -6 1533.82 75.3451   1
  -1  -5  -6 1517.69 74.7112   2
   1   5   6 1600.65 74.6906   2
   1   5   6 1486.80 75.3661   1
  -2  -5  -6 652.392 32.4624   2
  -2  -5  -6 698.484 33.5263   1
   2   5   6 632.733 33.4575   1
  -3  -5  -6 443.740 23.3536   1
  -3  -5  -6 450.008 22.0781   2
   3   5   6 450.458 23.4257   1
  -4  -5  -6 527.424 24.6050   2
  -4  -5  -6 476.287 26.0523   1
   4   5   6 497.643 26.1671   1
  -5  -5  -6 974.916 47.6212   2
  -5  -5  -6 931.883 49.2659   1
   5   5   6 1056.40 49.4799   1
   5   5   6 976.196 50.0695   4
  -6  -5  -6 690.525 36.5813   1
   6   5   6 751.169 36.6600   1
   6   5   6 704.645 37.3911   4
  -7  -5  -6 170.523 10.6140   1
   7   5   6 168.800 11.3773   4
  -8  -5  -6 3.10126 1.83024   1
   8   5   6 -1.5093 2.06884   4
  -9  -5  -6 272.891 16.0199   1
 -10  -5  -6 380.146 21.2761   1
  10  -6  -6 24.1633 5.46984   3
 -10   6   6 20.5338 3.29402   1
   9  -6  -6 99.0370 9.60015   3
   8  -6  -6 63.3649 8.01376   3
  -8   6   6 71.2187 5.59893   1
   7  -6  -6 27.9334 5.24459   3
  -7   6   6 37.8215 3.84508   1
   6  -6  -6 171.178 12.1262   3
  -6   6   6 187.931 10.6955   1
   5  -6  -6 132.693 9.12223   3
   5  -6  -6 115.328 7.53666   1
  -5   6   6 125.070 7.83598   1
   4  -6  -6 324.378 17.2720   1
   4  -6  -6 308.373 18.3173   3
  -4   6   6 344.664 17.5354   1
   3  -6  -6 667.084 32.8423   3
   3  -6  -6 617.573 31.9180   1
  -3   6   6 616.268 32.0509   1
   2  -6  -6 162.410 9.53188   1
  -2   6   6 169.359 9.72067   1
   1  -6  -6 481.251 24.1772   1
  -1   6   6 457.245 24.2434   1
   0  -6  -6 122.987 7.48441   1
   0   6   6 117.357 7.48759   1
  -1  -6  -6 118.166 7.32600   1
   1   6   6 117.833 6.45377   2
   1   6   6 105.485 7.19235   1
  -2  -6  -6 595.695 29.2377   1
   2   6   6 542.746 29.1184   1
  -3  -6  -6 1033.05 52.7873   1
   3   6   6 1088.54 52.9183   1
  -4  -6  -6 672.343 32.9063   1
   4   6   6 631.226 32.8049   1
   4   6   6 619.410 33.5429   4
  -5  -6  -6 4.03144 1.81799   1
   5   6   6 6.66235 1.94957   1
   5   6   6 2.55399 2.05305   4
  -6  -6  -6 157.568 10.1182   1
   6   6   6 163.470 11.1473   4
   6   6   6 173.223 10.1716   1
  -7  -6  -6 130.639 8.75996   1
   7   6   6 135.811 9.83705   4
  -8  -6  -6 357.993 19.8249   1
  -9  -6  -6 126.215 8.79390   1
 -10  -6  -6 3.60565 2.18198   1
   9  -7  -6 16.0042 4.54074   3
   8  -7  -6 -3.6776 1.77809   3
  -8   7   6 -2.4196 1.75263   1
   7  -7  -6 18.4628 4.43811   3
  -7   7   6 13.0035 2.77868   1
   6  -7  -6 393.311 23.3964   3
  -6   7   6 419.312 21.8626   1
   5  -7  -6 18.4401 3.82198   3
  -5   7   6 20.8255 3.02519   1
   4  -7  -6 139.575 9.83852   3
   4  -7  -6 147.013 8.90047   1
  -4   7   6 155.052 9.15136   1
   3  -7  -6 15.4101 2.45111   1
  -3   7   6 11.4270 2.21325   1
   2  -7  -6 61.6566 4.93780   1
  -2   7   6 73.3089 5.16981   1
   1  -7  -6 93.1685 6.53176   1
  -1   7   6 104.900 6.68774   1
   0  -7  -6 16.5670 2.53185   1
   0   7   6 18.5082 2.67752   1
  -1  -7  -6 1.76975 1.44032   1
   1   7   6 0.54693 1.31411   1
   1   7   6 2.51673 0.86885   2
  -2  -7  -6 1.73367 1.27512   1
   2   7   6 4.12978 0.61889   2
   2   7   6 3.16541 1.37024   1
  -3  -7  -6 201.548 11.9258   1
   3   7   6 216.593 12.8417   4
   3   7   6 202.255 11.8912   1
  -4  -7  -6 145.565 8.82230   1
   4   7   6 124.188 9.36261   4
   4   7   6 141.735 8.71360   1
  -5  -7  -6 153.371 10.0994   1
   5   7   6 173.688 10.2289   1
   5   7   6 177.953 11.3875   4
  -6  -7  -6 13.9010 2.74405   1
   6   7   6 16.4372 3.88243   4
  -7  -7  -6 184.839 11.4247   1
  -8  -7  -6 36.0389 4.40321   1
  -9  -7  -6 50.1596 5.45064   1
 -10  -7  -6 43.0199 5.16110   1
   9  -8  -6 -0.4956 2.46779   3
   8  -8  -6 14.6395 4.33129   3
  -8   8   6 17.9075 3.38445   1
   7  -8  -6 53.1980 7.26204   3
  -7   8   6 45.8637 5.16683   1
   6  -8  -6 59.2079 7.21635   3
  -6   8   6 60.4813 5.64141   1
   5  -8  -6 113.336 9.31314   3
  -5   8   6 134.699 8.60029   1
   4  -8  -6 607.923 30.5597   1
   4  -8  -6 592.564 31.8118   3
  -4   8   6 572.874 30.6319   1
   3  -8  -6 105.324 7.22528   1
  -3   8   6 110.329 7.41113   1
   2  -8  -6 20.5340 2.92948   1
  -2   8   6 17.2636 2.83355   1
   1  -8  -6 25.0898 3.22213   1
  -1   8   6 22.7856 3.15105   1
   0  -8  -6 52.3523 4.58119   1
   0   8   6 57.5045 4.66909   1
   0   8   6 53.4539 4.98693   4
  -1  -8  -6 59.3709 4.76348   1
   1   8   6 51.9305 5.10721   4
   1   8   6 56.4073 4.65159   1
  -2  -8  -6 254.227 15.2786   1
   2   8   6 277.458 16.0964   4
   2   8   6 301.298 15.5349   1
  -3  -8  -6 394.519 19.7601   1
   3   8   6 348.999 19.5414   1
   3   8   6 348.573 20.4877   4
  -4  -8  -6 41.8236 4.42094   1
   4   8   6 49.9119 4.30759   1
   4   8   6 45.2631 5.58141   4
  -5  -8  -6 146.636 9.13173   1
   5   8   6 128.007 9.85632   4
   5   8   6 139.014 8.80692   1
  -6  -8  -6 55.0555 5.17701   1
  -7  -8  -6 39.6643 4.65029   1
  -8  -8  -6 -0.4407 1.76104   1
  -9  -8  -6 19.9935 3.48093   1
   8  -9  -6 15.6597 4.35933   3
  -8   9   6 13.4334 3.33384   1
   7  -9  -6 227.690 15.9913   3
  -7   9   6 237.364 14.3350   1
   6  -9  -6 210.163 15.0165   3
  -6   9   6 229.872 13.5393   1
   5  -9  -6 350.204 21.2328   3
  -5   9   6 360.979 19.8951   1
   4  -9  -6 337.555 18.9684   1
  -4   9   6 388.642 19.4961   1
  -4   9   6 319.292 18.4783   4
   3  -9  -6 492.022 24.8653   1
  -3   9   6 446.564 24.8086   1
  -3   9   6 461.146 24.4902   4
   2  -9  -6 987.273 49.0560   1
  -2   9   6 957.423 49.0901   1
  -2   9   6 971.570 49.0124   4
   1  -9  -6 301.986 17.5593   1
  -1   9   6 326.786 17.9323   4
  -1   9   6 333.423 17.9089   1
   0  -9  -6 69.2264 6.13595   1
   0   9   6 94.0133 6.43861   1
   0   9   6 90.7303 6.73039   4
  -1  -9  -6 39.7231 4.35928   1
   1   9   6 36.8523 4.81232   4
   1   9   6 37.6523 4.20235   1
  -2  -9  -6 185.950 11.3281   1
   2   9   6 193.961 12.2278   4
   2   9   6 185.936 11.2924   1
  -3  -9  -6 376.213 19.9877   1
   3   9   6 363.328 19.8930   1
   3   9   6 362.361 20.9072   4
  -4  -9  -6 426.479 23.0004   1
   4   9   6 431.166 24.2840   4
   4   9   6 429.389 22.9046   1
  -5  -9  -6 291.602 16.4656   1
  -6  -9  -6 113.955 7.95175   1
  -7  -9  -6 71.1196 6.05339   1
  -8  -9  -6 182.895 11.4657   1
   7 -10  -6 34.4588 6.03201   3
  -7  10   6 26.9026 4.41252   1
   6 -10  -6 14.9234 4.12350   3
  -6  10   6 9.39978 2.94872   1
   5 -10  -6 178.438 13.2545   3
  -5  10   6 188.655 11.9184   1
   4 -10  -6 399.871 21.8746   1
  -4  10   6 397.410 22.0823   1
   3 -10  -6 330.191 17.5398   1
  -3  10   6 293.441 16.8798   4
  -3  10   6 296.241 17.4187   1
   2 -10  -6 292.299 16.0831   1
  -2  10   6 268.920 15.9489   1
  -2  10   6 270.394 15.7692   4
   1 -10  -6 52.8159 5.30584   1
  -1  10   6 49.3875 5.33366   1
  -1  10   6 52.4872 5.65212   4
   0 -10  -6 284.852 16.2645   1
   0  10   6 280.352 16.2590   1
   0  10   6 289.303 16.6805   4
  -1 -10  -6 117.090 8.06392   1
   1  10   6 102.447 8.17794   4
   1  10   6 113.517 7.87726   1
  -2 -10  -6 220.949 13.4202   1
   2  10   6 228.301 13.3621   1
   2  10   6 233.220 14.4241   4
  -3 -10  -6 126.168 8.40404   1
   3  10   6 112.745 7.98412   1
  -4 -10  -6 283.231 16.1768   1
  -5 -10  -6 400.199 21.8186   1
  -6 -10  -6 162.643 10.4715   1
  -7 -10  -6 109.743 8.06300   1
  -8 -10  -6 11.4894 2.95031   1
   6 -11  -6 32.6521 6.06058   3
  -6  11   6 26.6974 4.58374   1
   5 -11  -6 3.57253 3.24110   3
  -5  11   6 2.86283 2.36657   1
   4 -11  -6 5.65201 2.93049   1
  -4  11   6 7.28990 2.67288   1
   3 -11  -6 147.084 10.1729   1
  -3  11   6 151.622 10.3824   1
   2 -11  -6 188.146 12.1773   1
  -2  11   6 197.142 12.3576   1
   1 -11  -6 28.9372 4.19049   1
  -1  11   6 27.8911 4.18600   1
   0 -11  -6 8.26046 2.74174   1
   0  11   6 6.97488 2.59702   1
  -1 -11  -6 42.2902 5.04319   1
   1  11   6 41.4357 4.85356   1
  -2 -11  -6 36.3960 4.61166   1
   2  11   6 36.8142 4.58648   1
  -3 -11  -6 49.1400 5.30259   1
  -4 -11  -6 155.142 10.3368   1
  -5 -11  -6 35.8707 4.68870   1
  -6 -11  -6 37.6537 4.74316   1
  -7 -11  -6 65.5098 6.16236   1
   5 -12  -6 47.3402 7.38882   3
  -5  12   6 45.0453 5.93761   1
  -4  12   6 30.9225 4.71533   1
   3 -12  -6 28.4674 4.46540   1
  -3  12   6 33.0803 4.68569   1
   2 -12  -6 3.52407 2.71891   1
  -2  12   6 6.37667 2.82621   1
   1 -12  -6 49.9891 5.70000   1
  -1  12   6 43.1948 5.40131   1
   0 -12  -6 4.17310 2.67762   1
   0  12   6 5.66200 2.62959   1
  -1 -12  -6 3.35029 2.80846   1
   1  12   6 4.73367 2.50007   1
  -2 -12  -6 8.10583 3.05248   1
  -3 -12  -6 23.5564 3.99331   1
  -4 -12  -6 207.282 13.0972   1
  -5 -12  -6 91.3961 7.67656   1
  -6 -12  -6 184.369 12.0002   1
   3 -13  -6 350.576 20.6079   1
  -3  13   6 352.944 20.7269   1
   2 -13  -6 346.698 19.7151   1
  -2  13   6 316.166 19.4532   1
   1 -13  -6 140.397 10.6525   1
  -1  13   6 154.861 10.7091   1
   0 -13  -6 3.81029 2.78238   1
   0  13   6 1.86127 2.18246   1
  -1 -13  -6 107.636 8.68648   1
  -2 -13  -6 102.224 8.49271   1
  -3 -13  -6 206.578 13.4002   1
  -4 -13  -6 84.9084 7.44268   1
   3   8  -7 100.137 9.19943   2
  -3  -8   7 95.3860 7.61678   1
   2   8  -7 102.179 9.24997   2
  -2  -8   7 114.246 8.51420   1
   1   8  -7 40.2460 6.32076   2
  -1  -8   7 29.3799 4.69433   1
   0   8  -7 21.6395 4.67137   2
   0  -8   7 20.3148 4.10662   1
  -1   8  -7 40.0243 5.83136   2
   1  -8   7 33.7824 5.28320   1
  -2   8  -7 202.656 14.7682   2
   2  -8   7 234.656 14.8878   1
   3  -8   7 385.202 22.9911   1
   4   7  -7 253.124 16.4358   2
  -4  -7   7 241.441 14.1905   1
   3   7  -7 132.194 10.5390   2
  -3  -7   7 126.162 8.85068   1
   2   7  -7 46.0460 6.55596   2
  -2  -7   7 29.2516 4.26032   1
   1   7  -7 -1.2158 2.38825   2
  -1  -7   7 -3.0777 1.71589   1
   0   7  -7 31.1246 5.39888   2
   0  -7   7 47.5395 5.47778   1
  -1   7  -7 1.07640 2.60220   2
   1  -7   7 -2.7262 2.01694   1
  -2   7  -7 34.1577 5.62138   2
   2  -7   7 33.7648 5.04602   1
  -3   7  -7 186.631 13.1156   2
   3  -7   7 160.066 12.1484   1
  -4   7  -7 285.673 18.3151   2
   4  -7   7 280.732 18.0095   1
   4  -7   7 292.236 18.6767   3
  -5   7  -7 108.397 10.2110   2
   5  -7   7 122.040 10.3153   1
   5  -7   7 135.787 11.0671   3
   6   6  -7 15.9858 3.88109   2
  -6  -6   7 12.8003 2.00322   1
   5   6  -7 10.7713 3.79448   2
  -5  -6   7 14.0370 2.34485   1
   4   6  -7 47.7991 6.46307   2
  -4  -6   7 48.9079 4.52306   1
   3   6  -7 143.615 10.7873   2
  -3  -6   7 134.129 9.03514   1
   2   6  -7 26.8282 4.62581   2
  -2  -6   7 20.3311 3.51621   1
   1   6  -7 154.129 11.0217   2
  -1  -6   7 139.651 9.84771   1
   0   6  -7 5.26090 3.00317   2
   0  -6   7 6.46979 2.67775   1
  -1   6  -7 -0.2040 1.66534   2
   1  -6   7 0.42292 2.15814   1
  -2   6  -7 11.8194 3.32951   2
   2  -6   7 11.3753 3.21136   1
  -3   6  -7 51.6135 6.53355   2
   3  -6   7 43.2586 5.79707   1
  -4   6  -7 9.89437 3.65429   2
  -4   6  -7 6.87492 2.66062   1
   4  -6   7 11.3719 3.55577   3
   4  -6   7 10.5203 3.44183   1
  -5   6  -7 40.8894 5.89870   2
  -5   6  -7 44.5961 5.90189   1
   5  -6   7 29.3446 5.55080   3
   5  -6   7 39.7995 5.80292   1
  -6   6  -7 46.2246 6.18321   1
   6  -6   7 41.9710 7.02016   3
   6  -6   7 50.2878 6.65297   1
   7   5  -7 63.3861 7.58056   2
   6   5  -7 83.0010 7.87334   2
  -6  -5   7 63.5557 4.36777   1
   5   5  -7 33.4561 5.17362   2
  -5  -5   7 20.4338 2.55026   1
   4   5  -7 91.5453 8.47054   2
  -4  -5   7 100.877 6.59535   1
   3   5  -7 138.634 10.5073   2
  -3  -5   7 136.971 8.71544   1
   2   5  -7 221.088 13.8377   2
  -2  -5   7 190.278 12.0489   1
   1   5  -7 360.681 20.9572   2
  -1  -5   7 347.472 19.5028   1
   0   5  -7 23.9836 4.38487   2
   0  -5   7 18.2383 3.39944   1
  -1   5  -7 19.3264 3.74636   2
   1  -5   7 15.5273 3.31237   1
  -2   5  -7 94.1424 7.91379   2
  -2   5  -7 86.1271 6.98647   1
   2  -5   7 80.1471 7.16118   1
  -3   5  -7 470.927 24.9618   1
  -3   5  -7 457.192 25.5287   2
   3  -5   7 419.334 24.8204   1
  -4   5  -7 390.739 24.0321   2
  -4   5  -7 443.581 23.8641   1
   4  -5   7 467.427 24.2447   1
   4  -5   7 390.067 24.0266   3
  -5   5  -7 225.932 14.3205   2
  -5   5  -7 183.356 13.2378   1
   5  -5   7 206.811 13.7541   1
   5  -5   7 206.121 14.2598   3
  -6   5  -7 49.0267 6.24898   1
   6  -5   7 27.9339 5.07225   1
   6  -5   7 43.7666 6.50615   3
  -7   5  -7 21.1874 4.38517   1
   7  -5   7 14.8471 4.83028   3
   7  -5   7 24.5202 4.72937   1
   8   4  -7 14.6624 4.27819   2
   7   4  -7 56.0514 7.14025   2
   6   4  -7 114.243 9.71067   2
  -6  -4   7 123.961 6.74250   1
   5   4  -7 407.219 23.5472   2
  -5  -4   7 408.790 20.9793   1
   4   4  -7 575.690 32.0681   2
  -4  -4   7 604.255 30.1073   1
   3   4  -7 246.293 15.7046   2
  -3  -4   7 263.584 14.2444   1
   2   4  -7 698.014 36.8599   2
  -2  -4   7 687.988 35.3477   1
   1   4  -7 270.955 16.8185   2
  -1  -4   7 281.242 15.6225   1
   0   4  -7 275.140 17.0434   2
   0  -4   7 299.971 16.4221   1
  -1   4  -7 32.6914 4.44173   2
  -1   4  -7 22.3086 3.54819   1
   1  -4   7 25.3549 3.89359   1
  -2   4  -7 329.922 19.5142   1
  -2   4  -7 362.331 20.4168   2
   2  -4   7 362.306 19.9098   1
  -3   4  -7 195.773 12.4174   2
  -3   4  -7 184.042 11.7682   1
   3  -4   7 175.574 11.8233   1
   3  -4   7 175.310 11.8545   3
  -4   4  -7 646.137 33.8757   1
  -4   4  -7 677.977 34.4328   2
   4  -4   7 656.670 34.0204   1
   4  -4   7 570.069 33.8198   3
  -5   4  -7 587.485 32.3644   1
  -5   4  -7 592.303 32.6151   2
   5  -4   7 648.000 32.7412   1
   5  -4   7 577.751 32.8378   3
  -6   4  -7 299.432 18.3040   1
   6  -4   7 308.117 18.3775   1
   6  -4   7 294.600 18.9968   3
  -7   4  -7 118.357 9.82310   1
   7  -4   7 140.637 10.2542   1
   7  -4   7 112.502 10.3045   3
  -8   4  -7 17.6903 4.31375   1
   8  -4   7 20.4794 5.07854   3
   8   3  -7 97.0387 8.95988   2
   7   3  -7 31.9079 5.52167   2
   6   3  -7 14.2486 4.03683   2
  -6  -3   7 14.4432 1.45245   1
   5   3  -7 33.1441 5.13863   2
  -5  -3   7 25.3088 2.57838   1
   4   3  -7 197.452 13.0653   2
  -4  -3   7 198.031 11.0319   1
   3   3  -7 576.581 31.4407   2
  -3  -3   7 594.405 29.8894   1
   2   3  -7 444.417 23.8710   2
  -2  -3   7 412.802 22.3554   1
   1   3  -7 50.2326 4.16399   1
   1   3  -7 44.6572 5.45808   2
  -1  -3   7 48.6107 4.40827   1
   0   3  -7 10.5595 2.92902   2
   0   3  -7 11.3758 2.27547   1
   0  -3   7 8.19396 2.16612   1
  -1   3  -7 22.4790 3.92668   2
  -1   3  -7 21.4068 3.19460   1
   1  -3   7 18.9615 3.20415   1
  -2   3  -7 265.691 15.3615   1
  -2   3  -7 264.625 15.8603   2
   2  -3   7 265.541 15.5063   1
  -3   3  -7 76.8340 6.76634   2
  -3   3  -7 73.2017 6.37414   1
   3  -3   7 73.4319 6.50153   1
   3  -3   7 82.0963 6.53942   3
  -4   3  -7 143.719 9.97640   1
  -4   3  -7 143.209 10.2441   2
   4  -3   7 145.766 10.2430   3
   4  -3   7 149.932 10.0957   1
  -5   3  -7 18.5563 3.53688   1
   5  -3   7 14.4700 3.91287   3
   5  -3   7 12.4199 3.18921   1
  -6   3  -7 155.592 10.9102   1
   6  -3   7 162.343 11.0996   1
   6  -3   7 145.971 11.2962   3
  -7   3  -7 233.808 15.6850   1
   7  -3   7 273.126 16.2339   1
   7  -3   7 248.876 16.6628   3
  -8   3  -7 72.6713 7.69690   1
   8  -3   7 64.4205 8.24881   3
   8   2  -7 5.61055 3.25873   2
   7   2  -7 5.72799 3.20615   2
   6   2  -7 22.0165 4.51853   2
  -6  -2   7 24.0000 1.73036   1
   5   2  -7 8.13949 3.12971   2
  -5  -2   7 6.45605 1.26385   1
   4   2  -7 3.23363 2.41528   2
  -4  -2   7 4.30677 1.29771   1
   3   2  -7 17.2763 3.60660   2
  -3  -2   7 18.4544 2.48567   1
   2   2  -7 84.7462 5.60579   1
   2   2  -7 84.4862 6.74228   2
  -2  -2   7 89.0136 5.88668   1
   1   2  -7 441.571 22.6851   2
   1   2  -7 387.233 21.1340   1
  -1  -2   7 416.808 21.2911   1
  -1  -2   7 385.979 21.3821   1
   0   2  -7 -0.5815 1.28654   2
   0   2  -7 2.48911 1.60516   1
   0  -2   7 1.71817 1.55399   1
  -1   2  -7 11.2627 2.51591   2
  -1   2  -7 12.9734 2.58408   1
   1  -2   7 9.31292 2.33716   1
  -2   2  -7 368.511 20.2024   1
  -2   2  -7 366.310 20.6333   2
   2  -2   7 386.836 19.9045   3
   2  -2   7 358.969 20.2367   1
  -3   2  -7 0.11709 1.82776   2
  -3   2  -7 0.72351 1.58611   1
   3  -2   7 -1.4395 1.30870   3
   3  -2   7 -3.4186 1.28820   1
  -4   2  -7 34.0347 4.45223   1
  -4   2  -7 41.9113 5.07914   2
   4  -2   7 35.8679 4.59871   1
   4  -2   7 42.8682 4.86405   3
  -5   2  -7 64.5299 5.91256   1
   5  -2   7 65.5726 6.09158   1
   5  -2   7 58.4697 6.16583   3
  -6   2  -7 37.0810 5.08693   1
   6  -2   7 38.4261 5.49150   3
   6  -2   7 38.7183 5.12252   1
  -7   2  -7 2.87122 2.27244   1
   7  -2   7 -2.3329 1.80225   1
   7  -2   7 0.75562 2.87481   3
  -8   2  -7 9.83912 3.14178   1
   8  -2   7 8.18531 3.70421   3
  -9   2  -7 -1.6448 1.77345   1
   9  -2   7 -1.1343 2.94914   3
   8   1  -7 78.2594 7.34666   2
   7   1  -7 41.4066 5.75844   2
   6   1  -7 22.1764 4.37866   2
  -6  -1   7 19.8790 1.57232   1
   5   1  -7 25.4013 4.31966   2
  -5  -1   7 29.8842 2.42581   1
   4   1  -7 178.198 11.9735   2
  -4  -1   7 191.669 10.1823   1
   3   1  -7 284.615 16.7129   2
  -3  -1   7 307.890 15.4034   1
  -3  -1   7 275.271 15.1023   1
   2   1  -7 115.788 7.21385   1
   2   1  -7 130.291 8.80341   2
  -2  -1   7 119.230 7.37359   1
  -2  -1   7 132.743 7.66853   1
  -2  -1   7 127.612 7.50051   3
   1   1  -7 1.66325 1.55854   2
   1   1  -7 3.73342 1.30791   1
  -1  -1   7 2.91157 1.16290   3
  -1  -1   7 1.91471 1.43769   1
  -1  -1   7 2.22934 1.23451   1
   0   1  -7 141.427 8.75848   1
   0   1  -7 159.338 9.82480   2
   0  -1   7 141.789 8.95698   1
  -1   1  -7 275.580 16.2389   2
  -1   1  -7 302.335 16.0338   1
   1  -1   7 291.872 16.0555   1
  -2   1  -7 4.65071 1.73592   2
  -2   1  -7 3.62443 1.77551   1
   2  -1   7 3.59711 1.41707   3
   2  -1   7 3.59410 1.73038   1
  -3   1  -7 1.41430 1.57640   1
  -3   1  -7 -0.8799 1.43346   2
   3  -1   7 -0.4302 1.37092   3
   3  -1   7 1.95314 1.68977   1
  -4   1  -7 15.9481 3.05828   1
  -4   1  -7 12.4268 2.88324   2
   4  -1   7 9.58626 2.42895   3
   4  -1   7 14.9561 2.87069   1
  -5   1  -7 468.930 24.7750   1
   5  -1   7 451.662 24.7154   3
   5  -1   7 437.926 24.6115   1
  -6   1  -7 427.068 23.9253   1
   6  -1   7 449.756 24.1136   1
   6  -1   7 422.480 24.1718   3
  -7   1  -7 316.027 18.8823   1
   7  -1   7 344.113 19.0915   1
   7  -1   7 310.817 19.5690   3
  -8   1  -7 17.6597 3.81859   1
   8  -1   7 15.1631 4.58551   3
  -9   1  -7 -1.6243 2.02147   1
   9  -1   7 -5.0530 2.11590   3
   7   0  -7 169.656 11.7476   2
   6   0  -7 60.8283 6.73178   2
  -6   0   7 64.4072 3.74016   1
   5   0  -7 143.944 10.1072   2
  -5   0   7 141.645 7.77842   1
   4   0  -7 209.747 13.1883   2
  -4   0   7 214.875 11.4153   1
  -4   0   7 214.946 11.4191   1
   3   0  -7 610.659 33.8955   2
   3   0  -7 674.466 32.3813   1
  -3   0   7 657.491 32.6991   1
  -3   0   7 636.258 32.6395   1
  -3   0   7 680.918 32.9651   3
   2   0  -7 1081.74 54.8030   1
   2   0  -7 1192.81 56.3465   2
  -2   0   7 1100.45 55.0193   1
  -2   0   7 1071.34 55.0728   1
  -2   0   7 1142.31 54.7130   3
   1   0  -7 793.849 38.2850   1
   1   0  -7 721.493 39.0205   2
  -1   0   7 717.502 38.3279   1
  -1   0   7 816.978 38.4280   1
  -1   0   7 775.576 37.4721   3
   0   0  -7 511.495 27.3608   1
   0   0  -7 546.406 28.1020   2
   0   0   7 562.737 27.6579   1
   0   0   7 539.336 26.2611   3
   0   0   7 518.189 27.8053   1
  -1   0  -7 31.2786 3.88334   2
  -1   0  -7 36.6483 3.75556   1
   1   0   7 34.8452 2.51143   3
   1   0   7 32.5909 3.68117   1
  -2   0  -7 124.700 8.11381   2
  -2   0  -7 125.479 7.98252   1
   2   0   7 131.279 7.21273   3
   2   0   7 106.559 7.87986   1
  -3   0  -7 410.668 22.1344   2
  -3   0  -7 419.096 22.1482   1
   3   0   7 405.982 21.5074   3
   3   0   7 418.082 22.2784   1
  -4   0  -7 421.240 21.1907   2
  -4   0  -7 362.793 21.0373   1
   4   0   7 368.400 21.1321   1
   4   0   7 393.940 20.8533   3
  -5   0  -7 331.779 18.5285   2
  -5   0  -7 327.462 18.7638   1
   5   0   7 353.815 18.9417   1
   5   0   7 323.728 18.7214   3
  -6   0  -7 30.2029 4.46464   1
   6   0   7 36.4179 4.95874   3
   6   0   7 33.1769 4.31059   1
  -7   0  -7 366.927 21.0846   1
   7   0   7 391.347 21.1696   1
   7   0   7 360.728 21.6808   3
  -8   0  -7 262.255 16.0647   1
   8   0   7 267.078 17.1239   3
  -9   0  -7 153.219 10.8828   1
   9   0   7 151.152 12.2352   3
 -10   0  -7 12.5036 3.38931   1
  10   0   7 9.70437 4.25109   3
  10  -1  -7 186.216 14.0197   3
   9  -1  -7 166.871 12.3500   3
   8  -1  -7 123.946 9.66447   3
   7  -1  -7 19.7919 3.69304   3
  -7   1   7 19.9722 1.72701   1
   6  -1  -7 143.457 9.90014   2
   6  -1  -7 127.665 8.88987   3
  -6   1   7 128.390 7.09753   1
   5  -1  -7 358.889 20.4497   2
   5  -1  -7 362.031 19.5151   3
  -5   1   7 361.580 18.3202   1
   4  -1  -7 267.168 14.0028   1
   4  -1  -7 277.632 16.0404   2
  -4   1   7 273.971 14.2655   1
  -4   1   7 273.264 14.2996   1
   3  -1  -7 101.874 7.10587   2
  -3   1   7 88.8649 5.55871   3
  -3   1   7 94.1038 5.69187   1
  -3   1   7 81.5302 5.54798   1
   2  -1  -7 98.7257 6.01757   1
   2  -1  -7 107.963 7.12725   2
  -2   1   7 104.806 6.26825   1
  -2   1   7 97.1355 5.51318   3
  -2   1   7 99.9808 6.28849   1
   1  -1  -7 347.554 17.1813   1
   1  -1  -7 333.147 17.9231   2
  -1   1   7 311.073 17.2193   1
  -1   1   7 315.054 17.2016   1
   0  -1  -7 829.464 42.8183   2
   0  -1  -7 848.997 42.3902   1
   0   1   7 876.811 42.6507   1
   0   1   7 843.187 42.9823   1
  -1  -1  -7 335.327 17.4876   1
  -1  -1  -7 301.512 17.4887   2
   1   1   7 340.902 17.6901   1
  -2  -1  -7 77.2240 5.59289   2
  -2  -1  -7 80.3680 5.74833   1
   2   1   7 82.4732 4.68294   3
   2   1   7 67.4510 5.56668   1
  -3  -1  -7 1.66853 1.29927   2
  -3  -1  -7 -0.3404 1.27311   1
   3   1   7 0.47043 1.29910   1
   3   1   7 2.34486 1.17180   3
  -4  -1  -7 305.006 16.6292   1
  -4  -1  -7 280.086 16.1426   2
   4   1   7 309.796 16.2934   3
   4   1   7 284.673 16.5091   1
  -5  -1  -7 332.171 19.3425   1
  -5  -1  -7 359.110 19.0363   2
   5   1   7 351.781 19.4143   1
   5   1   7 353.655 19.4317   3
  -6  -1  -7 356.012 20.7357   1
   6   1   7 400.509 21.2554   3
   6   1   7 362.497 20.6963   1
  -7  -1  -7 154.465 11.0995   1
   7   1   7 178.891 11.9586   3
   7   1   7 188.684 11.4585   1
  -8  -1  -7 39.8548 5.14613   1
   8   1   7 31.8385 4.28224   4
   8   1   7 37.7819 5.74170   3
  -9  -1  -7 86.7814 7.50465   1
   9   1   7 86.6529 8.53405   3
 -10  -1  -7 82.1433 7.44734   1
  10  -2  -7 12.5818 4.28982   3
   9  -2  -7 15.3997 4.35337   3
   8  -2  -7 90.0938 8.38147   3
  -8   2   7 96.3769 5.43500   1
   7  -2  -7 3.19848 1.87758   3
  -7   2   7 0.14369 0.79417   1
   6  -2  -7 3.83807 1.90705   3
  -6   2   7 7.64476 1.31992   1
   5  -2  -7 0.01466 1.44122   3
   5  -2  -7 0.57725 1.62945   2
  -5   2   7 1.09992 0.92040   1
   4  -2  -7 28.3042 2.21535   1
   4  -2  -7 25.7774 2.99751   3
   4  -2  -7 31.4016 4.22202   2
  -4   2   7 25.4689 2.62811   1
  -4   2   7 31.0500 2.67081   1
   3  -2  -7 133.465 7.52415   3
   3  -2  -7 141.455 7.49613   1
   3  -2  -7 137.850 8.94805   2
  -3   2   7 127.397 7.68576   1
  -3   2   7 124.922 7.68969   1
   2  -2  -7 329.021 18.1801   2
   2  -2  -7 331.289 17.1206   1
  -2   2   7 327.594 17.3215   1
  -2   2   7 335.504 17.3818   1
   1  -2  -7 235.536 12.9357   1
   1  -2  -7 241.888 13.6478   2
  -1   2   7 229.460 13.1023   1
  -1   2   7 260.299 13.3236   1
   0  -2  -7 594.730 30.7418   2
   0  -2  -7 611.316 30.4809   1
   0   2   7 597.837 30.5910   1
  -1  -2  -7 36.2576 3.34048   2
  -1  -2  -7 31.7793 3.51091   1
   1   2   7 34.8928 3.67703   1
  -2  -2  -7 82.1113 5.87679   1
  -2  -2  -7 87.4282 5.79447   2
   2   2   7 78.6880 5.89728   1
  -3  -2  -7 20.1418 2.97753   1
  -3  -2  -7 26.2013 3.01199   2
   3   2   7 25.0723 3.31442   1
   3   2   7 22.4304 2.31298   3
  -4  -2  -7 2.84510 1.78677   1
  -4  -2  -7 -1.7312 1.08164   2
   4   2   7 1.15910 1.45318   1
   4   2   7 0.37807 1.21144   3
  -5  -2  -7 12.8931 2.39698   2
  -5  -2  -7 14.7700 2.90888   1
   5   2   7 10.3615 2.46505   3
   5   2   7 11.1632 2.56406   1
  -6  -2  -7 183.888 11.9315   1
  -6  -2  -7 207.252 11.3988   2
   6   2   7 191.263 12.2351   3
   6   2   7 183.919 11.8256   1
  -7  -2  -7 381.265 21.9040   1
   7   2   7 395.038 21.8389   1
   7   2   7 408.165 22.6350   3
  -8  -2  -7 64.2373 6.62502   1
   8   2   7 72.4836 6.13929   4
   8   2   7 53.4184 6.79811   3
  -9  -2  -7 29.4737 4.49393   1
   9   2   7 19.7364 4.63727   3
   9   2   7 26.6712 4.11442   4
 -10  -2  -7 12.1646 3.24422   1
  10   2   7 9.50452 3.80982   3
  10  -3  -7 119.317 10.6640   3
   9  -3  -7 100.564 9.27191   3
   8  -3  -7 43.4263 6.06220   3
  -8   3   7 47.6997 3.57466   1
   7  -3  -7 3.04061 2.34825   3
  -7   3   7 8.47355 1.54135   1
   6  -3  -7 163.013 10.8090   3
  -6   3   7 167.434 9.19902   1
   5  -3  -7 3.24420 1.78851   3
  -5   3   7 2.06094 1.04366   1
   4  -3  -7 -0.9361 1.17856   3
   4  -3  -7 0.53598 1.71768   2
   4  -3  -7 0.93116 0.87902   1
  -4   3   7 0.35256 0.97951   1
  -4   3   7 1.59182 0.96415   1
   3  -3  -7 8.82479 1.65604   3
   3  -3  -7 11.3182 2.54306   2
   3  -3  -7 10.6923 1.68123   1
  -3   3   7 9.54603 1.80066   1
  -3   3   7 12.6911 2.00827   1
   2  -3  -7 166.669 8.58531   3
   2  -3  -7 148.181 9.79690   2
   2  -3  -7 162.960 9.17889   1
  -2   3   7 166.774 9.43321   1
  -2   3   7 174.350 9.55778   1
   1  -3  -7 1045.09 53.6286   2
   1  -3  -7 1078.00 53.1368   1
  -1   3   7 1110.63 53.4275   1
  -1   3   7 1075.43 53.3173   1
   0  -3  -7 958.414 49.8994   2
   0  -3  -7 986.797 49.7511   1
   0   3   7 1071.98 50.0590   1
  -1  -3  -7 585.834 29.8239   1
  -1  -3  -7 556.585 29.5313   2
   1   3   7 611.638 29.9618   1
  -2  -3  -7 136.826 7.19926   3
  -2  -3  -7 134.112 8.31340   1
  -2  -3  -7 138.695 7.91001   2
   2   3   7 119.423 8.21599   1
  -3  -3  -7 83.1977 6.20564   1
  -3  -3  -7 104.710 5.83145   3
  -3  -3  -7 83.7982 5.78483   2
   3   3   7 85.1052 6.30193   1
  -4  -3  -7 141.918 9.29193   1
  -4  -3  -7 152.886 8.72826   2
   4   3   7 159.199 9.07210   3
   4   3   7 144.163 9.38163   1
  -5  -3  -7 145.431 9.59919   1
  -5  -3  -7 154.616 8.89251   2
   5   3   7 151.588 9.58841   3
   5   3   7 152.357 9.65512   1
  -6  -3  -7 399.506 21.5694   1
   6   3   7 391.198 21.4133   1
   6   3   7 384.461 21.6786   3
  -7  -3  -7 156.577 10.0754   1
   7   3   7 137.245 9.94107   4
   7   3   7 142.141 10.3347   3
   7   3   7 164.694 10.0412   1
  -8  -3  -7 197.397 12.4346   1
   8   3   7 177.609 13.0970   3
   8   3   7 207.273 12.7501   4
  -9  -3  -7 490.617 25.3427   1
   9   3   7 442.450 25.2191   4
   9   3   7 432.602 26.1777   3
 -10  -3  -7 32.5831 4.83538   1
  10   3   7 30.1427 5.52020   3
  10  -4  -7 9.92884 4.32580   3
 -10   4   7 14.3609 2.18688   1
   9  -4  -7 275.231 18.0444   3
   8  -4  -7 274.186 17.7173   3
  -8   4   7 286.871 15.1018   1
   7  -4  -7 310.385 18.9317   3
  -7   4   7 323.505 16.7754   1
   6  -4  -7 83.5781 6.74851   3
  -6   4   7 76.9688 5.28113   1
   5  -4  -7 150.328 9.47626   3
  -5   4   7 137.126 8.25136   1
   4  -4  -7 628.855 32.0466   3
   4  -4  -7 615.806 31.1006   1
  -4   4   7 582.439 31.5672   1
  -4   4   7 664.311 31.4530   1
   3  -4  -7 578.997 28.6633   1
   3  -4  -7 556.337 28.8949   3
   3  -4  -7 598.052 29.9057   2
  -3   4   7 551.637 28.8726   1
  -3   4   7 569.808 28.9931   1
   2  -4  -7 150.618 8.27102   3
   2  -4  -7 140.898 8.44935   1
   2  -4  -7 144.469 9.19547   2
  -2   4   7 156.372 8.79838   1
  -2   4   7 152.384 8.81590   1
   1  -4  -7 903.363 40.5449   1
   1  -4  -7 814.416 39.4948   3
   1  -4  -7 735.262 40.5656   2
  -1   4   7 785.128 40.4911   1
   0  -4  -7 1060.17 49.8750   1
   0  -4  -7 945.315 49.7176   2
   0  -4  -7 1040.06 48.5768   3
   0   4   7 961.540 49.8350   1
  -1  -4  -7 1439.98 72.0946   2
  -1  -4  -7 1441.78 72.3984   1
  -1  -4  -7 1504.08 71.3576   3
   1   4   7 1502.44 72.5869   1
  -2  -4  -7 385.745 20.5072   2
  -2  -4  -7 404.849 21.1772   1
  -2  -4  -7 411.238 20.3980   3
   2   4   7 403.610 21.2550   1
  -3  -4  -7 503.257 27.8758   3
  -3  -4  -7 562.987 27.1371   2
  -3  -4  -7 561.876 28.1135   1
   3   4   7 530.235 27.9711   1
  -4  -4  -7 323.491 17.6965   1
  -4  -4  -7 339.069 16.7225   2
   4   4   7 298.926 17.5543   1
  -5  -4  -7 482.051 24.7870   2
  -5  -4  -7 457.020 25.8341   1
   5   4   7 541.231 26.1979   1
  -6  -4  -7 636.040 35.0926   1
   6   4   7 641.963 35.3739   3
   6   4   7 768.598 35.4803   1
  -7  -4  -7 33.2088 4.24943   1
   7   4   7 31.5079 4.74042   3
   7   4   7 35.1207 4.79814   4
   7   4   7 27.8780 3.90325   1
  -8  -4  -7 380.471 22.5971   1
   8   4   7 410.937 23.2981   4
   8   4   7 447.848 24.1471   3
  -9  -4  -7 118.989 8.58960   1
   9   4   7 103.973 8.70644   4
   9   4   7 113.194 9.86009   3
 -10  -4  -7 220.815 14.0463   1
  10  -5  -7 65.2856 8.86415   3
 -10   5   7 75.1957 5.62391   1
   9  -5  -7 23.4833 5.17133   3
   8  -5  -7 2.72678 2.85993   3
  -8   5   7 2.93703 1.65106   1
   7  -5  -7 281.197 18.1752   3
  -7   5   7 317.501 16.3271   1
   6  -5  -7 305.293 17.6895   3
  -6   5   7 292.140 15.9908   1
   5  -5  -7 231.719 14.4179   3
  -5   5   7 258.310 13.5182   1
   4  -5  -7 96.7288 6.19403   1
   4  -5  -7 98.2495 7.03429   3
  -4   5   7 102.970 6.46631   1
   3  -5  -7 9.68102 2.07419   3
   3  -5  -7 10.4524 2.02658   1
  -3   5   7 9.73134 1.98767   1
  -3   5   7 10.0392 1.99576   1
   2  -5  -7 263.578 13.7435   3
   2  -5  -7 238.362 13.6522   1
  -2   5   7 261.426 13.9904   1
   1  -5  -7 441.717 23.1951   1
   1  -5  -7 465.592 23.4714   2
  -1   5   7 442.507 23.3447   1
   0  -5  -7 741.824 36.7223   2
   0  -5  -7 739.288 36.9052   1
   0   5   7 714.766 36.9890   1
  -1  -5  -7 192.524 10.7795   1
  -1  -5  -7 180.246 10.1880   2
  -1  -5  -7 192.274 10.1272   3
   1   5   7 175.901 10.7590   1
  -2  -5  -7 262.549 14.0020   3
  -2  -5  -7 261.614 13.6367   2
  -2  -5  -7 256.753 14.4141   1
   2   5   7 259.216 14.5055   1
  -3  -5  -7 105.398 7.04648   1
  -3  -5  -7 104.556 6.00834   2
   3   5   7 105.905 7.11277   1
  -4  -5  -7 54.9291 4.92433   1
  -4  -5  -7 60.2873 3.80190   2
   4   5   7 73.1753 5.30161   1
  -5  -5  -7 247.985 13.1042   2
  -5  -5  -7 254.092 14.5730   1
   5   5   7 260.402 14.5817   1
  -6  -5  -7 113.155 7.67179   1
   6   5   7 92.3311 7.19971   1
   6   5   7 107.437 8.18636   4
  -7  -5  -7 145.904 9.65417   1
   7   5   7 139.463 10.0835   4
  -8  -5  -7 578.426 30.8197   1
  -9  -5  -7 98.1639 7.82413   1
 -10  -5  -7 68.7838 7.14168   1
   9  -6  -7 135.147 11.2435   3
  -9   6   7 128.204 8.61965   1
   8  -6  -7 99.7597 9.33651   3
  -8   6   7 105.025 7.20727   1
   7  -6  -7 -3.8181 2.03997   3
  -7   6   7 0.24152 1.41843   1
   6  -6  -7 -4.7909 1.85145   3
  -6   6   7 0.84518 1.40257   1
   5  -6  -7 79.2793 6.73587   3
  -5   6   7 88.2978 5.98649   1
   4  -6  -7 130.856 8.02032   1
   4  -6  -7 131.604 8.82539   3
  -4   6   7 137.724 8.29883   1
   3  -6  -7 103.728 6.95278   3
   3  -6  -7 100.128 6.47021   1
  -3   6   7 94.3749 6.53076   1
   2  -6  -7 18.2971 2.60044   3
   2  -6  -7 20.7487 2.68079   1
  -2   6   7 17.9591 2.66147   1
   1  -6  -7 165.706 9.76344   1
  -1   6   7 165.184 9.83021   1
   0  -6  -7 753.121 38.2043   1
   0   6   7 762.585 38.3444   1
  -1  -6  -7 170.764 10.3231   1
   1   6   7 181.481 10.4550   1
  -2  -6  -7 0.79280 1.27017   1
   2   6   7 -0.5898 1.06805   1
  -3  -6  -7 99.4818 6.88748   1
   3   6   7 102.313 6.95577   1
  -4  -6  -7 -0.2951 1.39814   1
   4   6   7 2.92041 1.61619   1
  -5  -6  -7 -0.2833 1.53863   1
   5   6   7 1.28914 1.53145   1
   5   6   7 -0.0102 1.63052   4
  -6  -6  -7 193.804 11.9238   1
   6   6   7 210.343 12.0193   1
   6   6   7 182.908 12.6376   4
  -7  -6  -7 28.2414 3.90339   1
   7   6   7 23.1507 4.51141   4
  -8  -6  -7 40.0682 4.99152   1
   8   6   7 47.2708 6.26507   4
  -9  -6  -7 206.618 12.9544   1
 -10  -6  -7 33.5996 4.78527   1
   9  -7  -7 36.8216 6.48014   3
  -9   7   7 35.4340 4.29565   1
   8  -7  -7 118.315 10.4468   3
  -8   7   7 116.148 8.17868   1
  -7   7   7 379.086 20.5520   1
   6  -7  -7 154.897 11.2765   3
  -6   7   7 162.409 10.0237   1
   5  -7  -7 86.0357 7.21973   3
  -5   7   7 90.2366 6.48215   1
   4  -7  -7 54.7424 4.47280   1
   4  -7  -7 50.2209 5.14810   3
  -4   7   7 48.5130 4.51934   1
   3  -7  -7 -0.7095 1.36146   3
   3  -7  -7 0.46841 1.38442   1
  -3   7   7 0.12122 1.31798   1
   2  -7  -7 40.3555 3.94885   1
  -2   7   7 32.1887 3.74328   1
   1  -7  -7 201.178 11.4471   1
  -1   7   7 193.892 11.4765   1
   0  -7  -7 29.2953 3.43511   1
   0   7   7 30.7754 3.52403   1
  -1  -7  -7 367.983 18.1825   1
   1   7   7 314.312 18.0183   1
   1   7   7 322.474 17.5452   2
  -2  -7  -7 177.658 10.6180   1
   2   7   7 175.137 10.6066   1
  -3  -7  -7 160.950 9.23685   1
   3   7   7 124.970 8.75939   1
  -4  -7  -7 53.7612 4.74670   1
   4   7   7 46.7843 5.71034   4
   4   7   7 52.0769 4.59226   1
  -5  -7  -7 0.04004 1.59237   1
   5   7   7 -1.6592 1.64557   4
   5   7   7 -1.9329 1.09026   1
  -6  -7  -7 0.03443 1.58301   1
   6   7   7 0.42005 2.30271   4
  -7  -7  -7 109.753 8.04984   1
   7   7   7 111.776 9.13877   4
  -8  -7  -7 66.8142 6.04498   1
  -9  -7  -7 71.9591 6.45894   1
   8  -8  -7 53.9615 7.74631   3
  -8   8   7 44.6137 5.12373   1
   7  -8  -7 164.891 12.1743   3
  -7   8   7 146.654 9.93342   1
   6  -8  -7 399.550 23.9560   3
  -6   8   7 421.627 22.3665   1
   5  -8  -7 987.326 51.7594   3
  -5   8   7 1008.80 50.3948   1
   4  -8  -7 142.987 10.3075   3
   4  -8  -7 159.297 9.57715   1
  -4   8   7 157.942 9.81973   1
   3  -8  -7 81.9208 5.97369   1
  -3   8   7 72.0102 5.98475   1
   2  -8  -7 128.868 8.23428   1
  -2   8   7 120.502 8.15531   1
   1  -8  -7 697.279 35.2273   1
  -1   8   7 679.294 35.2923   1
   0  -8  -7 518.327 26.2427   1
   0   8   7 481.787 26.1207   1
  -1  -8  -7 393.783 20.2188   1
   1   8   7 352.562 20.0610   1
  -2  -8  -7 101.189 6.73129   1
   2   8   7 95.5141 7.48716   4
   2   8   7 78.1096 6.31677   1
  -3  -8  -7 564.556 29.8887   1
   3   8   7 570.485 29.9154   1
   3   8   7 590.880 30.9724   4
  -4  -8  -7 675.385 33.3208   1
   4   8   7 657.165 33.1969   1
   4   8   7 585.266 34.0111   4
  -5  -8  -7 74.4982 5.97924   1
   5   8   7 71.3417 6.83146   4
   5   8   7 63.6503 5.56576   1
  -6  -8  -7 19.8756 3.49156   1
   6   8   7 17.0917 4.17961   4
  -7  -8  -7 30.8739 4.28724   1
  -8  -8  -7 248.898 14.9697   1
  -9  -8  -7 251.808 15.2899   1
   8  -9  -7 95.1973 9.55597   3
  -8   9   7 93.3211 7.67320   1
   7  -9  -7 113.004 10.3406   3
  -7   9   7 121.106 8.63541   1
   6  -9  -7 250.467 17.4045   3
  -6   9   7 296.939 16.2511   1
   5  -9  -7 85.8029 8.30581   3
  -5   9   7 100.601 7.41977   1
   4  -9  -7 138.247 10.3458   3
  -4   9   7 147.683 9.59467   1
   3  -9  -7 106.967 7.62179   1
  -3   9   7 107.698 7.75473   1
   2  -9  -7 105.716 7.51312   1
  -2   9   7 105.341 7.66731   1
   1  -9  -7 1.57836 2.05576   1
  -1   9   7 7.15222 2.22148   1
   0  -9  -7 316.971 17.3498   1
   0   9   7 311.272 17.8401   4
   0   9   7 300.214 17.3237   1
  -1  -9  -7 568.692 29.0730   1
   1   9   7 547.608 29.0343   1
   1   9   7 548.137 29.7042   4
  -2  -9  -7 485.993 25.9469   1
   2   9   7 504.677 26.0519   1
   2   9   7 482.770 26.8714   4
  -3  -9  -7 219.028 13.8268   1
   3   9   7 247.755 13.9309   1
   3   9   7 247.140 15.0560   4
  -4  -9  -7 18.8422 3.27341   1
   4   9   7 10.4816 2.53600   1
   4   9   7 15.4740 3.55971   4
  -5  -9  -7 98.3701 7.38805   1
   5   9   7 101.528 8.81132   4
  -6  -9  -7 113.089 8.18501   1
  -7  -9  -7 132.051 9.23865   1
  -8  -9  -7 65.4283 6.57013   1
   7 -10  -7 28.1494 5.81701   3
  -7  10   7 31.6278 4.55547   1
   6 -10  -7 107.484 9.93322   3
  -6  10   7 117.670 8.69106   1
   5 -10  -7 20.2276 4.37382   3
  -5  10   7 18.8245 3.73183   1
   4 -10  -7 0.57335 2.19074   3
  -4  10   7 -0.9385 1.87980   1
   3 -10  -7 -0.8039 1.84982   1
  -3  10   7 1.02219 1.88941   1
  -3  10   7 1.32999 1.56699   4
   2 -10  -7 25.3353 3.88857   1
  -2  10   7 22.1234 3.66269   1
  -2  10   7 27.0616 3.95552   4
   1 -10  -7 4.68254 2.23186   1
  -1  10   7 6.73991 2.41692   1
  -1  10   7 3.36506 2.14111   4
   0 -10  -7 50.6243 5.53066   1
   0  10   7 59.7737 5.33941   1
   0  10   7 62.1121 5.76903   4
  -1 -10  -7 -2.8029 1.53415   1
   1  10   7 -0.0632 1.65994   1
   1  10   7 2.88367 2.25549   4
  -2 -10  -7 250.139 13.8769   1
   2  10   7 227.472 13.6408   1
   2  10   7 214.754 14.3348   4
  -3 -10  -7 261.608 15.3681   1
   3  10   7 255.250 16.3976   4
   3  10   7 277.851 15.4552   1
  -4 -10  -7 76.5404 6.39768   1
   4  10   7 76.9771 7.61683   4
  -5 -10  -7 5.88450 2.56521   1
  -6 -10  -7 56.8916 5.92448   1
  -7 -10  -7 18.0233 3.39692   1
   6 -11  -7 51.7423 7.58614   3
  -6  11   7 66.0815 6.82693   1
   5 -11  -7 68.4625 8.23394   3
  -5  11   7 65.4123 6.83415   1
  -4  11   7 27.6791 4.42544   1
   3 -11  -7 0.86015 2.36053   1
  -3  11   7 -2.2719 1.77605   1
   2 -11  -7 11.7842 3.31125   1
  -2  11   7 10.2789 2.77531   4
  -2  11   7 13.6942 3.32471   1
   1 -11  -7 35.0566 4.64866   1
  -1  11   7 27.3498 4.34984   4
  -1  11   7 21.1736 3.90010   1
   0 -11  -7 164.934 10.7654   1
   0  11   7 161.220 10.7318   1
   0  11   7 161.780 11.1045   4
  -1 -11  -7 105.316 8.10327   1
   1  11   7 118.301 9.01276   4
   1  11   7 98.2785 7.80793   1
  -2 -11  -7 127.211 8.96039   1
   2  11   7 117.377 8.61132   1
   2  11   7 128.495 9.79969   4
  -3 -11  -7 42.7241 5.01685   1
   3  11   7 31.6302 4.72499   1
  -4 -11  -7 378.985 21.1227   1
  -5 -11  -7 169.651 11.1223   1
  -6 -11  -7 78.4208 6.74060   1
   5 -12  -7 111.224 10.3111   3
  -5  12   7 114.368 9.11500   1
  -4  12   7 246.457 15.4662   1
   3 -12  -7 152.826 11.1451   1
  -3  12   7 172.096 11.4086   1
   2 -12  -7 84.5628 7.28545   1
  -2  12   7 84.8228 7.37459   1
   1 -12  -7 71.0471 7.12243   1
  -1  12   7 76.9810 6.80864   1
   0 -12  -7 43.7465 5.38129   1
   0  12   7 38.3567 5.08973   1
  -1 -12  -7 306.280 18.4187   1
   1  12   7 334.750 18.6770   1
  -2 -12  -7 481.517 25.4803   1
   2  12   7 443.676 25.6541   1
  -3 -12  -7 580.235 31.0795   1
  -4 -12  -7 259.952 15.7256   1
  -5 -12  -7 37.8840 5.12526   1
  -3  13   7 20.9973 4.26443   1
   2 -13  -7 48.1522 6.07319   1
  -2  13   7 54.4654 6.51653   1
   1 -13  -7 92.1954 7.97408   1
  -1  13   7 86.9483 7.85908   1
   0 -13  -7 36.0611 5.28721   1
   0  13   7 28.3735 4.61738   1
  -1 -13  -7 32.8989 4.97357   1
  -2 -13  -7 64.8574 6.84556   1
  -3 -13  -7 460.573 25.5225   1
   3   7  -8 112.752 9.75515   2
  -3  -7   8 87.3508 7.36153   1
   2   7  -8 7.73175 3.30759   2
  -2  -7   8 4.94799 2.49444   1
   1   7  -8 17.1463 4.47951   2
  -1  -7   8 4.90835 2.49459   1
   0   7  -8 5.59573 3.54644   2
   0  -7   8 5.32158 2.77980   1
  -1   7  -8 175.075 13.2838   2
   1  -7   8 185.459 12.6754   1
  -2   7  -8 97.3544 9.39087   2
   2  -7   8 91.1353 8.51298   1
  -3   7  -8 12.2347 4.37131   2
   3  -7   8 14.9236 4.08040   1
   5   6  -8 145.945 11.3359   2
  -5  -6   8 122.402 8.25894   1
   4   6  -8 13.5184 4.28769   2
  -4  -6   8 13.6176 2.80349   1
   3   6  -8 17.4978 4.39674   2
  -3  -6   8 14.2473 2.99435   1
   2   6  -8 106.407 9.05285   2
  -2  -6   8 89.7089 7.44299   1
   1   6  -8 224.925 14.6730   2
  -1  -6   8 193.069 12.9492   1
   0   6  -8 56.5035 7.10899   2
   0  -6   8 47.3196 5.61305   1
  -1   6  -8 299.165 19.5591   2
   1  -6   8 350.017 19.3586   1
  -2   6  -8 219.811 15.2315   2
   2  -6   8 243.163 15.0296   1
  -3   6  -8 239.087 16.4039   2
   3  -6   8 257.026 16.1039   1
  -4   6  -8 96.8205 8.77847   2
   4  -6   8 67.4392 7.70996   1
  -5   6  -8 -0.2882 2.57134   2
   5  -6   8 -1.3967 2.70977   1
   6   5  -8 194.827 14.2126   2
   5   5  -8 169.184 12.7663   2
  -5  -5   8 174.065 10.1259   1
   4   5  -8 249.671 16.5417   2
  -4  -5   8 263.010 14.5061   1
   3   5  -8 71.4011 7.06895   2
  -3  -5   8 65.3552 5.72313   1
   2   5  -8 127.170 10.0339   2
  -2  -5   8 120.355 8.59613   1
   1   5  -8 28.7088 5.03622   2
  -1  -5   8 16.3505 3.47421   1
   0   5  -8 358.991 21.6926   2
   0  -5   8 366.701 20.5314   1
  -1   5  -8 561.620 32.2246   2
   1  -5   8 612.260 31.6331   1
  -2   5  -8 343.093 21.1344   2
   2  -5   8 363.552 20.6202   1
  -3   5  -8 217.241 14.5918   2
   3  -5   8 208.421 13.9180   1
  -4   5  -8 212.444 14.3623   1
  -4   5  -8 227.114 15.0035   2
   4  -5   8 213.307 16.4371   3
   4  -5   8 229.290 14.7186   1
  -5   5  -8 67.2917 7.72038   2
  -5   5  -8 47.8962 6.49198   1
   5  -5   8 49.8862 6.52205   1
  -6   5  -8 54.3910 6.98506   2
  -6   5  -8 45.3545 6.34685   1
   6  -5   8 37.7003 5.91260   1
   7   4  -8 91.9321 9.07415   2
   6   4  -8 269.013 16.3774   2
  -6  -4   8 220.479 12.2887   1
   5   4  -8 53.6383 6.92659   2
  -5  -4   8 45.1990 3.84239   1
   4   4  -8 31.3396 5.31914   2
  -4  -4   8 24.3898 3.15147   1
   3   4  -8 14.7805 4.16300   2
  -3  -4   8 19.6059 2.96009   1
   2   4  -8 161.216 11.7668   2
  -2  -4   8 173.381 10.6318   1
   1   4  -8 -1.5227 1.47806   2
  -1  -4   8 2.18753 1.97056   1
   0   4  -8 5.30190 2.77287   2
   0  -4   8 -0.4141 1.89980   1
  -1   4  -8 15.3768 3.39360   2
   1  -4   8 14.2665 3.15675   1
  -2   4  -8 148.493 10.7501   2
  -2   4  -8 129.201 10.7968   1
   2  -4   8 145.650 10.0967   1
  -3   4  -8 319.829 19.7757   2
  -3   4  -8 311.902 19.0924   1
   3  -4   8 344.130 19.4990   1
   3  -4   8 343.780 19.3591   3
  -4   4  -8 15.5387 3.58969   2
  -4   4  -8 12.4216 3.37186   1
   4  -4   8 15.4517 3.63354   1
   4  -4   8 13.0019 3.53746   3
  -5   4  -8 1.66087 2.32534   1
  -5   4  -8 4.52573 3.02718   2
   5  -4   8 0.63897 2.37164   1
   5  -4   8 2.86954 2.70690   3
  -6   4  -8 4.55066 2.83972   1
  -6   4  -8 13.0315 3.94559   2
   6  -4   8 16.3602 5.17159   3
   6  -4   8 21.0509 4.36086   1
  -7   4  -8 53.0988 6.82051   1
  -7   4  -8 61.0249 7.59110   2
   7  -4   8 56.8828 6.99687   1
   8   3  -8 -1.4921 1.93812   2
   7   3  -8 2.29814 2.93230   2
   6   3  -8 7.79522 3.66999   2
  -6  -3   8 4.17018 1.12596   1
   5   3  -8 67.0596 7.53116   2
  -5  -3   8 53.6592 4.17583   1
   4   3  -8 28.5720 4.95358   2
  -4  -3   8 23.0697 2.93343   1
   3   3  -8 82.6254 7.44736   2
  -3  -3   8 69.8095 5.59306   1
   2   3  -8 3.23798 2.51966   2
  -2  -3   8 3.93205 1.96087   1
   1   3  -8 43.5220 5.65410   2
  -1  -3   8 42.3772 4.55905   1
   0   3  -8 -0.8830 1.49926   2
   0  -3   8 2.14781 1.86224   1
  -1   3  -8 1.78357 1.85250   1
  -1   3  -8 -1.3788 1.96292   2
   1  -3   8 0.55107 1.95724   1
  -2   3  -8 70.0667 6.20969   1
  -2   3  -8 69.7779 6.52008   2
   2  -3   8 74.4241 6.13938   3
   2  -3   8 79.7558 6.64017   1
  -3   3  -8 122.305 9.62435   2
  -3   3  -8 136.370 9.27621   1
   3  -3   8 110.955 8.66924   3
   3  -3   8 147.624 9.65823   1
  -4   3  -8 15.2133 3.34772   1
  -4   3  -8 15.7991 3.68533   2
   4  -3   8 11.3186 3.21242   1
   4  -3   8 15.9733 3.40658   3
  -5   3  -8 1.43737 2.10642   1
  -5   3  -8 4.55233 2.73991   2
   5  -3   8 4.07928 2.58886   3
   5  -3   8 4.15132 2.64092   1
  -6   3  -8 10.4713 3.27731   1
  -6   3  -8 20.7868 3.92887   2
   6  -3   8 18.2264 4.49224   3
   6  -3   8 12.7092 3.71594   1
  -7   3  -8 7.80475 3.20822   1
   7  -3   8 1.22707 2.47870   1
   7  -3   8 3.95526 2.94749   3
  -8   3  -8 -2.8147 1.93316   1
   8   2  -8 26.9529 5.00493   2
   7   2  -8 218.806 14.9291   2
   6   2  -8 113.925 9.08507   2
  -6  -2   8 86.4249 5.21639   1
   5   2  -8 32.7022 5.26172   2
  -5  -2   8 35.9022 3.03894   1
   4   2  -8 51.5233 6.31688   2
  -4  -2   8 58.0064 4.37835   1
   3   2  -8 324.152 18.6807   2
  -3  -2   8 303.471 16.7832   1
   2   2  -8 11.2626 3.39408   2
  -2  -2   8 13.6709 2.44972   1
   1   2  -8 3.54151 2.50758   2
  -1  -2   8 4.36812 1.94567   1
   0   2  -8 7.86307 2.00568   1
   0   2  -8 10.3250 3.00768   2
   0  -2   8 8.17313 2.32571   1
  -1   2  -8 72.9931 6.46200   2
  -1   2  -8 93.1455 6.56885   1
   1  -2   8 79.8290 6.45290   1
  -2   2  -8 642.108 34.2762   2
  -2   2  -8 641.724 33.7763   1
   2  -2   8 618.349 33.8081   1
   2  -2   8 676.484 33.1839   3
  -3   2  -8 156.603 10.6411   2
  -3   2  -8 162.533 10.5150   1
   3  -2   8 150.424 10.4671   1
   3  -2   8 157.774 10.0189   3
  -4   2  -8 90.3120 7.44993   2
  -4   2  -8 85.2166 7.37302   1
   4  -2   8 97.7844 7.50972   3
   4  -2   8 111.781 8.01658   1
  -5   2  -8 55.1783 6.20387   2
  -5   2  -8 45.0427 5.70730   1
   5  -2   8 45.2814 5.64139   1
   5  -2   8 51.0697 5.91956   3
  -6   2  -8 147.478 10.5747   2
  -6   2  -8 146.577 10.6884   1
   6  -2   8 149.627 10.7785   3
   6  -2   8 147.829 10.7978   1
  -7   2  -8 107.614 8.78234   1
   7  -2   8 100.820 8.70041   1
  -8   2  -8 0.84188 2.28975   1
   8  -2   8 0.00569 2.55175   3
   8   1  -8 29.9063 5.49695   2
   7   1  -8 224.381 15.0812   2
   6   1  -8 223.344 14.5848   2
  -6  -1   8 223.006 11.5086   1
   5   1  -8 297.773 18.0398   2
  -5  -1   8 299.897 15.5574   1
   4   1  -8 335.169 19.4675   2
  -4  -1   8 330.944 17.4360   1
   3   1  -8 358.329 20.6201   2
  -3  -1   8 363.046 19.0989   1
   2   1  -8 239.914 14.5715   2
  -2  -1   8 241.269 13.4444   1
   1   1  -8 219.938 12.3568   1
   1   1  -8 216.164 13.3717   2
  -1  -1   8 221.080 12.6308   1
   0   1  -8 120.010 7.57537   1
   0   1  -8 105.986 8.04850   2
   0  -1   8 118.208 7.81043   1
  -1   1  -8 341.595 19.2758   1
  -1   1  -8 365.030 20.0834   2
   1  -1   8 363.188 18.3668   3
   1  -1   8 348.962 19.5525   1
  -2   1  -8 378.828 22.3446   2
  -2   1  -8 421.114 22.2256   1
   2  -1   8 421.164 21.2784   3
   2  -1   8 411.568 22.3871   1
  -3   1  -8 458.212 24.1772   1
  -3   1  -8 443.691 24.3161   2
   3  -1   8 425.417 23.2878   3
   3  -1   8 453.502 24.2959   1
  -4   1  -8 370.319 19.1658   2
  -4   1  -8 308.766 18.6487   1
   4  -1   8 313.800 18.7754   1
   4  -1   8 322.037 18.3113   3
  -5   1  -8 131.656 9.89504   1
  -5   1  -8 142.896 9.98830   2
   5  -1   8 160.081 10.1278   3
   5  -1   8 140.789 10.0737   1
  -6   1  -8 194.603 12.2849   2
  -6   1  -8 185.732 12.4875   1
   6  -1   8 201.767 12.6598   3
   6  -1   8 165.102 12.1650   1
  -7   1  -8 78.0218 6.96903   1
   7  -1   8 53.2874 6.73994   3
   7  -1   8 61.8990 6.76544   1
  -8   1  -8 42.1517 5.89703   1
   8  -1   8 53.2875 6.85494   3
  -9   1  -8 96.9744 8.49051   1
   9  -1   8 94.0978 9.69607   3
   7   0  -8 76.7749 7.35611   2
  -7   0   8 62.0788 3.64747   1
   6   0  -8 4.89139 2.91065   2
  -6   0   8 4.51042 1.01394   1
   5   0  -8 117.289 9.19751   2
  -5   0   8 116.715 6.82188   1
   4   0  -8 424.768 24.4133   2
  -4   0   8 454.200 22.6495   1
   3   0  -8 427.261 23.3556   2
  -3   0   8 418.430 21.8886   1
   2   0  -8 39.6853 3.37230   1
   2   0  -8 37.6898 4.75699   2
  -2   0   8 31.5322 3.57710   1
   1   0  -8 -0.2457 1.68080   2
   1   0  -8 -0.4102 1.00558   1
  -1   0   8 -0.8704 1.13231   1
  -1   0   8 0.73045 1.22857   1
  -1   0   8 0.66617 0.56794   3
   0   0  -8 86.0933 6.24722   2
   0   0  -8 77.7456 5.36479   1
   0   0   8 67.8696 3.70415   3
   0   0   8 56.2421 5.11504   1
   0   0   8 69.7578 3.70451   3
  -1   0  -8 281.199 15.9480   1
  -1   0  -8 318.300 16.8133   2
   1   0   8 264.614 15.9845   1
   1   0   8 289.580 14.5366   3
  -2   0  -8 136.983 8.83678   1
  -2   0  -8 145.595 9.13765   2
   2   0   8 131.375 7.63725   3
   2   0   8 125.461 8.77346   1
  -3   0  -8 154.622 10.2942   1
  -3   0  -8 165.334 10.4813   2
   3   0   8 164.567 10.5379   1
   3   0   8 165.057 9.58315   3
  -4   0  -8 170.809 11.3145   2
  -4   0  -8 166.672 11.3321   1
   4   0   8 196.308 11.1807   3
   4   0   8 192.261 11.7511   1
  -5   0  -8 340.078 20.0927   1
  -5   0  -8 370.357 20.0845   2
   5   0   8 361.467 20.2791   1
   5   0   8 356.672 19.8806   3
  -6   0  -8 276.692 16.8869   1
  -6   0  -8 303.125 16.8250   2
   6   0   8 269.012 16.8550   3
   6   0   8 294.972 17.1043   1
  -7   0  -8 2.36649 1.99744   2
  -7   0  -8 1.49638 2.11158   1
   7   0   8 0.99506 2.46051   3
   7   0   8 -0.8908 1.70708   1
  -8   0  -8 0.48420 2.04555   1
   8   0   8 3.56389 2.78105   3
  -9   0  -8 -1.2807 1.90993   1
   9   0   8 -1.3751 2.49369   3
   8  -1  -8 -2.5310 1.62228   3
   7  -1  -8 2.91196 2.19107   2
  -7   1   8 1.70039 0.79401   1
   6  -1  -8 52.8612 6.32330   2
  -6   1   8 50.6945 3.45033   1
   5  -1  -8 21.3764 4.03528   2
  -5   1   8 23.2034 2.50281   1
   4  -1  -8 192.784 12.6694   2
  -4   1   8 207.117 11.1388   1
   3  -1  -8 432.841 24.1038   2
  -3   1   8 447.374 22.7619   1
   2  -1  -8 308.749 17.1660   2
   2  -1  -8 303.243 15.8520   1
  -2   1   8 297.940 16.1850   1
  -2   1   8 292.038 16.1282   1
   1  -1  -8 -0.3298 0.96126   2
   1  -1  -8 -1.5111 1.07652   1
  -1   1   8 -0.4634 1.21654   1
  -1   1   8 1.43164 1.23944   1
   0  -1  -8 22.3331 3.33475   2
   0  -1  -8 22.3705 2.89590   1
   0   1   8 25.8241 3.28569   1
  -1  -1  -8 36.0284 3.82320   1
  -1  -1  -8 35.1878 4.18710   2
   1   1   8 29.1674 3.66813   1
  -2  -1  -8 237.464 13.7418   2
  -2  -1  -8 227.551 13.5247   1
   2   1   8 235.137 11.9667   3
   2   1   8 239.929 13.7792   1
  -3  -1  -8 334.114 17.9295   2
  -3  -1  -8 340.186 18.1186   1
   3   1   8 305.967 16.7880   3
   3   1   8 318.167 18.0622   1
  -4  -1  -8 103.103 7.29716   2
  -4  -1  -8 102.926 7.52287   1
   4   1   8 96.6290 7.48588   1
   4   1   8 103.198 6.90755   3
  -5  -1  -8 101.684 7.48448   2
  -5  -1  -8 106.117 7.94778   1
   5   1   8 111.051 8.13588   1
   5   1   8 106.324 7.63927   3
  -6  -1  -8 47.1947 5.48819   1
  -6  -1  -8 47.7408 5.14893   2
   6   1   8 40.5939 5.16079   1
   6   1   8 44.7509 5.37477   3
  -7  -1  -8 7.38452 2.70896   1
  -7  -1  -8 12.7392 2.95056   2
   7   1   8 14.5608 3.51434   3
   7   1   8 12.1187 2.90976   1
  -8  -1  -8 0.52860 1.98576   1
   8   1   8 -0.2015 2.21913   3
  -9  -1  -8 -2.4099 1.78477   1
   9   1   8 -3.0136 1.85113   3
   8  -2  -8 6.16931 2.80840   3
  -8   2   8 8.74883 1.35162   1
   7  -2  -8 -2.5822 1.37860   3
  -7   2   8 -0.0798 0.85621   1
   6  -2  -8 19.8441 4.14877   2
   6  -2  -8 17.5499 3.06937   3
  -6   2   8 19.7540 2.13616   1
   5  -2  -8 254.974 16.0357   2
   5  -2  -8 269.859 14.9525   3
  -5   2   8 276.164 14.2255   1
   4  -2  -8 550.626 28.4348   2
  -4   2   8 502.007 26.5108   1
   3  -2  -8 252.365 15.0386   2
   3  -2  -8 239.924 13.3789   1
  -3   2   8 269.139 13.8393   1
   2  -2  -8 73.6967 4.98829   1
   2  -2  -8 71.2551 5.99824   2
  -2   2   8 77.6275 5.33683   1
  -2   2   8 69.7929 5.19855   1
   1  -2  -8 545.632 27.4127   1
   1  -2  -8 534.204 28.2037   2
  -1   2   8 580.001 27.7891   1
  -1   2   8 489.236 27.5026   1
   0  -2  -8 415.310 21.4245   1
   0  -2  -8 415.148 21.8290   2
   0   2   8 390.202 21.4679   1
  -1  -2  -8 115.458 7.51863   1
  -1  -2  -8 111.346 7.57749   2
   1   2   8 123.573 7.79313   1
  -2  -2  -8 55.3507 4.64887   2
  -2  -2  -8 54.4512 4.68367   1
   2   2   8 53.2879 4.80955   1
  -3  -2  -8 126.429 8.39222   2
  -3  -2  -8 147.089 8.92035   1
   3   2   8 132.225 7.51729   3
   3   2   8 130.466 8.81596   1
  -4  -2  -8 533.255 26.3744   1
  -4  -2  -8 464.782 25.5203   2
   4   2   8 471.539 25.1902   3
   4   2   8 501.560 26.2901   1
  -5  -2  -8 826.006 43.7400   1
  -5  -2  -8 875.386 43.1869   2
   5   2   8 849.144 43.7672   1
  -6  -2  -8 209.626 13.2603   1
  -6  -2  -8 219.436 12.6005   2
   6   2   8 215.574 13.1624   3
   6   2   8 200.628 13.0534   1
  -7  -2  -8 92.7318 7.66902   1
  -7  -2  -8 98.0005 7.00784   2
   7   2   8 97.3269 7.57415   1
   7   2   8 87.0083 7.79194   3
  -8  -2  -8 57.9585 6.58932   1
   8   2   8 65.9375 6.31709   4
   8   2   8 56.5535 6.82499   3
  -9  -2  -8 82.2938 7.20048   1
   9   2   8 61.0376 7.71852   3
   8  -3  -8 132.173 9.92640   3
  -8   3   8 128.916 7.47157   1
   7  -3  -8 166.968 11.4079   3
  -7   3   8 175.349 9.56433   1
   6  -3  -8 94.9637 7.18500   3
  -6   3   8 95.5343 5.91849   1
   5  -3  -8 165.869 10.5421   3
   5  -3  -8 194.367 12.0195   2
  -5   3   8 173.648 9.86355   1
   4  -3  -8 377.130 21.4376   2
   4  -3  -8 384.294 20.0484   3
  -4   3   8 388.547 20.0035   1
   3  -3  -8 1153.79 56.6237   2
   3  -3  -8 1102.43 54.9906   1
   3  -3  -8 1111.15 54.6928   3
  -3   3   8 1114.65 55.3836   1
   2  -3  -8 524.854 29.4706   2
   2  -3  -8 567.634 28.6261   1
  -2   3   8 562.131 28.8703   1
  -2   3   8 603.381 29.0583   1
   1  -3  -8 561.507 28.4789   1
   1  -3  -8 541.340 29.0304   2
  -1   3   8 570.828 28.6929   1
   0  -3  -8 37.9447 3.76168   2
   0  -3  -8 38.9266 3.57531   1
   0   3   8 40.7849 3.78089   1
  -1  -3  -8 1366.36 66.0844   2
  -1  -3  -8 1346.01 66.1663   1
   1   3   8 1292.43 66.2145   1
  -2  -3  -8 1237.93 60.7403   1
  -2  -3  -8 1186.56 60.2812   2
   2   3   8 1233.47 60.8745   1
  -3  -3  -8 218.594 13.0308   2
  -3  -3  -8 272.292 13.8992   1
   3   3   8 224.906 13.6245   1
  -4  -3  -8 137.965 8.64397   2
  -4  -3  -8 149.251 9.39459   1
   4   3   8 142.065 9.40804   1
  -5  -3  -8 296.654 17.0833   1
   5   3   8 302.454 16.6943   3
   5   3   8 298.471 17.1119   1
  -6  -3  -8 726.468 38.3808   1
  -6  -3  -8 725.582 37.4098   2
   6   3   8 705.206 38.1660   3
   6   3   8 803.946 38.6702   1
  -7  -3  -8 280.113 17.0160   1
   7   3   8 296.935 17.0722   1
   7   3   8 294.454 17.3781   3
  -8  -3  -8 124.145 8.66571   1
   8   3   8 91.5861 8.13950   4
  -9  -3  -8 7.71625 2.66309   1
   9   3   8 4.38038 3.06326   3
   9   3   8 3.91642 2.41622   4
  -9   4   8 71.3984 5.01121   1
   8  -4  -8 112.302 9.18228   3
  -8   4   8 104.565 6.70865   1
   7  -4  -8 44.0207 5.59544   3
  -7   4   8 50.1802 4.00603   1
   6  -4  -8 124.995 8.75840   3
  -6   4   8 120.013 7.45365   1
   5  -4  -8 69.9946 5.55542   3
  -5   4   8 58.1349 4.57182   1
   4  -4  -8 306.960 16.7817   3
  -4   4   8 312.541 16.5373   1
   3  -4  -8 29.5736 3.92196   2
   3  -4  -8 28.2205 2.88650   3
   3  -4  -8 33.8767 3.02797   1
  -3   4   8 26.7288 3.19663   1
   2  -4  -8 697.391 34.5930   3
   2  -4  -8 644.712 35.4099   1
   2  -4  -8 785.341 36.6466   2
  -2   4   8 714.555 35.8270   1
   1  -4  -8 291.282 15.0467   1
   1  -4  -8 262.382 15.3518   2
  -1   4   8 274.388 15.1784   1
   0  -4  -8 4.73905 1.65986   2
   0  -4  -8 5.37947 1.72326   1
   0   4   8 8.26942 2.01639   1
  -1  -4  -8 -0.7487 1.14983   2
  -1  -4  -8 -0.5660 1.27161   1
   1   4   8 0.85897 1.34430   1
  -2  -4  -8 24.5393 2.88959   2
  -2  -4  -8 25.5258 1.98993   3
  -2  -4  -8 20.4415 3.05993   1
   2   4   8 23.0258 3.27848   1
  -3  -4  -8 201.787 12.7226   1
  -3  -4  -8 232.881 12.1817   2
   3   4   8 221.393 12.9229   1
  -4  -4  -8 806.176 41.5142   2
  -4  -4  -8 892.699 42.7214   1
   4   4   8 809.268 42.5501   1
  -5  -4  -8 348.273 18.1740   2
  -5  -4  -8 323.491 19.1024   1
   5   4   8 363.173 19.4235   1
  -6  -4  -8 151.273 9.88287   1
   6   4   8 139.297 9.68261   1
  -7  -4  -8 64.5235 6.00492   1
   7   4   8 51.7341 5.73527   3
   7   4   8 71.0062 6.17758   1
   7   4   8 67.8795 6.40963   4
  -8  -4  -8 58.5555 6.18594   1
   8   4   8 62.3782 6.95836   4
   8   4   8 47.3945 6.37175   3
  -9  -4  -8 0.82152 2.05925   1
   9   4   8 -0.4478 2.27478   3
   9   4   8 -1.6736 1.80115   4
   9  -5  -8 2.86480 4.92959   3
  -9   5   8 12.0062 2.18725   1
   8  -5  -8 -0.9965 2.28314   3
  -8   5   8 -0.4344 1.27147   1
   7  -5  -8 5.72016 2.50896   3
  -7   5   8 4.66617 1.76073   1
   6  -5  -8 -1.8653 1.60856   3
  -6   5   8 4.24360 1.56680   1
   5  -5  -8 0.63372 1.62379   3
  -5   5   8 0.95375 1.36318   1
   4  -5  -8 251.032 14.5275   3
  -4   5   8 264.321 14.1854   1
   3  -5  -8 58.8075 4.49284   1
   3  -5  -8 62.6590 4.68071   3
  -3   5   8 64.9413 4.83234   1
   2  -5  -8 502.908 26.2590   2
   2  -5  -8 465.407 25.4499   1
   2  -5  -8 503.312 25.1050   3
  -2   5   8 517.785 25.8552   1
   1  -5  -8 161.059 8.87187   3
   1  -5  -8 180.219 9.99456   1
   1  -5  -8 181.346 10.2705   2
  -1   5   8 156.361 9.90666   1
   0  -5  -8 160.132 9.21501   1
   0  -5  -8 138.333 8.96342   2
   0  -5  -8 147.065 7.87295   3
   0   5   8 164.461 9.42485   1
  -1  -5  -8 25.4379 2.09987   3
  -1  -5  -8 29.3788 3.39028   1
  -1  -5  -8 28.7442 3.08662   2
   1   5   8 19.1214 3.01100   1
  -2  -5  -8 93.0331 6.74901   1
  -2  -5  -8 98.8608 6.15029   2
   2   5   8 103.259 6.97392   1
  -3  -5  -8 190.643 10.3071   2
  -3  -5  -8 191.099 11.2949   1
   3   5   8 181.718 11.3312   1
  -4  -5  -8 57.4925 5.00486   1
  -4  -5  -8 54.2381 3.78887   2
   4   5   8 46.4840 5.04416   1
  -5  -5  -8 331.109 18.6394   1
   5   5   8 331.768 18.5940   1
  -6  -5  -8 190.616 12.1827   1
   6   5   8 198.144 12.1154   1
  -7  -5  -8 57.4056 6.08516   1
   7   5   8 55.9427 6.74412   4
  -8  -5  -8 100.187 8.00170   1
   8   5   8 92.4709 8.14381   4
  -9  -5  -8 5.66191 2.53858   1
   9   5   8 2.68342 2.79514   4
   9  -6  -8 189.757 15.4630   3
  -9   6   8 139.788 9.49174   1
   8  -6  -8 102.211 9.40985   3
  -8   6   8 117.482 7.60713   1
   7  -6  -8 18.5153 4.05150   3
  -7   6   8 21.2600 3.04489   1
   6  -6  -8 -1.5751 1.84190   3
  -6   6   8 3.87343 1.69021   1
   5  -6  -8 63.7053 5.79805   3
  -5   6   8 62.2843 5.02707   1
   4  -6  -8 0.17409 1.65813   3
  -4   6   8 3.10300 1.55661   1
   3  -6  -8 302.056 16.3021   1
   3  -6  -8 299.145 16.5947   3
  -3   6   8 307.673 16.5427   1
   2  -6  -8 211.065 11.6167   1
   2  -6  -8 200.009 11.4044   3
  -2   6   8 197.888 11.6813   1
   1  -6  -8 141.736 8.16880   1
  -1   6   8 115.242 8.04538   1
   0  -6  -8 243.647 13.1371   1
   0   6   8 215.294 13.0087   1
  -1  -6  -8 9.37522 2.15668   1
  -1  -6  -8 8.56142 1.76951   2
   1   6   8 8.91574 2.13370   1
  -2  -6  -8 49.0683 3.63485   2
  -2  -6  -8 50.5742 4.42143   1
   2   6   8 53.5576 4.68981   1
  -3  -6  -8 113.192 7.95815   1
  -3  -6  -8 124.079 6.75919   2
   3   6   8 115.899 8.03654   1
  -4  -6  -8 64.9766 5.53564   1
   4   6   8 63.4091 5.46605   1
  -5  -6  -8 21.5131 3.50446   1
   5   6   8 18.4808 3.28631   1
  -6  -6  -8 55.7850 5.90628   1
   6   6   8 77.2365 6.84701   4
   6   6   8 56.6312 5.45557   1
  -7  -6  -8 309.169 18.1052   1
   7   6   8 321.086 19.0884   4
  -8  -6  -8 120.913 8.99965   1
   8   6   8 128.753 10.0242   4
  -9  -6  -8 85.4587 7.15003   1
   9   6   8 70.1811 8.23080   4
   8  -7  -8 113.770 9.61324   3
  -8   7   8 97.8489 7.38289   1
   7  -7  -8 162.016 11.9210   3
  -7   7   8 170.619 10.4824   1
   6  -7  -8 195.556 13.3487   3
  -6   7   8 208.696 12.1707   1
   5  -7  -8 300.252 17.7536   3
  -5   7   8 305.028 16.8358   1
   4  -7  -8 87.1798 6.87750   3
  -4   7   8 91.5471 6.51922   1
   3  -7  -8 502.462 26.6904   3
   3  -7  -8 490.562 26.2039   1
  -3   7   8 525.576 26.5393   1
   2  -7  -8 93.5480 6.36683   3
   2  -7  -8 86.0115 6.25385   1
  -2   7   8 88.5680 6.43453   1
   1  -7  -8 904.603 44.9891   1
  -1   7   8 885.040 45.1547   1
   0  -7  -8 959.587 44.2965   1
   0   7   8 792.533 44.0782   1
  -1  -7  -8 227.184 13.7197   1
   1   7   8 257.502 14.0467   1
  -2  -7  -8 84.0830 6.44797   1
   2   7   8 89.1453 6.48047   1
  -3  -7  -8 23.2369 3.44104   1
   3   7   8 19.8686 3.23781   1
  -4  -7  -8 452.387 25.7566   1
   4   7   8 518.846 26.0379   1
  -5  -7  -8 364.725 20.1697   1
   5   7   8 360.776 21.1357   4
   5   7   8 363.004 20.1174   1
  -6  -7  -8 440.990 24.2967   1
   6   7   8 452.759 25.4647   4
  -7  -7  -8 52.9481 5.87139   1
   7   7   8 65.5659 7.44790   4
  -8  -7  -8 138.169 9.66413   1
   8   7   8 132.051 10.5831   4
  -9  -7  -8 161.161 11.1470   1
   8  -8  -8 62.4153 7.94348   3
  -8   8   8 52.1494 5.50199   1
  -7   8   8 101.149 7.54497   1
   6  -8  -8 44.4728 6.00288   3
  -6   8   8 49.1547 5.20252   1
   5  -8  -8 15.6884 3.32564   3
  -5   8   8 12.3695 2.96378   1
   4  -8  -8 74.6615 6.68705   3
  -4   8   8 87.8509 6.59724   1
   3  -8  -8 195.074 11.9134   1
   3  -8  -8 222.625 12.7573   3
  -3   8   8 195.171 12.0956   1
   2  -8  -8 320.338 18.3647   1
  -2   8   8 358.366 18.7757   1
   1  -8  -8 533.850 26.9817   1
  -1   8   8 494.021 26.9421   1
   0  -8  -8 88.4951 6.58575   1
   0   8   8 90.6850 6.73635   1
  -1  -8  -8 34.9965 4.16076   1
   1   8   8 39.3988 4.46375   1
  -2  -8  -8 77.9575 6.48752   1
   2   8   8 102.939 6.96962   1
  -3  -8  -8 88.9557 6.67141   1
   3   8   8 75.5169 6.32030   1
  -4  -8  -8 74.3092 6.37479   1
   4   8   8 78.7232 7.26313   4
   4   8   8 78.9051 6.29443   1
  -5  -8  -8 87.9788 7.10688   1
   5   8   8 85.0418 6.88253   1
   5   8   8 104.020 8.32613   4
  -6  -8  -8 445.490 22.6472   1
   6   8   8 363.665 23.2580   4
  -7  -8  -8 330.970 18.8582   1
   7   8   8 323.672 20.0880   4
  -8  -8  -8 137.945 9.77573   1
   7  -9  -8 6.90308 3.66894   3
  -7   9   8 9.97978 3.01963   1
   6  -9  -8 24.3516 4.92036   3
  -6   9   8 23.6557 3.87636   1
   5  -9  -8 1.18197 2.24422   3
  -5   9   8 -3.1065 1.66189   1
   4  -9  -8 5.80059 2.53397   3
  -4   9   8 0.44706 1.99525   1
   3  -9  -8 1.78025 1.98185   1
   3  -9  -8 3.32702 1.82298   3
  -3   9   8 0.25557 1.72811   1
   2  -9  -8 106.491 7.32374   1
  -2   9   8 87.0231 6.97979   1
   1  -9  -8 493.542 25.9873   1
  -1   9   8 483.688 26.0899   1
   0  -9  -8 90.2297 6.70359   1
   0   9   8 80.9642 6.50491   1
  -1  -9  -8 38.3776 4.51169   1
   1   9   8 42.6333 4.64916   1
  -2  -9  -8 3.05080 1.73588   1
   2   9   8 -1.4158 1.49649   1
   2   9   8 2.88262 1.95386   4
  -3  -9  -8 12.9466 2.97645   1
   3   9   8 19.0866 3.98713   4
   3   9   8 15.2942 3.02827   1
  -4  -9  -8 9.85255 2.77278   1
   4   9   8 14.2401 3.69147   4
   4   9   8 17.8098 3.13028   1
  -5  -9  -8 2.34391 2.16307   1
   5   9   8 4.55630 3.09218   4
  -6  -9  -8 41.2542 5.12329   1
   6   9   8 33.9961 5.74841   4
  -7  -9  -8 60.6449 6.36204   1
   7   9   8 59.0689 7.71726   4
  -8  -9  -8 113.081 8.69073   1
   6 -10  -8 6.61989 3.16972   3
  -6  10   8 6.93327 2.83239   1
   5 -10  -8 -0.7455 2.04810   3
  -5  10   8 -0.9805 1.90330   1
   4 -10  -8 20.3572 4.02024   3
  -4  10   8 20.8831 3.78629   1
   3 -10  -8 56.2957 6.53451   1
  -3  10   8 75.5899 6.38165   1
   2 -10  -8 111.392 8.01224   1
  -2  10   8 105.697 8.10283   1
  -2  10   8 110.955 8.17867   4
   1 -10  -8 125.620 8.91173   1
  -1  10   8 136.070 8.98917   1
  -1  10   8 119.957 9.07278   4
   0 -10  -8 102.465 7.34503   1
   0  10   8 88.1309 7.01446   1
   0  10   8 83.2295 7.36433   4
  -1 -10  -8 382.646 21.3114   1
   1  10   8 384.145 22.1329   4
   1  10   8 395.237 21.4551   1
  -2 -10  -8 133.025 9.26334   1
   2  10   8 133.710 10.1184   4
   2  10   8 141.070 9.30478   1
  -3 -10  -8 115.583 8.63817   1
   3  10   8 123.617 9.57206   4
   3  10   8 134.194 8.81612   1
  -4 -10  -8 -1.5774 1.70479   1
   4  10   8 -1.2888 2.57733   4
   4  10   8 3.45194 2.14149   1
  -5 -10  -8 106.373 7.96040   1
   5  10   8 93.5517 9.16250   4
  -6 -10  -8 260.640 15.5652   1
  -7 -10  -8 185.699 12.0940   1
   5 -11  -8 11.0311 3.49912   3
  -5  11   8 8.81289 3.12211   1
   4 -11  -8 27.1762 5.07562   3
  -4  11   8 25.5953 4.24156   1
  -3  11   8 70.9764 6.55798   1
   2 -11  -8 518.786 29.2872   1
  -2  11   8 577.889 29.7025   1
  -2  11   8 551.447 29.5252   4
   1 -11  -8 555.675 27.4254   1
  -1  11   8 496.528 27.5657   4
  -1  11   8 461.987 27.1433   1
   0 -11  -8 559.019 27.8489   1
   0  11   8 512.894 27.6562   1
   0  11   8 466.800 28.0177   4
  -1 -11  -8 221.771 14.0736   1
   1  11   8 244.710 15.1178   4
   1  11   8 232.154 14.0777   1
  -2 -11  -8 287.379 16.7445   1
   2  11   8 320.632 18.0889   4
   2  11   8 252.470 16.2819   1
  -3 -11  -8 309.706 18.3352   1
   3  11   8 334.070 19.8300   4
   3  11   8 317.500 18.3283   1
  -4 -11  -8 48.8084 5.60255   1
   4  11   8 54.5569 7.33390   4
  -5 -11  -8 123.869 9.06660   1
  -6 -11  -8 84.6259 7.20565   1
   4 -12  -8 44.5647 6.47180   3
  -4  12   8 51.5581 6.16972   1
  -3  12   8 12.6998 3.40798   1
  -2  12   8 11.7924 3.30276   1
   1 -12  -8 104.360 8.16734   1
  -1  12   8 92.7073 7.75219   1
  -1  12   8 90.7378 7.96057   4
   0 -12  -8 275.640 16.5937   1
   0  12   8 288.083 16.7396   1
   0  12   8 271.854 17.1091   4
  -1 -12  -8 154.923 10.8593   1
   1  12   8 158.441 10.8884   1
   1  12   8 169.011 11.7252   4
  -2 -12  -8 135.802 9.55072   1
   2  12   8 116.849 9.04432   1
  -3 -12  -8 9.40969 3.13944   1
  -4 -12  -8 67.8740 6.90258   1
  -5 -12  -8 76.3556 7.04962   1
   2 -13  -8 28.1418 5.00509   1
  -2  13   8 31.8685 4.87938   1
   1 -13  -8 11.4814 3.60472   1
   0 -13  -8 -7.2028 1.85195   1
   0  13   8 -2.7168 1.62134   1
  -1 -13  -8 9.30871 3.31174   1
   1  13   8 13.3720 3.34180   1
  -2 -13  -8 64.9558 6.82690   1
   3   6  -9 151.778 12.2991   2
  -3  -6   9 153.240 10.2182   1
   2   6  -9 198.028 14.3027   2
  -2  -6   9 191.224 12.4823   1
   1   6  -9 116.732 9.94427   2
  -1  -6   9 107.074 8.64310   1
   0   6  -9 281.713 18.6002   2
   0  -6   9 280.876 17.1128   1
  -1   6  -9 156.546 12.5732   2
   1  -6   9 164.892 11.6947   1
  -2   6  -9 173.788 12.6524   2
   2  -6   9 162.580 12.1477   1
   5   5  -9 -1.7847 2.83876   2
  -5  -5   9 -1.3525 1.21064   1
   4   5  -9 0.41391 2.95362   2
  -4  -5   9 0.74283 1.71792   1
   3   5  -9 -0.9627 1.94399   2
  -3  -5   9 -2.1480 1.58093   1
   2   5  -9 32.7935 5.56722   2
  -2  -5   9 15.9056 3.28588   1
   1   5  -9 120.112 9.91089   2
  -1  -5   9 115.824 8.84954   1
   0   5  -9 76.2364 8.69200   2
   0  -5   9 80.4416 7.16568   1
  -1   5  -9 -3.1792 2.22466   2
   1  -5   9 3.67866 2.43427   1
  -2   5  -9 -1.4326 2.65287   2
   2  -5   9 -0.1891 2.30706   1
  -3   5  -9 48.1373 6.53099   2
   3  -5   9 41.6124 5.95151   1
  -4   5  -9 12.6308 4.16238   2
   4  -5   9 14.4279 4.24838   1
   6   4  -9 2.50857 3.49080   2
   5   4  -9 4.76843 3.14714   2
  -5  -4   9 4.17730 1.59235   1
   4   4  -9 1.78493 2.99676   2
  -4  -4   9 1.84533 1.62423   1
   3   4  -9 26.4504 4.98749   2
  -3  -4   9 21.8928 3.56466   1
   2   4  -9 7.57534 3.00874   2
  -2  -4   9 4.33767 2.20484   1
   1   4  -9 57.6821 7.37581   2
  -1  -4   9 63.8160 6.26019   1
   0   4  -9 141.668 11.2203   2
   0  -4   9 165.819 10.7352   1
  -1   4  -9 72.2328 8.31429   2
   1  -4   9 89.1260 7.47317   1
  -2   4  -9 -1.5472 2.49792   2
   2  -4   9 -0.3603 2.29683   1
  -3   4  -9 26.7731 5.10377   2
   3  -4   9 29.1725 4.91356   1
  -4   4  -9 17.1377 4.20213   2
   4  -4   9 16.9305 4.11899   1
  -5   4  -9 20.4487 4.47206   2
  -5   4  -9 24.7178 4.58380   1
   5  -4   9 20.3212 4.35022   1
   7   3  -9 149.655 11.8395   2
   6   3  -9 5.43857 3.40080   2
  -6  -3   9 0.83207 1.11164   1
   5   3  -9 26.5625 5.16671   2
  -5  -3   9 21.9933 2.69920   1
   4   3  -9 -1.7031 1.76076   2
  -4  -3   9 0.22064 1.22541   1
   3   3  -9 55.7273 6.85094   2
  -3  -3   9 49.6875 4.99569   1
   2   3  -9 191.136 12.8769   2
  -2  -3   9 167.423 11.0271   1
   1   3  -9 77.5789 7.17721   2
  -1  -3   9 77.7242 6.61725   1
   0   3  -9 100.101 8.58087   2
   0  -3   9 87.3530 7.30978   1
  -1   3  -9 36.8180 5.46714   2
   1  -3   9 36.8711 4.73770   1
  -2   3  -9 311.270 18.7996   2
   2  -3   9 314.205 18.4155   1
  -3   3  -9 106.534 8.57283   1
  -3   3  -9 111.800 8.88688   2
   3  -3   9 114.149 8.93689   1
  -4   3  -9 31.0098 4.76407   1
  -4   3  -9 21.9683 4.48993   2
   4  -3   9 21.4034 4.15861   1
  -5   3  -9 -1.3632 2.24461   2
  -5   3  -9 -0.1521 2.04618   1
   5  -3   9 2.79845 2.65236   1
  -6   3  -9 46.2270 6.35447   1
  -6   3  -9 57.0302 7.11201   2
   6  -3   9 55.4497 6.90126   1
   7   2  -9 98.3507 8.95088   2
   6   2  -9 202.916 13.7582   2
  -6  -2   9 175.539 9.85348   1
   5   2  -9 270.400 17.0483   2
  -5  -2   9 253.191 13.9726   1
   4   2  -9 19.5032 4.06973   2
  -4  -2   9 19.4414 2.69515   1
   3   2  -9 145.395 10.7444   2
  -3  -2   9 136.464 8.84215   1
   2   2  -9 100.026 8.50463   2
  -2  -2   9 97.5316 7.08080   1
   1   2  -9 536.016 29.5964   2
  -1  -2   9 539.178 28.4405   1
   0   2  -9 471.177 26.1546   2
   0  -2   9 461.148 25.2373   1
  -1   2  -9 216.566 14.7261   2
   1  -2   9 247.600 14.3279   1
  -2   2  -9 248.458 15.2104   2
  -2   2  -9 252.167 14.5898   1
   2  -2   9 219.304 14.5643   1
  -3   2  -9 113.941 8.53858   1
  -3   2  -9 109.745 8.83040   2
   3  -2   9 112.817 8.70250   1
  -4   2  -9 276.375 17.1560   1
  -4   2  -9 297.682 17.5919   2
   4  -2   9 283.486 17.3697   1
  -5   2  -9 71.3995 6.73803   2
  -5   2  -9 59.5122 6.88162   1
   5  -2   9 54.1269 6.53780   1
  -6   2  -9 27.6667 5.03624   1
  -6   2  -9 38.8984 5.68163   2
   6  -2   9 32.7156 5.45130   1
  -7   2  -9 46.2051 6.39204   2
  -7   2  -9 50.6166 6.53858   1
   7  -2   9 42.6828 5.85189   1
   8   1  -9 172.089 13.1572   2
   7   1  -9 46.9217 6.79431   2
   6   1  -9 183.986 12.9662   2
  -6  -1   9 167.874 9.33254   1
   5   1  -9 12.4674 3.55707   2
  -5  -1   9 10.1024 1.84931   1
   4   1  -9 84.6482 7.91192   2
  -4  -1   9 85.0227 5.86915   1
   3   1  -9 93.9977 7.96467   2
  -3  -1   9 81.7814 6.07331   1
   2   1  -9 -2.7099 2.12483   2
  -2  -1   9 1.65464 1.50126   1
   1   1  -9 54.9610 6.04899   2
  -1  -1   9 43.0449 4.69167   1
   0   1  -9 33.9329 5.01957   2
   0  -1   9 31.4192 4.06072   1
  -1   1  -9 775.689 41.0783   2
  -1   1  -9 776.118 40.1613   1
   1  -1   9 796.707 40.4943   1
  -2   1  -9 387.914 22.4198   2
  -2   1  -9 392.092 21.9458   1
   2  -1   9 418.701 22.3906   1
  -3   1  -9 25.3439 4.03352   2
  -3   1  -9 20.3194 3.64160   1
   3  -1   9 21.8598 3.84151   1
  -4   1  -9 14.0492 3.13186   2
  -4   1  -9 12.6585 3.03694   1
   4  -1   9 9.90231 2.91459   1
  -5   1  -9 0.90721 2.01712   1
  -5   1  -9 -0.3772 1.79192   2
   5  -1   9 0.72921 2.10262   1
  -6   1  -9 65.3370 6.61275   2
  -6   1  -9 69.2981 7.44437   1
   6  -1   9 77.3438 7.08468   1
  -7   1  -9 14.2320 3.81064   2
  -7   1  -9 6.41797 2.83243   1
   7  -1   9 9.36659 3.20183   1
  -8   1  -9 45.4396 6.25279   1
  -8   1  -9 43.2175 5.90548   2
   7   0  -9 109.248 9.65179   2
   6   0  -9 126.022 10.2467   2
  -6   0   9 143.769 7.81067   1
   5   0  -9 19.3670 4.30157   2
  -5   0   9 15.7194 2.24485   1
   4   0  -9 109.803 8.75508   2
  -4   0   9 114.010 7.17006   1
   3   0  -9 42.7548 5.45250   2
  -3   0   9 36.2876 3.87356   1
   2   0  -9 27.0152 4.56541   2
  -2   0   9 39.5479 4.03273   1
   1   0  -9 39.3997 5.20475   2
  -1   0   9 38.5912 4.29796   1
   0   0  -9 162.481 10.5923   2
   0   0  -9 143.510 9.50199   1
   0   0   9 159.335 9.97772   1
  -1   0  -9 247.092 13.9833   1
  -1   0  -9 229.897 14.2453   2
   1   0   9 233.325 14.0215   1
  -2   0  -9 118.022 8.89456   2
  -2   0  -9 124.915 8.50476   1
   2   0   9 118.858 8.60407   1
  -3   0  -9 171.368 10.4207   1
  -3   0  -9 147.034 10.0319   2
   3   0   9 138.824 10.1045   1
  -4   0  -9 28.9855 4.22237   2
  -4   0  -9 28.0417 4.27927   1
   4   0   9 29.6591 4.33251   1
  -5   0  -9 -0.6790 1.73092   1
  -5   0  -9 0.29927 1.74332   2
   5   0   9 -0.9389 1.82694   1
  -6   0  -9 36.4059 5.15158   1
  -6   0  -9 36.9990 4.93517   2
   6   0   9 33.0570 4.92895   1
  -7   0  -9 8.24322 3.07077   2
  -7   0  -9 11.2918 3.39669   1
   7   0   9 9.11326 3.09079   1
  -8   0  -9 50.1772 6.11089   2
  -8   0  -9 48.1191 6.30012   1
   7  -1  -9 117.983 9.80755   2
  -7   1   9 107.698 6.18756   1
   6  -1  -9 40.2556 6.03525   2
  -6   1   9 45.9370 3.41231   1
   5  -1  -9 282.151 17.7808   2
  -5   1   9 295.342 15.4300   1
   4  -1  -9 389.253 22.4133   2
  -4   1   9 388.842 20.3695   1
   3  -1  -9 197.406 12.2907   2
  -3   1   9 175.263 10.6224   1
   2  -1  -9 114.967 8.75649   2
  -2   1   9 124.758 7.86981   1
   1  -1  -9 11.1119 2.17869   1
   1  -1  -9 9.76292 2.85303   2
  -1   1   9 9.50091 2.26533   1
   0  -1  -9 335.176 17.8898   2
   0  -1  -9 289.630 16.7499   1
   0   1   9 301.769 17.1279   1
  -1  -1  -9 712.379 34.6706   1
  -1  -1  -9 620.115 34.7833   2
   1   1   9 679.631 34.8716   1
  -2  -1  -9 247.464 14.9059   1
  -2  -1  -9 256.495 15.1124   2
   2   1   9 272.956 15.3308   1
  -3  -1  -9 100.549 7.87279   1
  -3  -1  -9 124.290 8.15667   2
   3   1   9 101.575 7.97776   1
  -4  -1  -9 192.233 11.8676   2
  -4  -1  -9 185.150 12.0584   1
   4   1   9 193.494 12.2704   1
  -5  -1  -9 459.786 23.5396   1
  -5  -1  -9 402.643 22.7998   2
   5   1   9 390.004 23.1206   1
  -6  -1  -9 96.8304 7.48350   2
  -6  -1  -9 98.8593 8.06600   1
   6   1   9 102.061 8.08955   1
  -7  -1  -9 59.1143 6.71136   1
  -7  -1  -9 64.2342 5.92124   2
   7   1   9 42.0781 5.66085   1
  -8  -1  -9 42.1625 5.90936   1
  -7   2   9 148.485 8.30232   1
   6  -2  -9 107.736 9.21504   2
  -6   2   9 106.144 6.46292   1
   5  -2  -9 529.710 28.7901   2
  -5   2   9 510.409 26.4129   1
   4  -2  -9 172.790 11.8007   2
  -4   2   9 182.483 10.3545   1
   3  -2  -9 309.371 18.1137   2
  -3   2   9 308.301 16.6853   1
   2  -2  -9 267.232 15.4495   2
  -2   2   9 246.995 14.2051   1
   1  -2  -9 425.572 23.4136   2
   1  -2  -9 440.860 22.4871   1
  -1   2   9 419.901 22.7103   1
   0  -2  -9 548.107 27.8309   1
   0  -2  -9 541.711 28.3593   2
   0   2   9 513.676 27.8908   1
  -1  -2  -9 627.316 31.3039   1
  -1  -2  -9 586.557 31.4480   2
   1   2   9 596.279 31.4568   1
  -2  -2  -9 481.206 23.8694   1
  -2  -2  -9 427.680 23.6527   2
   2   2   9 418.584 23.7739   1
  -3  -2  -9 745.073 35.1472   2
  -3  -2  -9 612.058 34.8267   1
   3   2   9 661.498 35.1481   1
  -4  -2  -9 407.041 21.7254   1
  -4  -2  -9 383.925 21.1159   2
   4   2   9 377.650 21.6531   1
  -5  -2  -9 19.1022 3.15846   2
  -5  -2  -9 17.7379 3.59767   1
   5   2   9 14.9383 3.32472   1
  -6  -2  -9 59.5400 5.40163   2
  -6  -2  -9 65.7810 6.73241   1
   6   2   9 58.9512 6.36889   1
  -7  -2  -9 116.173 9.06170   1
  -7  -2  -9 118.325 8.26780   2
   7   2   9 115.021 8.89650   1
  -8  -2  -9 166.280 11.6899   1
  -9  -2  -9 61.1817 7.09754   1
  -8   3   9 10.0676 1.76610   1
  -7   3   9 44.9342 3.66110   1
  -6   3   9 213.375 11.7477   1
   5  -3  -9 434.131 24.0628   2
  -5   3   9 411.146 21.7546   1
   4  -3  -9 70.1938 6.76174   2
  -4   3   9 75.7112 5.32457   1
   3  -3  -9 11.7559 3.04915   2
  -3   3   9 8.77572 2.04453   1
   2  -3  -9 34.1434 4.62643   2
   2  -3  -9 46.3919 3.72882   1
  -2   3   9 38.0777 4.04827   1
   1  -3  -9 39.7840 3.69447   1
   1  -3  -9 36.7692 4.49409   2
  -1   3   9 37.9966 4.11169   1
   0  -3  -9 258.026 14.0672   1
   0  -3  -9 248.343 14.4558   2
   0   3   9 242.551 14.1713   1
  -1  -3  -9 178.979 10.9137   1
  -1  -3  -9 173.316 10.9352   2
   1   3   9 190.565 11.2233   1
  -2  -3  -9 277.802 15.2176   1
  -2  -3  -9 243.141 14.7292   2
   2   3   9 277.058 15.4084   1
  -3  -3  -9 168.735 10.8877   1
  -3  -3  -9 187.506 10.6734   2
   3   3   9 163.982 10.9530   1
  -4  -3  -9 225.376 13.6149   1
  -4  -3  -9 222.808 12.9994   2
   4   3   9 227.256 13.6964   1
  -5  -3  -9 32.6634 3.81275   2
  -5  -3  -9 25.2486 4.07139   1
   5   3   9 35.9010 4.63915   1
  -6  -3  -9 2.63170 1.73004   2
  -6  -3  -9 4.61554 2.16574   1
   6   3   9 2.57209 1.99227   1
  -7  -3  -9 11.6568 2.98788   1
   7   3   9 7.98652 2.72198   1
  -8  -3  -9 5.25214 2.55874   1
   8   3   9 3.50740 2.69953   4
  -9  -3  -9 185.251 12.4220   1
   9   3   9 171.940 12.4280   4
  -9   4   9 2.43610 1.30328   1
  -8   4   9 15.3055 2.35470   1
  -7   4   9 -2.1901 1.04375   1
  -6   4   9 69.7969 5.06483   1
  -5   4   9 41.7213 3.82782   1
   4  -4  -9 85.4034 7.24272   2
  -4   4   9 97.8704 6.32932   1
   3  -4  -9 53.5296 5.83956   2
  -3   4   9 53.6857 4.51609   1
   2  -4  -9 53.4724 4.17533   1
   2  -4  -9 52.8686 5.13176   2
  -2   4   9 41.3603 4.39124   1
   1  -4  -9 18.1589 2.70661   1
   1  -4  -9 17.8684 3.18255   2
  -1   4   9 21.6792 3.08014   1
   0  -4  -9 0.59744 1.50485   1
   0  -4  -9 1.29706 1.75439   2
   0   4   9 -1.6115 1.15869   1
  -1  -4  -9 -0.1426 1.26426   2
  -1  -4  -9 0.09174 1.40615   1
   1   4   9 -2.0511 1.14735   1
  -2  -4  -9 49.7923 4.33625   2
  -2  -4  -9 43.0088 4.75677   1
   2   4   9 51.9530 5.21636   1
  -3  -4  -9 92.8391 7.50261   1
  -3  -4  -9 105.256 7.03838   2
   3   4   9 124.580 8.04619   1
  -4  -4  -9 8.00239 2.05273   2
  -4  -4  -9 7.64451 2.62210   1
   4   4   9 8.51982 2.42670   1
  -5  -4  -9 14.6317 2.46422   2
  -5  -4  -9 15.5514 3.17172   1
   5   4   9 12.1066 2.97448   1
  -6  -4  -9 21.3323 3.79614   1
   6   4   9 16.8466 3.41479   1
  -7  -4  -9 6.83456 2.71195   1
  -8  -4  -9 46.3180 5.79902   1
   8   4   9 40.7515 6.02228   4
  -9  -4  -9 13.8402 3.58855   1
   9   4   9 18.8579 4.34429   4
  -8   5   9 -0.3112 1.41019   1
  -7   5   9 41.5696 4.14549   1
  -6   5   9 199.055 11.4774   1
  -5   5   9 55.3288 4.61908   1
  -4   5   9 182.688 10.7674   1
   3  -5  -9 97.8822 7.64967   2
  -3   5   9 118.112 7.37156   1
   2  -5  -9 9.67131 2.55307   2
   2  -5  -9 8.48200 2.00654   1
  -2   5   9 8.95894 2.15294   1
   1  -5  -9 164.577 10.6081   2
   1  -5  -9 168.991 10.2675   1
  -1   5   9 186.522 10.6297   1
   0  -5  -9 2.08742 1.53913   2
   0  -5  -9 1.55980 1.52459   1
   0   5   9 3.84213 1.87059   1
  -1  -5  -9 97.7819 6.21748   2
  -1  -5  -9 84.7870 6.34872   1
   1   5   9 73.3367 6.27412   1
  -2  -5  -9 16.8742 2.60726   2
  -2  -5  -9 18.6631 3.02528   1
   2   5   9 11.0669 2.63936   1
  -3  -5  -9 292.063 14.7982   2
  -3  -5  -9 251.126 15.4096   1
   3   5   9 264.235 15.6586   1
  -4  -5  -9 163.564 10.4086   1
  -4  -5  -9 156.625 9.12380   2
   4   5   9 155.012 10.3167   1
  -5  -5  -9 313.219 18.2434   1
   5   5   9 323.059 18.3062   1
  -6  -5  -9 43.7039 5.40699   1
   6   5   9 49.4626 5.44809   1
  -7  -5  -9 7.86713 2.75777   1
   7   5   9 10.7324 3.45760   4
  -8  -5  -9 117.711 9.17958   1
   8   5   9 117.772 9.58483   4
  -9  -5  -9 207.092 13.5384   1
   9   5   9 199.072 14.1591   4
  -8   6   9 72.8497 5.77278   1
  -7   6   9 73.0459 5.82513   1
  -6   6   9 62.1280 5.26059   1
  -5   6   9 463.555 24.3279   1
  -4   6   9 765.396 38.8767   1
  -3   6   9 160.020 9.90645   1
   2  -6  -9 101.228 6.88879   1
  -2   6   9 104.790 7.16032   1
   1  -6  -9 102.540 6.72429   1
  -1   6   9 89.0992 6.72947   1
   0  -6  -9 482.774 26.4265   1
   0  -6  -9 516.286 26.3721   2
   0   6   9 517.940 26.7271   1
  -1  -6  -9 344.975 18.5925   2
  -1  -6  -9 356.959 19.1647   1
   1   6   9 347.855 19.3049   1
  -2  -6  -9 355.437 20.6279   1
   2   6   9 410.397 21.1434   1
  -3  -6  -9 272.470 13.9795   2
  -3  -6  -9 241.346 14.9329   1
   3   6   9 259.219 15.1844   1
  -4  -6  -9 480.182 25.1534   1
   4   6   9 447.921 25.0346   1
  -5  -6  -9 605.032 32.8307   1
   5   6   9 644.465 33.0975   1
  -6  -6  -9 123.071 8.92197   1
   6   6   9 129.345 9.84972   4
   6   6   9 121.109 8.85933   1
  -7  -6  -9 -1.4070 1.83062   1
   7   6   9 -2.0262 1.97826   4
  -8  -6  -9 3.72589 2.46780   1
   8   6   9 7.86342 3.48755   4
  -8   7   9 50.7139 5.11436   1
  -7   7   9 59.0037 5.37512   1
  -6   7   9 61.3741 5.62246   1
  -5   7   9 206.864 12.3297   1
  -4   7   9 350.040 19.1807   1
  -3   7   9 169.701 10.4941   1
   2  -7  -9 106.026 7.31093   1
  -2   7   9 108.621 7.60406   1
   1  -7  -9 -2.2298 1.29529   1
  -1   7   9 -1.4645 1.35761   1
   0  -7  -9 43.4566 4.67524   1
   0   7   9 46.8674 5.06901   1
  -1  -7  -9 6.33212 2.27240   1
   1   7   9 2.92792 1.88994   1
  -2  -7  -9 418.211 22.4673   1
   2   7   9 408.611 22.4782   1
  -3  -7  -9 126.076 8.48494   1
   3   7   9 111.123 8.23455   1
  -4  -7  -9 545.379 29.3565   1
   4   7   9 560.886 29.5022   1
  -5  -7  -9 125.631 8.47099   1
   5   7   9 95.8438 7.84091   1
  -6  -7  -9 52.5787 5.91350   1
   6   7   9 50.9036 6.82382   4
  -7  -7  -9 53.0680 6.07217   1
   7   7   9 43.5896 6.33227   4
  -8  -7  -9 49.5868 6.01072   1
   8   7   9 49.8843 7.05602   4
  -7   8   9 23.4445 3.80688   1
  -6   8   9 26.4553 3.84658   1
  -5   8   9 143.653 9.53834   1
  -4   8   9 66.9367 5.76760   1
  -3   8   9 24.5370 3.60330   1
   2  -8  -9 20.9881 3.19830   1
  -2   8   9 15.3577 2.90501   1
   1  -8  -9 303.090 16.1380   1
  -1   8   9 265.134 16.0793   1
   0  -8  -9 37.4383 4.28127   1
   0   8   9 38.1825 4.45016   1
  -1  -8  -9 -0.4460 1.43951   1
   1   8   9 -1.7367 1.38400   1
  -2  -8  -9 32.1097 4.15336   1
   2   8   9 23.5079 3.71359   1
  -3  -8  -9 35.7707 4.54829   1
   3   8   9 38.5644 4.69638   1
  -4  -8  -9 550.263 30.3074   1
   4   8   9 550.938 31.5486   4
   4   8   9 615.496 30.5858   1
  -5  -8  -9 143.771 9.87461   1
   5   8   9 134.478 9.64322   1
   5   8   9 151.669 11.0552   4
  -6  -8  -9 20.1295 3.89114   1
   6   8   9 21.3987 4.68858   4
  -7  -8  -9 43.3842 5.49050   1
   7   8   9 36.9641 6.10947   4
  -8  -8  -9 16.0819 3.64759   1
   8   8   9 6.78877 3.54086   4
  -7   9   9 -0.8063 2.26589   1
  -6   9   9 35.7311 4.74832   1
  -5   9   9 108.779 8.18357   1
  -4   9   9 216.657 13.2883   1
  -3   9   9 166.127 10.7071   1
   2  -9  -9 108.526 7.82421   1
  -2   9   9 108.169 7.94749   1
   1  -9  -9 112.411 8.29838   1
  -1   9   9 126.571 8.53387   1
   0  -9  -9 32.8542 4.25327   1
   0   9   9 30.8956 4.08714   1
  -1  -9  -9 216.931 13.0729   1
   1   9   9 214.327 13.1306   1
  -2  -9  -9 51.2971 5.38517   1
   2   9   9 49.0165 5.39047   1
  -3  -9  -9 241.570 14.1387   1
   3   9   9 217.601 13.9637   1
   3   9   9 246.179 15.4934   4
  -4  -9  -9 139.081 9.93008   1
   4   9   9 152.987 10.0327   1
   4   9   9 147.332 11.1020   4
  -5  -9  -9 365.182 20.3603   1
   5   9   9 348.079 21.5382   4
  -6  -9  -9 364.594 20.4331   1
   6   9   9 343.427 21.6391   4
  -7  -9  -9 145.051 10.5374   1
   7   9   9 153.725 12.0378   4
  -6  10   9 51.9471 5.77022   1
  -5  10   9 144.908 10.1121   1
  -4  10   9 194.676 12.4501   1
  -3  10   9 350.946 19.9462   1
   2 -10  -9 687.831 35.1091   1
  -2  10   9 655.480 35.1543   1
   1 -10  -9 408.455 21.9279   1
  -1  10   9 382.663 21.9200   1
   0 -10  -9 137.265 9.18983   1
   0  10   9 119.115 8.91908   1
  -1 -10  -9 47.2279 5.34506   1
   1  10   9 46.7429 5.28368   1
   1  10   9 53.2820 6.48482   4
  -2 -10  -9 111.300 8.04019   1
   2  10   9 97.7039 7.65990   1
   2  10   9 97.5036 8.56404   4
  -3 -10  -9 563.589 29.1620   1
   3  10   9 513.386 28.8580   1
   3  10   9 545.407 30.3211   4
  -4 -10  -9 391.788 22.9556   1
   4  10   9 440.766 24.7150   4
   4  10   9 418.965 23.1085   1
  -5 -10  -9 340.407 19.4448   1
   5  10   9 336.730 20.8599   4
  -6 -10  -9 36.2999 5.12817   1
   6  10   9 54.1809 7.45381   4
  -5  11   9 103.204 8.43279   1
  -4  11   9 37.2386 4.98612   1
  -3  11   9 82.6838 7.22334   1
   2 -11  -9 78.8029 8.92633   1
  -2  11   9 86.0965 7.50523   4
  -2  11   9 88.3174 7.35857   1
   1 -11  -9 73.7640 6.40747   1
  -1  11   9 60.2680 6.93824   4
  -1  11   9 61.3009 6.45320   1
   0 -11  -9 62.8964 6.58266   1
   0  11   9 75.4998 7.05744   4
   0  11   9 70.3777 6.36612   1
  -1 -11  -9 39.9391 5.12261   1
   1  11   9 48.1358 6.42558   4
   1  11   9 41.6090 5.25210   1
  -2 -11  -9 4.85353 2.47733   1
   2  11   9 2.07195 3.03906   4
   2  11   9 3.43505 2.26108   1
  -3 -11  -9 11.0688 3.18851   1
   3  11   9 11.7010 3.05102   1
   3  11   9 11.6297 3.82812   4
  -4 -11  -9 76.0051 6.79204   1
   4  11   9 69.6565 8.28028   4
  -5 -11  -9 187.441 12.7463   1
   5  11   9 211.695 14.3667   4
  -3  12   9 65.8463 7.00969   1
  -2  12   9 50.6668 6.01158   1
   1 -12  -9 -6.3947 1.76190   1
  -1  12   9 -1.2072 1.92768   4
  -1  12   9 -1.1173 2.13363   1
   0 -12  -9 -0.3427 2.30921   1
   0  12   9 1.78555 2.31182   4
   0  12   9 -2.6489 1.91780   1
  -1 -12  -9 3.15663 2.86314   1
   1  12   9 8.55532 2.84099   1
   1  12   9 13.5664 3.63240   4
  -2 -12  -9 -0.6491 2.33852   1
   2  12   9 -2.3495 1.57209   1
   2  12   9 0.03829 2.41359   4
  -3 -12  -9 0.17867 2.22069   1
   3  12   9 -1.4102 2.57696   4
  -4 -12  -9 17.4651 3.77298   1
   4  12   9 20.4986 4.96536   4
   2   5 -10 36.2957 6.68507   2
  -2  -5  10 43.8617 5.30300   1
   1   5 -10 0.03359 3.13006   2
  -1  -5  10 -1.3139 2.06988   1
   0   5 -10 10.3072 4.16999   2
   0  -5  10 6.07931 2.84892   1
  -1   5 -10 -4.8233 2.57223   2
   1  -5  10 0.88919 2.52337   1
   4   4 -10 26.3774 5.18422   2
  -4  -4  10 19.9666 3.18625   1
   3   4 -10 111.669 10.1873   2
  -3  -4  10 103.166 7.75449   1
   2   4 -10 134.218 11.0699   2
  -2  -4  10 140.531 9.73448   1
   1   4 -10 101.141 9.46585   2
  -1  -4  10 98.7147 7.94254   1
   0   4 -10 41.8044 6.44890   2
   0  -4  10 26.2595 4.40399   1
  -1   4 -10 26.2326 5.38534   2
   1  -4  10 16.9162 3.64435   1
  -2   4 -10 64.4990 7.71716   2
   2  -4  10 53.0921 6.65643   1
  -3   4 -10 91.7409 8.20025   2
   3  -4  10 73.9153 8.15855   1
  -4   4 -10 153.937 12.2638   2
   4  -4  10 166.485 12.1539   1
   5   3 -10 64.5277 8.13391   2
  -5  -3  10 61.9285 4.91750   1
   4   3 -10 161.430 12.0662   2
  -4  -3  10 130.800 8.95919   1
   3   3 -10 232.693 15.6831   2
  -3  -3  10 229.843 13.6945   1
   2   3 -10 294.644 18.7555   2
  -2  -3  10 289.520 16.8422   1
   1   3 -10 226.334 15.5769   2
  -1  -3  10 237.688 14.3329   1
   0   3 -10 119.501 9.60376   2
   0  -3  10 106.908 8.64210   1
  -1   3 -10 106.183 9.77409   2
   1  -3  10 132.968 9.41533   1
  -2   3 -10 29.4081 5.06366   2
   2  -3  10 21.2172 4.17362   1
  -3   3 -10 76.8467 7.19538   2
   3  -3  10 62.5185 7.26087   1
  -4   3 -10 116.768 9.98107   2
   4  -3  10 124.745 10.0488   1
  -5   3 -10 176.932 12.8708   2
   5  -3  10 183.091 13.0989   1
   6   2 -10 7.16383 4.09009   2
  -6  -2  10 8.16350 1.71951   1
   5   2 -10 -0.0080 2.44387   2
  -5  -2  10 0.55077 1.18516   1
   4   2 -10 17.3579 4.77302   2
  -4  -2  10 14.1956 2.56960   1
   3   2 -10 164.711 12.2032   2
  -3  -2  10 166.280 10.5291   1
   2   2 -10 363.001 22.0882   2
  -2  -2  10 373.262 20.4558   1
   1   2 -10 118.346 9.65158   2
  -1  -2  10 128.985 8.98493   1
   0   2 -10 13.7082 3.95185   2
   0  -2  10 12.7289 3.01147   1
  -1   2 -10 -1.7183 2.40951   2
   1  -2  10 -1.7626 1.42816   1
  -2   2 -10 2.48498 2.72935   2
   2  -2  10 2.41590 2.35256   1
  -3   2 -10 23.7426 4.45119   2
   3  -2  10 12.2860 3.51580   1
  -4   2 -10 -1.9877 2.20221   2
  -4   2 -10 -0.8934 1.61323   1
   4  -2  10 -2.4262 2.05511   1
  -5   2 -10 3.87204 2.96592   2
  -5   2 -10 1.04172 2.07767   1
   5  -2  10 1.18168 2.34561   1
  -6   2 -10 62.1372 7.14884   1
  -6   2 -10 57.5558 7.12746   2
   6  -2  10 53.6121 6.72982   1
   7   1 -10 25.7289 5.17220   2
   6   1 -10 38.9586 6.48593   2
  -6  -1  10 38.0319 3.30018   1
   5   1 -10 0.22088 2.27651   2
  -5  -1  10 3.20238 1.36870   1
   4   1 -10 -4.5402 2.43596   2
  -4  -1  10 -1.2905 1.16775   1
   3   1 -10 74.7486 7.41186   2
  -3  -1  10 81.9457 6.14826   1
   2   1 -10 277.200 16.7562   2
  -2  -1  10 241.395 14.8130   1
   1   1 -10 158.583 11.4785   2
  -1  -1  10 165.841 10.6218   1
   0   1 -10 39.2154 5.70275   2
   0  -1  10 54.6465 5.60265   1
  -1   1 -10 14.5389 3.73398   2
   1  -1  10 14.1865 3.24902   1
  -2   1 -10 23.2982 4.17392   2
   2  -1  10 16.9244 3.50358   1
  -3   1 -10 8.99054 2.72415   2
  -3   1 -10 10.6963 2.96182   1
   3  -1  10 7.44418 2.85520   1
  -4   1 -10 25.6850 4.31407   1
  -4   1 -10 21.1305 4.18465   2
   4  -1  10 18.6755 3.91604   1
  -5   1 -10 6.94608 3.05738   2
  -5   1 -10 15.4423 3.57271   1
   5  -1  10 7.86928 3.14987   1
  -6   1 -10 7.13498 3.27739   2
  -6   1 -10 7.43678 2.94579   1
   6  -1  10 8.50477 3.20172   1
  -7   1 -10 20.2807 4.43997   1
  -7   1 -10 21.0997 4.22922   2
   7  -1  10 16.8549 3.96307   1
   7   0 -10 79.1528 9.12752   2
   6   0 -10 128.108 10.6025   2
  -6   0  10 135.773 7.80200   1
   5   0 -10 68.5224 8.09794   2
  -5   0  10 69.1311 5.04216   1
   4   0 -10 219.923 14.7269   2
  -4   0  10 225.055 12.6973   1
   3   0 -10 248.444 15.8116   2
  -3   0  10 239.664 13.8896   1
   2   0 -10 132.539 10.2449   2
  -2   0  10 150.777 9.38436   1
   1   0 -10 124.910 9.73380   2
  -1   0  10 124.778 8.65205   1
   0   0 -10 141.975 10.5554   2
   0   0  10 153.639 9.99508   1
  -1   0 -10 523.233 27.7846   2
   1   0  10 481.409 27.0624   1
  -2   0 -10 87.5086 7.07135   1
  -2   0 -10 92.3604 7.55398   2
   2   0  10 80.9291 7.08673   1
  -3   0 -10 108.108 8.52429   1
  -3   0 -10 115.913 8.77557   2
   3   0  10 128.776 9.11047   1
  -4   0 -10 1.50145 1.95817   2
  -4   0 -10 1.44965 2.16140   1
   4   0  10 1.05180 2.16733   1
  -5   0 -10 141.380 10.1221   2
  -5   0 -10 130.900 10.0821   1
   5   0  10 144.052 10.4739   1
  -6   0 -10 456.491 25.3729   2
  -6   0 -10 459.334 25.6439   1
   6   0  10 424.470 25.4169   1
  -7   0 -10 390.817 23.5030   1
  -7   0 -10 413.644 23.2607   2
   7   0  10 398.738 23.5571   1
   7  -1 -10 243.306 16.6265   2
  -7   1  10 243.021 12.7072   1
   6  -1 -10 62.7412 7.94570   2
  -6   1  10 67.6001 4.68570   1
   5  -1 -10 -0.1552 2.17271   2
  -5   1  10 3.07403 1.52887   1
   4  -1 -10 99.0473 9.07111   2
  -4   1  10 108.335 7.03231   1
   3  -1 -10 490.317 28.3623   2
  -3   1  10 533.777 26.8959   1
   2  -1 -10 957.848 46.7318   2
  -2   1  10 834.078 45.0521   1
   1  -1 -10 255.654 15.9491   2
  -1   1  10 274.205 15.3181   1
   0  -1 -10 402.803 21.6399   2
   0   1  10 352.374 20.6860   1
  -1  -1 -10 205.537 12.8709   2
  -1  -1 -10 197.042 12.2882   1
   1   1  10 211.629 12.8254   1
  -2  -1 -10 196.707 12.5080   2
  -2  -1 -10 197.508 12.2109   1
   2   1  10 189.403 12.4019   1
  -3  -1 -10 192.631 12.2288   2
  -3  -1 -10 183.479 11.9792   1
   3   1  10 184.421 12.1822   1
  -4  -1 -10 7.97491 2.61684   2
  -4  -1 -10 11.4206 2.98837   1
   4   1  10 3.64778 2.41367   1
  -5  -1 -10 100.563 8.50136   1
  -5  -1 -10 120.159 8.45015   2
   5   1  10 103.716 8.59337   1
  -6  -1 -10 267.355 16.3979   2
  -6  -1 -10 303.440 17.2869   1
   6   1  10 248.769 16.7086   1
  -7  -1 -10 281.944 18.1596   1
   7   1  10 308.588 18.3663   1
   6  -2 -10 -2.4228 2.67419   2
  -6   2  10 -0.3769 1.12251   1
   5  -2 -10 11.7093 3.54180   2
  -5   2  10 13.1967 2.28900   1
   4  -2 -10 -3.2928 2.36711   2
  -4   2  10 1.33789 1.45203   1
   3  -2 -10 1.24014 1.93292   2
  -3   2  10 1.34738 1.61295   1
   2  -2 -10 13.7701 3.62033   2
  -2   2  10 23.8174 3.34405   1
   1  -2 -10 116.892 8.80977   2
  -1   2  10 118.362 8.07020   1
   0  -2 -10 890.780 42.4369   2
   0  -2 -10 785.745 41.3823   1
   0   2  10 768.344 41.5827   1
  -1  -2 -10 -1.0519 1.41369   1
  -1  -2 -10 -1.0622 1.72465   2
   1   2  10 -0.5651 1.68366   1
  -2  -2 -10 58.5498 5.35092   2
  -2  -2 -10 53.3074 5.46901   1
   2   2  10 44.5937 5.34363   1
  -3  -2 -10 66.0572 6.09795   1
  -3  -2 -10 74.8800 6.22854   2
   3   2  10 77.9426 6.56599   1
  -4  -2 -10 8.19611 2.67776   1
  -4  -2 -10 3.17488 2.14320   2
   4   2  10 9.25110 2.75223   1
  -5  -2 -10 34.5971 4.47719   2
  -5  -2 -10 31.4871 4.76964   1
   5   2  10 31.1392 4.78205   1
  -6  -2 -10 116.940 8.52125   2
  -6  -2 -10 135.967 9.61617   1
   6   2  10 106.625 8.97410   1
  -7  -2 -10 33.7712 5.15566   1
   7   2  10 24.8754 4.38916   1
  -8  -2 -10 40.5910 5.85892   1
  -8   3  10 47.9593 3.78345   1
  -7   3  10 40.9774 3.64228   1
  -6   3  10 0.32520 1.24402   1
   5  -3 -10 -0.8330 1.79713   2
  -5   3  10 1.27065 1.41169   1
   4  -3 -10 -2.1760 2.13447   2
  -4   3  10 0.47023 1.28117   1
   3  -3 -10 23.5671 4.43651   2
  -3   3  10 29.4796 3.64936   1
   2  -3 -10 15.7070 3.28948   2
  -2   3  10 22.3666 3.31118   1
   1  -3 -10 1.43455 2.29616   2
  -1   3  10 0.51696 1.54857   1
   0  -3 -10 2.80468 1.72663   1
   0  -3 -10 0.73394 1.88341   2
   0   3  10 -0.9156 1.57471   1
  -1  -3 -10 90.1730 7.03833   2
  -1  -3 -10 89.8955 6.88921   1
   1   3  10 100.988 7.29514   1
  -2  -3 -10 323.071 18.6532   2
  -2  -3 -10 325.649 18.7685   1
   2   3  10 361.007 19.2510   1
  -3  -3 -10 1.67023 1.65458   2
  -3  -3 -10 6.21596 2.39063   1
   3   3  10 2.12326 2.02874   1
  -4  -3 -10 6.71858 2.21518   2
  -4  -3 -10 8.08967 2.56228   1
   4   3  10 6.89290 2.52283   1
  -5  -3 -10 0.45815 1.75758   1
  -5  -3 -10 0.84450 1.53319   2
   5   3  10 3.29807 2.14915   1
  -6  -3 -10 21.2565 3.90949   1
   6   3  10 17.9655 3.83482   1
  -7  -3 -10 58.0459 6.48431   1
   7   3  10 47.0033 6.02532   1
  -8  -3 -10 58.2027 6.87790   1
  -8   4  10 82.7392 5.65827   1
  -7   4  10 47.6108 4.11398   1
  -6   4  10 121.784 7.75623   1
  -5   4  10 195.953 11.3884   1
   4  -4 -10 5.23861 2.85449   2
  -4   4  10 5.18565 1.87650   1
   3  -4 -10 16.3848 3.32648   2
  -3   4  10 13.0737 2.68576   1
   2  -4 -10 11.8993 3.12716   2
  -2   4  10 10.8598 2.56956   1
   1  -4 -10 783.420 38.8833   1
   1  -4 -10 809.340 39.7956   2
  -1   4  10 700.818 38.9335   1
   0  -4 -10 14.1411 2.72515   1
   0  -4 -10 7.26481 2.51946   2
   0   4  10 13.7488 2.86413   1
  -1  -4 -10 209.623 13.3672   2
  -1  -4 -10 239.999 13.5657   1
   1   4  10 242.160 13.8612   1
  -2  -4 -10 29.1245 3.82209   2
  -2  -4 -10 20.0428 3.56109   1
   2   4  10 22.1464 3.73270   1
  -3  -4 -10 155.631 10.5334   1
  -3  -4 -10 156.083 9.97131   2
   3   4  10 175.881 10.8613   1
  -4  -4 -10 82.1616 7.03228   1
  -4  -4 -10 92.3222 6.39127   2
   4   4  10 83.0896 7.01157   1
  -5  -4 -10 58.3040 6.43802   1
   5   4  10 70.4511 7.04737   1
  -6  -4 -10 47.7213 5.80342   1
   6   4  10 50.0917 5.87617   1
  -7  -4 -10 241.059 15.2608   1
  -8  -4 -10 376.799 21.4126   1
   8   4  10 342.330 21.4145   4
  -8   5  10 165.167 9.90609   1
  -7   5  10 154.315 9.43358   1
  -6   5  10 99.1991 6.87530   1
  -5   5  10 88.2287 6.40946   1
  -4   5  10 123.238 8.14631   1
   3  -5 -10 162.268 10.7442   2
  -3   5  10 155.845 9.94730   1
   2  -5 -10 201.185 12.6461   2
  -2   5  10 202.142 12.0501   1
   1  -5 -10 335.525 18.5246   1
   1  -5 -10 331.354 18.9626   2
  -1   5  10 352.545 18.9364   1
   0  -5 -10 397.017 20.7912   1
   0  -5 -10 384.274 20.9687   2
   0   5  10 364.229 20.8860   1
  -1  -5 -10 1339.48 66.5267   1
  -1  -5 -10 1261.41 66.2102   2
   1   5  10 1402.52 66.8486   1
  -2  -5 -10 331.755 19.0071   1
  -2  -5 -10 338.869 18.6028   2
   2   5  10 356.953 19.3810   1
  -3  -5 -10 68.1503 6.23090   1
  -3  -5 -10 77.3485 5.74041   2
   3   5  10 92.5522 6.87223   1
  -4  -5 -10 25.7348 3.96013   1
   4   5  10 20.4593 3.63536   1
  -5  -5 -10 71.4148 6.49227   1
   5   5  10 68.6326 6.33327   1
  -6  -5 -10 208.616 12.9428   1
   6   5  10 176.567 12.3395   1
  -7  -5 -10 187.613 12.6507   1
  -8  -5 -10 86.7298 8.11486   1
   8   5  10 106.636 8.98113   4
  -7   6  10 145.376 9.33850   1
  -6   6  10 251.374 14.3589   1
  -5   6  10 41.3834 4.53988   1
  -4   6  10 7.82917 2.31312   1
  -3   6  10 2.37807 1.87750   1
  -2   6  10 192.363 11.7649   1
   1  -6 -10 36.3181 4.18046   1
   1  -6 -10 46.5981 5.03257   2
  -1   6  10 40.6479 4.65187   1
   0  -6 -10 152.321 9.76910   2
   0  -6 -10 158.463 9.97577   1
   0   6  10 153.997 10.0995   1
  -1  -6 -10 171.309 10.3939   2
  -1  -6 -10 164.237 10.8363   1
   1   6  10 187.113 11.3010   1
  -2  -6 -10 142.911 9.44711   1
  -2  -6 -10 142.140 8.75329   2
   2   6  10 138.535 9.56674   1
  -3  -6 -10 205.518 12.4745   1
   3   6  10 192.057 12.4095   1
  -4  -6 -10 27.6762 4.17895   1
   4   6  10 19.1656 3.58099   1
  -5  -6 -10 3.10120 2.28521   1
   5   6  10 1.17971 1.93427   1
  -6  -6 -10 13.3694 3.39770   1
   6   6  10 17.5189 3.55244   1
  -7  -6 -10 66.6452 6.93005   1
   7   6  10 55.2953 7.43853   4
  -8  -6 -10 38.3301 5.37515   1
   8   6  10 44.3440 6.38413   4
  -7   7  10 2.13804 1.99537   1
  -6   7  10 53.9553 5.07568   1
  -5   7  10 67.5576 5.78289   1
  -4   7  10 107.706 7.78954   1
  -3   7  10 7.67507 2.37880   1
  -2   7  10 1.10426 1.58744   1
   1  -7 -10 3.65838 1.90447   1
  -1   7  10 1.86869 1.86972   1
   0  -7 -10 259.667 14.7433   1
   0   7  10 248.060 14.8621   1
  -1  -7 -10 245.765 14.2068   1
   1   7  10 231.208 14.1567   1
  -2  -7 -10 99.3139 7.60429   1
   2   7  10 105.457 7.77717   1
  -3  -7 -10 64.1183 5.85931   1
   3   7  10 57.4226 6.12696   1
  -4  -7 -10 8.57862 2.64742   1
   4   7  10 8.46376 2.71801   1
  -5  -7 -10 29.5807 4.48321   1
   5   7  10 22.1921 4.00681   1
  -6  -7 -10 1.21350 2.27321   1
   6   7  10 -3.7742 2.35021   4
  -7  -7 -10 3.56648 2.63288   1
   7   7  10 -2.7518 2.32184   4
  -7   8  10 148.324 9.94332   1
  -6   8  10 187.192 11.8251   1
  -5   8  10 90.4072 7.26070   1
  -4   8  10 74.1137 6.28949   1
  -3   8  10 82.3751 6.64823   1
  -2   8  10 126.854 8.78214   1
   1  -8 -10 78.0489 6.24259   1
  -1   8  10 74.5472 6.37409   1
   0  -8 -10 205.410 12.0537   1
   0   8  10 181.206 11.9527   1
  -1  -8 -10 161.834 10.3294   1
   1   8  10 154.011 10.3950   1
  -2  -8 -10 489.494 25.7331   1
   2   8  10 457.722 25.6525   1
  -3  -8 -10 301.564 17.0505   1
   3   8  10 277.365 16.8018   1
  -4  -8 -10 151.784 10.7353   1
   4   8  10 168.178 10.9091   1
  -5  -8 -10 71.1788 7.25119   1
   5   8  10 81.4412 8.01199   4
   5   8  10 60.0863 6.62572   1
  -6  -8 -10 35.2333 5.02737   1
   6   8  10 30.5937 5.71481   4
  -7  -8 -10 111.915 8.89910   1
   7   8  10 108.886 9.96181   4
  -6   9  10 292.931 17.1667   1
  -5   9  10 429.618 23.6627   1
  -4   9  10 160.604 10.6723   1
  -3   9  10 32.9659 4.46272   1
  -2   9  10 90.4596 7.24674   1
   1  -9 -10 301.815 17.0412   1
  -1   9  10 291.849 17.1167   1
   0  -9 -10 464.861 25.0237   1
   0   9  10 461.871 25.2668   1
  -1  -9 -10 229.522 13.8250   1
   1   9  10 221.512 13.7584   1
  -2  -9 -10 291.772 16.9748   1
   2   9  10 294.208 17.2024   1
  -3  -9 -10 340.164 19.3986   1
   3   9  10 338.526 19.4527   1
  -4  -9 -10 470.029 24.7729   1
   4   9  10 419.601 25.7657   4
   4   9  10 440.602 24.5646   1
  -5  -9 -10 104.460 8.37718   1
   5   9  10 103.716 9.49848   4
  -6  -9 -10 31.5477 4.91703   1
   6   9  10 28.5778 5.79200   4
  -5  10  10 99.5047 7.99348   1
  -4  10  10 22.0814 3.84599   1
  -3  10  10 68.9010 6.33628   1
  -2  10  10 2.47961 2.06718   1
   1 -10 -10 1.57604 2.34774   1
  -1  10  10 6.61356 2.58748   1
   0 -10 -10 5.01920 2.37641   1
   0  10  10 3.87769 2.21632   1
  -1 -10 -10 65.6601 5.96693   1
   1  10  10 58.4304 6.16117   1
  -2 -10 -10 91.6661 7.29345   1
   2  10  10 69.2606 6.77908   1
   2  10  10 91.1835 8.45959   4
  -3 -10 -10 107.460 8.05343   1
   3  10  10 90.1709 7.57352   1
   3  10  10 92.6959 8.80916   4
  -4 -10 -10 38.8054 4.97954   1
   4  10  10 40.1936 6.09417   4
   4  10  10 37.6311 4.91617   1
  -5 -10 -10 0.00616 2.05378   1
   5  10  10 3.36495 3.38835   4
  -6 -10 -10 30.0716 4.83223   1
   6  10  10 28.6832 5.71417   4
  -4  11  10 -0.8909 2.15545   1
  -3  11  10 -0.7472 2.04604   1
  -2  11  10 3.66371 2.42953   1
   1 -11 -10 -0.2696 2.00700   1
  -1  11  10 2.23240 1.95683   1
  -1  11  10 1.08937 2.19911   4
   0 -11 -10 11.8083 3.22051   1
   0  11  10 18.5952 4.24218   4
   0  11  10 13.2899 3.21032   1
  -1 -11 -10 5.56141 2.74320   1
   1  11  10 9.36212 3.45745   4
   1  11  10 7.82972 2.67990   1
  -2 -11 -10 74.7710 6.71622   1
   2  11  10 73.0560 6.55054   1
   2  11  10 65.9424 7.87530   4
  -3 -11 -10 206.181 13.4910   1
   3  11  10 222.523 13.6605   1
   3  11  10 214.998 14.8970   4
  -4 -11 -10 19.4144 4.00091   1
   4  11  10 15.8526 4.40710   4
  -2  12  10 -1.0855 2.15036   1
  -1  12  10 -0.3846 2.03205   4
  -1  12  10 -0.8196 2.31832   1
   0 -12 -10 9.38271 3.32943   1
   0  12  10 15.6902 3.93662   4
   0  12  10 11.3665 3.23241   1
  -1 -12 -10 4.93693 3.00871   1
   1  12  10 11.4059 3.03429   1
   1  12  10 10.1802 3.51354   4
  -2 -12 -10 45.2816 5.73451   1
   2  12  10 44.3148 6.61730   4
   2  12  10 43.6288 5.51395   1
  -3 -12 -10 90.6541 7.80816   1
   3   3 -11 54.3923 7.39840   2
  -3  -3  11 46.2539 5.13084   1
   2   3 -11 40.8889 6.63743   2
  -2  -3  11 47.7619 5.36652   1
   1   3 -11 1.23164 3.04156   2
  -1  -3  11 2.44607 2.30031   1
   0   3 -11 -3.8981 2.43167   2
   0  -3  11 -2.5680 1.83212   1
  -1   3 -11 1.08148 3.22456   2
   1  -3  11 2.46259 2.61425   1
  -2   3 -11 38.5688 6.19310   2
   2  -3  11 28.7335 4.91981   1
  -3   3 -11 51.1136 7.01027   2
   3  -3  11 52.1204 6.76840   1
   4   2 -11 46.5734 6.70137   2
  -4  -2  11 41.3559 4.45743   1
   3   2 -11 17.7432 4.91431   2
  -3  -2  11 23.6870 3.55621   1
   2   2 -11 17.7059 4.86170   2
  -2  -2  11 16.9212 3.30021   1
   1   2 -11 35.5544 6.02749   2
  -1  -2  11 43.8390 5.24591   1
   0   2 -11 78.4372 7.86889   2
   0  -2  11 97.7807 7.65090   1
  -1   2 -11 1.28037 2.21974   2
   1  -2  11 0.73168 2.23806   1
  -2   2 -11 6.09528 3.32160   2
   2  -2  11 6.91819 2.90300   1
  -3   2 -11 64.2482 7.90583   2
   3  -2  11 57.1091 6.96280   1
  -4   2 -11 44.3769 6.35685   2
   4  -2  11 46.7246 6.27178   1
   5   1 -11 125.016 10.8495   2
  -5  -1  11 106.494 7.33780   1
   4   1 -11 105.812 9.56974   2
  -4  -1  11 107.453 7.47912   1
   3   1 -11 413.591 23.7884   2
  -3  -1  11 374.678 21.3145   1
   2   1 -11 87.4379 8.58276   2
  -2  -1  11 78.5833 6.72104   1
   1   1 -11 56.6268 7.06550   2
  -1  -1  11 65.4302 6.47346   1
   0   1 -11 19.0620 4.09868   2
   0  -1  11 20.2886 3.71491   1
  -1   1 -11 88.8697 8.34300   2
   1  -1  11 99.4359 7.95611   1
  -2   1 -11 191.085 13.3273   2
   2  -1  11 194.166 12.9666   1
  -3   1 -11 250.676 16.2929   2
   3  -1  11 257.908 16.2096   1
  -4   1 -11 127.309 9.99714   2
   4  -1  11 115.536 9.69201   1
  -5   1 -11 322.150 19.5446   2
  -5   1 -11 290.184 19.5996   1
   5  -1  11 337.540 19.7971   1
   6   0 -11 143.483 11.5386   2
  -6   0  11 142.305 8.43373   1
   5   0 -11 285.392 18.0307   2
  -5   0  11 251.752 14.5843   1
   4   0 -11 273.202 17.9188   2
  -4   0  11 273.585 15.4265   1
   3   0 -11 206.377 14.4840   2
  -3   0  11 221.409 12.9329   1
   2   0 -11 107.592 9.17065   2
  -2   0  11 92.8837 7.44762   1
   1   0 -11 238.264 15.0883   2
  -1   0  11 214.142 13.6556   1
   0   0 -11 14.4061 3.51292   2
   0   0  11 10.5084 2.78058   1
  -1   0 -11 16.0364 3.71139   2
   1   0  11 14.2962 3.28838   1
  -2   0 -11 169.448 12.0516   2
   2   0  11 177.433 11.9419   1
  -3   0 -11 280.259 17.0090   2
   3   0  11 258.636 16.6474   1
  -4   0 -11 296.715 18.6552   2
  -4   0 -11 306.657 18.5642   1
   4   0  11 319.148 18.8777   1
  -5   0 -11 288.900 17.1618   1
   5   0  11 248.038 16.8081   1
  -6   0 -11 100.710 8.91637   1
  -6   0 -11 111.980 8.94426   2
   6   0  11 99.7443 8.97365   1
   6  -1 -11 7.07994 3.92981   2
  -6   1  11 4.65854 1.67280   1
   5  -1 -11 1.68256 2.62506   2
  -5   1  11 0.77743 1.44146   1
   4  -1 -11 249.843 16.4473   2
  -4   1  11 242.628 14.0498   1
   3  -1 -11 120.242 9.72297   2
  -3   1  11 102.533 7.62836   1
   2  -1 -11 75.7184 7.50788   2
  -2   1  11 79.3161 6.42302   1
   1  -1 -11 12.4943 3.57497   2
  -1   1  11 10.1777 2.68722   1
   0  -1 -11 -0.4627 2.19426   2
   0   1  11 0.86555 1.70860   1
  -1  -1 -11 22.8459 4.31939   2
   1   1  11 20.0834 3.68498   1
  -2  -1 -11 33.0387 4.91340   2
   2   1  11 35.7750 4.86337   1
  -3  -1 -11 54.4255 6.22648   2
  -3  -1 -11 63.3108 6.51890   1
   3   1  11 45.8977 5.83784   1
  -4  -1 -11 63.2926 7.09943   2
  -4  -1 -11 64.4884 6.93546   1
   4   1  11 64.7990 7.06360   1
  -5  -1 -11 111.508 9.22986   2
  -5  -1 -11 119.075 9.39284   1
   5   1  11 136.022 9.98969   1
  -6  -1 -11 105.685 9.09158   1
  -6  -1 -11 116.575 8.80201   2
   6   1  11 102.412 9.06129   1
   7  -2 -11 -0.6630 2.24018   2
  -7   2  11 -0.0297 1.12487   1
   6  -2 -11 5.39355 2.80403   2
  -6   2  11 1.33414 1.40519   1
   5  -2 -11 -1.3027 2.85180   2
  -5   2  11 2.75497 1.60489   1
   4  -2 -11 2.52764 2.84193   2
  -4   2  11 2.29682 1.88404   1
   3  -2 -11 -1.9750 2.37457   2
  -3   2  11 -1.5386 1.61358   1
   2  -2 -11 117.721 9.11972   2
  -2   2  11 115.079 8.22043   1
   1  -2 -11 7.74730 3.02333   2
  -1   2  11 8.74378 2.58106   1
   0  -2 -11 4.57659 2.72615   2
   0   2  11 5.38840 2.34467   1
  -1  -2 -11 12.0074 3.24726   2
   1   2  11 10.0389 2.82057   1
  -2  -2 -11 9.75815 2.69238   1
  -2  -2 -11 7.82474 2.86467   2
   2   2  11 9.28748 2.78455   1
  -3  -2 -11 12.8100 3.34533   2
  -3  -2 -11 14.7813 3.34610   1
   3   2  11 14.6893 3.41964   1
  -4  -2 -11 75.3400 6.75267   1
  -4  -2 -11 63.1275 6.51278   2
   4   2  11 78.4714 7.02502   1
  -5  -2 -11 26.5910 4.43309   2
  -5  -2 -11 37.6851 5.35290   1
   5   2  11 33.1157 5.04940   1
  -6  -2 -11 65.1247 7.24415   1
   6   2  11 53.6741 6.77541   1
  -7  -2 -11 70.0073 7.65878   1
   7   2  11 60.7662 7.93389   1
  -7   3  11 -0.7837 1.21220   1
   6  -3 -11 10.6553 4.03725   2
  -6   3  11 17.4030 2.62651   1
   5  -3 -11 178.572 12.6774   2
  -5   3  11 165.089 10.2390   1
   4  -3 -11 210.383 13.7445   2
  -4   3  11 186.321 11.5960   1
   3  -3 -11 252.138 15.8390   2
  -3   3  11 242.942 14.3320   1
   2  -3 -11 47.5338 5.87003   2
  -2   3  11 38.1321 4.64698   1
   1  -3 -11 56.8635 6.34451   2
  -1   3  11 44.8885 5.22348   1
   0  -3 -11 135.731 9.41273   2
   0   3  11 119.118 8.76475   1
  -1  -3 -11 179.662 11.4047   1
  -1  -3 -11 183.657 11.7734   2
   1   3  11 176.931 11.6719   1
  -2  -3 -11 7.83165 2.61197   1
  -2  -3 -11 5.80512 2.39381   2
   2   3  11 4.83023 2.38472   1
  -3  -3 -11 45.3809 5.25410   2
  -3  -3 -11 52.1299 5.78587   1
   3   3  11 51.2205 6.01450   1
  -4  -3 -11 430.375 23.2032   1
  -4  -3 -11 408.780 22.4838   2
   4   3  11 386.282 23.1053   1
  -5  -3 -11 517.061 29.1082   1
  -5  -3 -11 554.616 30.4537   2
   5   3  11 521.301 29.2416   1
  -6  -3 -11 323.754 18.1569   1
   6   3  11 259.889 17.5859   1
  -7  -3 -11 46.4846 6.20637   1
  -7   4  11 10.4414 2.26752   1
  -6   4  11 18.1729 2.84077   1
   5  -4 -11 160.380 11.9817   2
  -5   4  11 162.245 10.0094   1
   4  -4 -11 228.401 14.7592   2
  -4   4  11 218.515 13.0414   1
   3  -4 -11 571.286 32.3370   2
  -3   4  11 623.345 31.3060   1
   2  -4 -11 305.751 18.1414   2
  -2   4  11 302.089 17.2467   1
   1  -4 -11 245.295 14.3985   2
  -1   4  11 210.488 13.4431   1
   0  -4 -11 267.164 15.1673   2
   0   4  11 227.702 14.5684   1
  -1  -4 -11 139.776 9.58266   2
  -1  -4 -11 137.499 9.39806   1
   1   4  11 152.498 9.93482   1
  -2  -4 -11 115.438 8.44980   1
  -2  -4 -11 106.655 8.22658   2
   2   4  11 141.233 9.13983   1
  -3  -4 -11 104.098 8.05789   1
  -3  -4 -11 103.795 7.54018   2
   3   4  11 97.6516 7.97857   1
  -4  -4 -11 99.6075 8.03865   1
  -4  -4 -11 88.3953 7.91804   2
   4   4  11 108.455 8.22196   1
  -5  -4 -11 135.993 9.96701   1
   5   4  11 132.218 9.96749   1
  -6  -4 -11 478.864 26.3956   1
   6   4  11 455.293 26.1831   1
  -7  -4 -11 196.950 13.4795   1
  -7   5  11 21.5303 3.21820   1
  -6   5  11 39.7008 4.28793   1
  -5   5  11 7.15555 2.24853   1
  -4   5  11 43.4142 4.82155   1
   3  -5 -11 88.1215 7.88018   2
  -3   5  11 100.334 7.23958   1
   2  -5 -11 127.323 9.00955   2
  -2   5  11 107.435 8.07807   1
   1  -5 -11 237.955 14.5883   2
  -1   5  11 241.703 14.3029   1
   0  -5 -11 132.107 9.13797   2
   0  -5 -11 133.414 9.61670   1
   0   5  11 126.725 9.07443   1
  -1  -5 -11 3.48893 1.89776   2
  -1  -5 -11 -0.8651 1.74656   1
   1   5  11 -1.8256 1.57189   1
  -2  -5 -11 1.78701 1.85021   2
  -2  -5 -11 -0.4977 1.91756   1
   2   5  11 2.65898 2.18702   1
  -3  -5 -11 22.2732 3.93756   2
  -3  -5 -11 17.2506 3.39067   1
   3   5  11 22.4595 3.93226   1
  -4  -5 -11 54.9043 6.00503   1
   4   5  11 43.4392 5.60215   1
  -5  -5 -11 37.8190 5.30765   1
   5   5  11 42.9692 5.51160   1
  -6  -5 -11 15.9586 3.83799   1
   6   5  11 14.0392 3.43069   1
  -7  -5 -11 13.3267 3.71644   1
  -6   6  11 16.4897 2.94267   1
  -5   6  11 3.15677 2.07563   1
  -4   6  11 88.6932 6.80037   1
  -3   6  11 13.7272 3.04697   1
   2  -6 -11 39.9032 5.00994   2
  -2   6  11 34.5445 4.40955   1
   1  -6 -11 144.650 9.92252   2
  -1   6  11 147.327 9.75613   1
   0  -6 -11 191.522 12.3469   1
   0  -6 -11 199.269 12.4246   2
   0   6  11 228.259 13.0161   1
  -1  -6 -11 176.540 11.2952   1
  -1  -6 -11 172.078 10.9454   2
   1   6  11 185.055 11.6375   1
  -2  -6 -11 0.37334 1.87675   1
   2   6  11 -0.5746 1.68445   1
  -3  -6 -11 4.70212 2.46605   1
   3   6  11 2.30933 2.18964   1
  -4  -6 -11 8.30204 2.94402   1
   4   6  11 11.1650 3.20490   1
  -5  -6 -11 213.561 13.6787   1
   5   6  11 210.528 13.6942   1
  -6  -6 -11 125.358 9.47386   1
   6   6  11 115.724 9.24170   1
  -7  -6 -11 30.4946 4.85032   1
   7   6  11 31.2352 5.71340   4
  -6   7  11 9.76571 2.70817   1
  -5   7  11 56.5390 5.62273   1
  -4   7  11 141.311 9.55226   1
  -3   7  11 186.420 11.7472   1
  -2   7  11 352.707 19.8123   1
  -1   7  11 153.807 10.2742   1
   0  -7 -11 225.195 13.3207   1
   0   7  11 214.967 13.4506   1
  -1  -7 -11 111.230 8.21300   1
   1   7  11 109.860 8.31199   1
  -2  -7 -11 153.184 10.0379   1
   2   7  11 133.348 9.90227   1
  -3  -7 -11 85.6072 7.23327   1
   3   7  11 89.7833 7.44285   1
  -4  -7 -11 41.3972 5.22768   1
   4   7  11 38.9249 5.18828   1
  -5  -7 -11 125.433 9.30332   1
   5   7  11 111.337 8.97749   1
  -6  -7 -11 158.826 11.2780   1
  -6   8  11 37.3060 4.76493   1
  -5   8  11 151.462 10.2379   1
  -4   8  11 70.3053 6.84045   1
  -3   8  11 146.273 9.91518   1
  -2   8  11 151.334 10.2527   1
  -1   8  11 407.838 22.5918   1
   0  -8 -11 727.525 37.1051   1
   0   8  11 698.435 37.3622   1
  -1  -8 -11 194.318 12.4463   1
   1   8  11 203.750 12.7454   1
  -2  -8 -11 55.7731 5.85233   1
   2   8  11 51.8750 5.81063   1
  -3  -8 -11 14.8253 3.49988   1
   3   8  11 19.2761 3.67592   1
  -4  -8 -11 292.833 16.9373   1
   4   8  11 265.020 16.7005   1
  -5  -8 -11 336.886 20.1487   1
   5   8  11 356.923 20.3136   1
  -6  -8 -11 129.735 10.3143   1
   6   8  11 157.529 11.8838   4
  -5   9  11 7.74701 2.72262   1
  -4   9  11 10.3948 3.03642   1
  -3   9  11 37.2734 4.95969   1
  -2   9  11 -2.7496 1.60110   1
  -1   9  11 66.7083 6.27435   1
   0  -9 -11 52.9322 5.68604   1
   0   9  11 53.4428 5.98093   1
  -1  -9 -11 62.1620 6.12814   1
   1   9  11 48.2461 5.74306   1
  -2  -9 -11 14.0303 3.14513   1
   2   9  11 9.67686 2.76795   1
  -3  -9 -11 10.4342 3.01375   1
   3   9  11 8.61894 2.80378   1
  -4  -9 -11 -1.4854 2.08401   1
   4   9  11 1.53531 2.07127   1
  -5  -9 -11 4.70600 2.67451   1
   5   9  11 7.04213 3.71702   4
  -4  10  11 -2.2183 2.04176   1
  -3  10  11 49.5565 5.80776   1
  -2  10  11 1.19960 1.92047   1
  -1  10  11 116.059 8.78168   1
   0 -10 -11 111.288 8.37908   1
   0  10  11 111.088 8.46119   1
  -1 -10 -11 5.87549 2.61148   1
   1  10  11 10.6752 2.91631   1
  -2 -10 -11 0.51997 2.17718   1
   2  10  11 0.32770 1.88340   1
  -3 -10 -11 3.92508 2.66313   1
   3  10  11 -1.8950 2.51644   4
   3  10  11 1.71686 2.13295   1
  -4 -10 -11 15.6744 3.64345   1
   4  10  11 10.5788 3.16830   1
   4  10  11 9.51886 3.81494   4
  -2  11  11 30.3563 4.75312   1
  -1  11  11 37.3402 5.12438   1
   0 -11 -11 62.2049 8.95348   1
   0  11  11 76.4865 6.90308   1
  -1 -11 -11 185.324 12.1910   1
   1  11  11 192.414 13.5451   4
   1  11  11 175.004 12.1353   1
  -2 -11 -11 164.770 11.2196   1
   2  11  11 167.745 12.5429   4
   2  11  11 156.367 11.1294   1
  -3 -11 -11 26.2875 4.36716   1
   3  11  11 27.6308 4.47366   1
   3  11  11 21.7206 4.93087   4
   1   2 -12 160.281 12.5896   2
  -1  -2  12 151.378 10.9362   1
   0   2 -12 64.4745 8.14599   2
   0  -2  12 63.4109 6.93517   1
   3   1 -12 14.9134 4.80222   2
  -3  -1  12 20.7878 3.51374   1
   2   1 -12 32.1785 5.94262   2
  -2  -1  12 31.9327 4.48883   1
   1   1 -12 126.603 10.7761   2
  -1  -1  12 127.610 9.38157   1
   0   1 -12 97.1752 9.27109   2
   0  -1  12 107.455 8.56600   1
  -1   1 -12 165.761 12.7664   2
   1  -1  12 181.262 12.2664   1
  -2   1 -12 135.106 10.7562   2
   2  -1  12 116.868 9.85297   1
  -3   1 -12 172.914 12.9185   2
   3  -1  12 177.322 12.7200   1
   4   0 -12 -0.4587 3.18539   2
  -4   0  12 3.98061 1.91405   1
   3   0 -12 10.6569 4.19273   2
  -3   0  12 9.49766 2.63265   1
   2   0 -12 3.41616 3.10599   2
  -2   0  12 3.73703 2.19540   1
   1   0 -12 -0.9347 2.48803   2
  -1   0  12 2.19000 2.02074   1
   0   0 -12 0.15329 2.66691   2
   0   0  12 1.36078 1.99119   1
  -1   0 -12 21.2237 4.68060   2
   1   0  12 20.7088 4.13795   1
  -2   0 -12 98.0070 8.65255   2
   2   0  12 86.3442 8.09997   1
  -3   0 -12 25.3634 4.98914   2
   3   0  12 27.1917 4.97144   1
  -4   0 -12 3.13207 2.91485   2
   4   0  12 12.8452 3.65228   1
   5  -1 -12 28.8517 5.73096   2
  -5   1  12 28.0584 3.62626   1
   4  -1 -12 0.76153 2.42229   2
  -4   1  12 -0.0111 1.80998   1
   3  -1 -12 29.9650 5.24548   2
  -3   1  12 23.1428 3.65708   1
   2  -1 -12 36.8030 5.91656   2
  -2   1  12 30.5213 4.29716   1
   1  -1 -12 1.96929 2.84212   2
  -1   1  12 0.05930 1.75678   1
   0  -1 -12 1.93183 2.90173   2
   0   1  12 1.85158 2.12621   1
  -1  -1 -12 83.0588 7.86411   2
   1   1  12 82.1652 7.37271   1
  -2  -1 -12 60.3434 6.98818   2
   2   1  12 58.4185 6.77537   1
  -3  -1 -12 252.677 16.4308   2
   3   1  12 270.070 16.6362   1
  -4  -1 -12 15.8331 3.95958   2
   4   1  12 18.9495 4.05048   1
  -5  -1 -12 -2.9986 2.40065   2
   5   1  12 -0.7406 2.33047   1
   5  -2 -12 67.2232 8.62707   2
  -5   2  12 92.0166 6.44442   1
   4  -2 -12 117.872 10.6398   2
  -4   2  12 132.586 8.74413   1
   3  -2 -12 35.0264 5.82638   2
  -3   2  12 25.4194 3.77518   1
   2  -2 -12 28.0749 5.21076   2
  -2   2  12 19.3106 3.52637   1
   1  -2 -12 25.8186 4.80294   2
  -1   2  12 21.9129 3.82572   1
   0  -2 -12 119.562 9.35952   2
   0   2  12 108.669 8.52638   1
  -1  -2 -12 261.809 16.6075   2
   1   2  12 276.293 16.4579   1
  -2  -2 -12 241.396 15.5569   2
   2   2  12 255.643 15.6567   1
  -3  -2 -12 424.119 23.2032   2
   3   2  12 380.538 23.0593   1
  -4  -2 -12 43.5047 5.88977   2
  -4  -2 -12 53.8614 6.20788   1
   4   2  12 42.6056 5.78293   1
  -5  -2 -12 99.7366 9.94015   2
  -5  -2 -12 126.510 9.70755   1
   5   2  12 135.842 10.0492   1
   5  -3 -12 184.679 13.1165   2
  -5   3  12 155.245 10.2319   1
   4  -3 -12 242.188 16.0679   2
  -4   3  12 234.056 13.9738   1
   3  -3 -12 292.888 17.6522   2
  -3   3  12 253.716 15.6179   1
   2  -3 -12 88.1605 8.23606   2
  -2   3  12 91.9871 7.12626   1
   1  -3 -12 17.8807 4.14895   2
  -1   3  12 12.4068 3.05042   1
   0  -3 -12 110.822 8.77349   2
   0   3  12 107.552 8.29846   1
   1   3  12 55.3968 6.19233   1
  -2  -3 -12 407.503 23.7407   2
   2   3  12 446.172 24.2061   1
  -3  -3 -12 216.683 13.5675   2
  -3  -3 -12 204.717 14.2509   1
   3   3  12 213.966 14.0004   1
  -4  -3 -12 166.141 11.4614   2
  -4  -3 -12 165.664 11.6517   1
   4   3  12 170.037 11.9835   1
  -5  -3 -12 84.6978 7.89362   1
   5   3  12 96.5135 8.34485   1
   5  -4 -12 150.939 11.5761   2
  -5   4  12 129.972 8.98301   1
   4  -4 -12 172.532 12.1187   2
  -4   4  12 143.912 9.91357   1
   3  -4 -12 30.5225 5.15613   2
  -3   4  12 26.1174 3.83611   1
   2  -4 -12 16.8512 3.96547   2
  -2   4  12 17.5403 3.32553   1
   1  -4 -12 18.8645 3.88659   2
  -1   4  12 14.4338 3.17809   1
   0  -4 -12 14.2688 3.43044   2
   0   4  12 14.2919 3.28284   1
  -1  -4 -12 1.41467 2.12307   2
   1   4  12 -2.5722 1.54733   1
  -2  -4 -12 32.1232 4.63800   2
   2   4  12 30.0767 4.68028   1
  -3  -4 -12 10.8325 3.18299   2
  -3  -4 -12 17.7870 3.55024   1
   3   4  12 13.8104 3.47242   1
  -4  -4 -12 48.0982 5.90919   1
   4   4  12 36.7008 5.33771   1
  -5  -4 -12 27.1133 4.61704   1
   5   4  12 26.9332 4.62650   1
  -6  -4 -12 -0.6487 2.22436   1
   6   4  12 -0.3907 1.80129   1
  -5   5  12 46.3907 4.97501   1
   4  -5 -12 107.551 9.56903   2
  -4   5  12 125.881 8.49774   1
   3  -5 -12 75.2709 6.90825   2
  -3   5  12 67.5044 6.13413   1
   2  -5 -12 33.5828 5.24149   2
  -2   5  12 49.9488 5.38130   1
   1  -5 -12 1.92487 2.36938   2
  -1   5  12 0.67125 1.97432   1
   0  -5 -12 -2.4281 1.71430   2
   0   5  12 -2.6391 1.48399   1
  -1  -5 -12 16.4820 3.70417   2
   1   5  12 25.2528 4.15311   1
  -2  -5 -12 103.458 7.82243   1
  -2  -5 -12 86.0288 7.33433   2
   2   5  12 93.9840 7.85660   1
  -3  -5 -12 110.209 8.64650   1
   3   5  12 112.961 8.89323   1
  -4  -5 -12 59.3743 6.51599   1
   4   5  12 53.7941 6.44467   1
  -5  -5 -12 60.9621 7.01547   1
   5   5  12 61.4366 6.98709   1
  -6  -5 -12 -0.9651 1.92455   1
   6   5  12 -0.5372 1.80968   1
  -5   6  12 296.079 16.8884   1
  -4   6  12 85.3487 7.02537   1
  -3   6  12 139.801 9.59431   1
   2  -6 -12 142.940 10.5837   2
  -2   6  12 151.825 10.1532   1
   1  -6 -12 182.706 12.0580   2
  -1   6  12 182.627 11.8297   1
   0  -6 -12 65.3439 6.32582   2
   0   6  12 72.9499 6.48462   1
  -1  -6 -12 27.4562 4.03855   2
   1   6  12 27.2508 4.40202   1
  -2  -6 -12 129.472 9.57829   1
   2   6  12 143.002 10.1186   1
  -3  -6 -12 169.960 12.2154   1
   3   6  12 212.506 12.9626   1
  -4  -6 -12 327.904 19.8601   1
   4   6  12 352.617 20.2361   1
  -5  -6 -12 130.906 10.1411   1
   5   6  12 140.511 10.3540   1
  -5   7  12 153.734 10.3228   1
  -4   7  12 165.561 10.8613   1
  -3   7  12 254.680 15.2206   1
  -2   7  12 90.5568 7.35152   1
  -1   7  12 141.142 9.85038   1
   0   7  12 46.0790 5.55926   1
   1   7  12 185.704 12.2375   1
  -2  -7 -12 191.093 12.2418   1
   2   7  12 181.367 12.3239   1
  -3  -7 -12 147.742 10.5848   1
   3   7  12 153.938 10.8374   1
  -4  -7 -12 252.192 15.6735   1
   4   7  12 251.991 15.8733   1
  -5  -7 -12 172.149 12.4675   1
   5   7  12 204.045 13.0502   1
  -4   8  12 29.1166 4.43668   1
  -3   8  12 61.0511 6.35273   1
  -2   8  12 39.1212 4.99208   1
  -1   8  12 6.57959 2.54765   1
   0   8  12 32.3774 4.73837   1
   1   8  12 0.71560 1.91046   1
  -2  -8 -12 -0.0169 1.93880   1
   2   8  12 -2.1780 1.39157   1
  -3  -8 -12 50.7489 6.02008   1
   3   8  12 45.4385 5.79287   1
  -4  -8 -12 81.4952 7.43960   1
   4   8  12 81.3528 7.42369   1
  -5  -8 -12 79.5983 7.45706   1
   5   8  12 78.7405 7.29244   1
  -3   9  12 6.76564 2.60071   1
  -2   9  12 51.4567 5.80487   1
  -1   9  12 17.4093 3.59654   1
   0   9  12 6.57461 2.61385   1
  -1  -9 -12 0.34262 2.33224   1
   1   9  12 5.22383 2.57243   1
  -2  -9 -12 0.42793 2.00792   1
   2   9  12 6.30305 2.74270   1
  -3  -9 -12 1.41887 2.49226   1
   3   9  12 3.14897 2.49320   1
  -4  -9 -12 112.781 9.15692   1
   4   9  12 114.669 9.06093   1
  -2  10  12 94.2634 7.90688   1
  -1  10  12 80.4734 7.23954   1
   0  10  12 128.823 9.67702   1
   1  10  12 107.116 8.65069   1
  -2 -10 -12 11.6978 3.26796   1
   2  10  12 13.4387 3.47025   1
  -3 -10 -12 49.9213 5.90560   1
   3  10  12 55.7254 6.58076   1
   2  -1 -13 96.1404 9.38813   2
  -2   1  13 84.2008 7.25199   1
   1  -1 -13 198.042 13.9445   2
  -1   1  13 178.730 12.3101   1
   0  -1 -13 184.676 13.7396   2
   0   1  13 196.479 12.9017   1
  -1  -1 -13 242.504 15.8159   2
   1   1  13 222.239 14.8897   1
  -2  -1 -13 146.829 11.4908   2
   2   1  13 156.377 11.3845   1
   3  -2 -13 31.1053 5.67742   2
  -3   2  13 44.2933 5.21142   1
   2  -2 -13 119.895 10.2388   2
  -2   2  13 134.798 9.40308   1
   1  -2 -13 103.349 9.21217   2
  -1   2  13 88.7654 7.69031   1
   0  -2 -13 41.0539 6.32123   2
   0   2  13 49.8593 5.79842   1
  -1  -2 -13 154.513 10.9810   2
   1   2  13 111.921 9.65168   1
  -2  -2 -13 298.795 18.4268   2
   2   2  13 294.902 18.3181   1
  -3  -2 -13 30.3557 5.13002   2
   3   2  13 30.2105 5.14394   1
   3  -3 -13 -5.6147 2.20083   2
  -3   3  13 -1.5908 1.73743   1
   2  -3 -13 14.9480 4.31149   2
  -2   3  13 12.3747 3.11046   1
   1  -3 -13 -2.2635 2.46324   2
  -1   3  13 -1.5965 1.87794   1
   0  -3 -13 65.0945 7.79431   2
   0   3  13 86.8709 7.24828   1
  -1  -3 -13 74.1930 7.30238   2
   1   3  13 63.1777 7.01678   1
  -2  -3 -13 -2.8963 2.18435   2
   2   3  13 -3.2248 1.84643   1
  -3  -3 -13 29.6179 5.05134   2
   3   3  13 34.0619 5.28805   1
   4  -4 -13 16.5691 4.73869   2
  -4   4  13 12.1184 2.94492   1
   3  -4 -13 29.7419 5.54190   2
  -3   4  13 38.2129 4.84451   1
   2  -4 -13 3.23418 3.27721   2
  -2   4  13 4.13894 2.53813   1
   1  -4 -13 -4.7561 2.13455   2
  -1   4  13 -1.2258 1.76713   1
   0  -4 -13 89.8368 8.17040   2
   0   4  13 93.8744 7.81428   1
  -1  -4 -13 267.155 16.8314   2
   1   4  13 278.008 16.8613   1
  -2  -4 -13 82.4953 7.74143   2
   2   4  13 103.127 8.36768   1
   3   4  13 4.09935 2.73706   1
   4   4  13 12.9689 3.52486   1
   4  -5 -13 53.3174 7.09937   2
  -4   5  13 48.2997 5.41574   1
   3  -5 -13 113.495 9.93139   2
  -3   5  13 125.367 8.91759   1
   2  -5 -13 32.7970 5.44499   2
  -2   5  13 46.8484 5.54820   1
   1  -5 -13 184.519 12.9049   2
  -1   5  13 193.945 12.4702   1
   0  -5 -13 183.930 12.8147   2
   0   5  13 192.311 12.6445   1
  -1  -5 -13 141.853 10.6628   2
   1   5  13 169.158 11.2518   1
   2   5  13 122.193 9.54318   1
   3   5  13 135.451 10.3016   1
  -4  -5 -13 156.043 12.9536   1
   4   5  13 163.468 11.7095   1
  -3   6  13 32.7574 4.66378   1
   2  -6 -13 -1.5361 2.37420   2
  -2   6  13 0.52545 1.96089   1
  -1   6  13 79.9888 7.01541   1
   0  -6 -13 204.219 13.4010   2
   0   6  13 208.244 13.4218   1
   1   6  13 396.939 22.8299   1
   2   6  13 187.099 12.7724   1
   3   6  13 83.2488 7.67045   1
  -4  -6 -13 54.0155 6.45116   1
   4   6  13 46.1901 6.17508   1
  -3   7  13 0.75857 2.03195   1
  -2   7  13 -2.6003 1.74508   1
  -1   7  13 0.09963 1.92811   1
   0   7  13 0.13602 2.05182   1
   1   7  13 44.1165 5.72540   1
   2   7  13 86.0419 7.73930   1
   3   7  13 89.9224 8.09064   1
  -2   8  13 1.07385 2.18292   1
  -1   8  13 5.12373 2.66799   1
   0   8  13 55.3813 6.38487   1
   1   8  13 48.6272 6.03023   1
   2   8  13 25.7664 4.70104   1
   0   9  13 61.0545 6.86664   1
   1   9  13 122.848 9.64550   1
   0   0   0    0.00    0.00   0

 _exptl_absorpt_process_details
)
 SADABS 2016/2: Krause, L., Herbst-Irmer, R., Sheldrick G.M. & Stalke D.,
 J. Appl. Cryst. 48 (2015) 3-10
)
 _exptl_absorpt_correction_type   multi-scan
 _exptl_absorpt_correction_T_max  0.7457
 _exptl_absorpt_correction_T_min  0.6793
 _exptl_special_details
)
 The following wavelength and cell were deduced by SADABS from the
 direction cosines etc. They are given here for emergency use only:
 CELL 0.71051    9.041   10.328   10.387   68.765   89.626   88.320
)
;
_shelx_hkl_checksum              58378
_olex2_submission_special_instructions 'No special instructions were received'
loop_
_space_group_symop_operation_xyz
'x, y, z'
'-x, -y, -z'
loop_
_atom_site_label
_atom_site_type_symbol
_atom_site_fract_x
_atom_site_fract_y
_atom_site_fract_z
_atom_site_U_iso_or_equiv
_atom_site_adp_type
_atom_site_occupancy
_atom_site_site_symmetry_order
_atom_site_calc_flag
_atom_site_refinement_flags_posn
_atom_site_refinement_flags_adp
_atom_site_refinement_flags_occupancy
_atom_site_disorder_assembly
_atom_site_disorder_group
Pd1 Pd 0.500000 0.500000 0.500000 0.01518(7) Uani 1 2 d S T P . .
S1 S 0.49560(7) 0.25454(6) 0.21691(6) 0.02057(13) Uani 1 1 d . . . . .
S2 S 0.37482(7) 0.54516(6) 0.18647(6) 0.02416(14) Uani 1 1 d . . . . .
Cl1 Cl 0.71011(8) 0.09806(7) 0.97761(8) 0.03543(16) Uani 1 1 d . . . . .
O1 O 0.28874(18) 0.44361(17) 0.53686(17) 0.0220(3) Uani 1 1 d . . . . .
N1 N 0.5258(2) 0.36789(19) 0.39809(19) 0.0170(4) Uani 1 1 d . . . . .
F2' F 0.0846(3) 0.1627(3) 0.7388(4) 0.0476(10) Uani 0.838(10) 1 d D . . A 1
F3' F 0.0461(3) 0.2996(4) 0.5329(2) 0.0567(16) Uani 0.838(10) 1 d D . . A 1
F1' F 0.0242(3) 0.3700(3) 0.7025(4) 0.0466(10) Uani 0.838(10) 1 d D . . A 1
O2 O 0.3546(2) 0.2537(2) 0.7209(2) 0.0419(5) Uani 1 1 d . . . . .
C6 C 0.5991(2) 0.1635(2) 0.3639(2) 0.0184(4) Uani 1 1 d . . . . .
C1 C 0.6047(2) 0.2407(2) 0.4501(2) 0.0171(4) Uani 1 1 d . . . . .
C8 C 0.1700(3) 0.3918(2) 0.0983(2) 0.0220(5) Uani 1 1 d . . . . .
C15 C 0.1016(3) 0.2929(2) 0.6499(2) 0.0256(5) Uani 1 1 d D . . . .
C5 C 0.6675(3) 0.0323(2) 0.4006(3) 0.0226(5) Uani 1 1 d . . . . .
H5 H 0.661091 -0.021066 0.343168 0.027 Uiso 1 1 calc R . . . .
C19 C 0.4654(3) 0.3891(2) 0.2774(2) 0.0181(4) Uani 1 1 d . . . . .
C2 C 0.6822(3) 0.1893(2) 0.5747(2) 0.0213(5) Uani 1 1 d . . . . .
H2 H 0.686980 0.241401 0.633494 0.026 Uiso 1 1 calc R . . . .
C9 C 0.0777(3) 0.3742(3) 0.2105(3) 0.0262(5) Uani 1 1 d . . . . .
H9 H 0.085246 0.433599 0.261732 0.031 Uiso 1 1 calc R . . . .
C13 C 0.1573(3) 0.3041(3) 0.0247(3) 0.0258(5) Uani 1 1 d . . . . .
H13 H 0.219547 0.315691 -0.052506 0.031 Uiso 1 1 calc R . . . .
C14 C 0.2669(3) 0.3309(3) 0.6386(2) 0.0222(5) Uani 1 1 d . . . . .
C11 C -0.0367(3) 0.1831(3) 0.1748(3) 0.0295(5) Uani 1 1 d . . . . .
H11 H -0.106947 0.111498 0.201204 0.035 Uiso 1 1 calc R . . . .
C10 C -0.0256(3) 0.2701(3) 0.2478(3) 0.0284(5) Uani 1 1 d . . . . .
H10 H -0.088859 0.258860 0.324248 0.034 Uiso 1 1 calc R . . . .
C3 C 0.7519(3) 0.0604(3) 0.6102(3) 0.0260(5) Uani 1 1 d . . . . .
H3 H 0.805460 0.023312 0.694782 0.031 Uiso 1 1 calc R . . . .
C20 C 0.5597(3) 0.0023(3) 0.9501(3) 0.0354(6) Uani 1 1 d . . . . .
H20A H 0.521504 0.047440 0.854582 0.042 Uiso 1 1 calc R . . . .
H20B H 0.594217 -0.093370 0.962588 0.042 Uiso 1 1 calc R . . . .
C12 C 0.0547(3) 0.2000(3) 0.0625(3) 0.0298(5) Uani 1 1 d . . . . .
H12 H 0.046969 0.140288 0.011629 0.036 Uiso 1 1 calc R . . . .
C4 C 0.7452(3) -0.0169(3) 0.5244(3) 0.0264(5) Uani 1 1 d . . . . .
H4 H 0.795054 -0.105116 0.551435 0.032 Uiso 1 1 calc R . . . .
C7 C 0.2807(3) 0.5060(3) 0.0509(2) 0.0259(5) Uani 1 1 d . . . . .
H7A H 0.228935 0.591938 -0.010257 0.031 Uiso 1 1 calc R . . . .
H7B H 0.356605 0.480149 -0.005375 0.031 Uiso 1 1 calc R . . . .
F3 F 0.0806(15) 0.1765(15) 0.634(3) 0.072(10) Uani 0.162(10) 1 d D . . A 2
F1 F 0.0096(12) 0.3901(17) 0.567(3) 0.099(14) Uani 0.162(10) 1 d D . . A 2
F2 F 0.030(2) 0.276(4) 0.7624(18) 0.117(16) Uani 0.162(10) 1 d D . . A 2
loop_
_atom_site_aniso_label
_atom_site_aniso_U_11
_atom_site_aniso_U_22
_atom_site_aniso_U_33
_atom_site_aniso_U_23
_atom_site_aniso_U_13
_atom_site_aniso_U_12
Pd1 0.01687(13) 0.01313(12) 0.01657(12) -0.00646(9) -0.00050(8) -0.00245(8)
S1 0.0283(3) 0.0165(3) 0.0184(3) -0.0080(2) -0.0029(2) -0.0008(2)
S2 0.0336(3) 0.0144(3) 0.0233(3) -0.0054(2) -0.0081(2) 0.0017(2)
Cl1 0.0334(4) 0.0280(3) 0.0441(4) -0.0120(3) -0.0111(3) -0.0012(3)
O1 0.0192(8) 0.0203(8) 0.0262(8) -0.0078(7) 0.0004(7) -0.0034(6)
N1 0.0191(9) 0.0140(8) 0.0184(8) -0.0064(7) -0.0006(7) -0.0015(7)
F2' 0.0361(13) 0.0315(13) 0.064(2) -0.0034(12) 0.0119(13) -0.0109(9)
F3' 0.0403(16) 0.106(4) 0.0283(12) -0.0273(17) 0.0071(10) -0.044(2)
F1' 0.0290(12) 0.0488(18) 0.077(3) -0.0406(18) 0.0143(13) 0.0005(11)
O2 0.0327(11) 0.0395(12) 0.0382(11) 0.0046(9) -0.0021(9) -0.0071(9)
C6 0.0159(10) 0.0179(10) 0.0206(10) -0.0059(8) 0.0019(8) -0.0027(8)
C1 0.0152(10) 0.0150(10) 0.0208(10) -0.0062(8) 0.0025(8) -0.0023(8)
C8 0.0245(12) 0.0213(11) 0.0173(10) -0.0035(9) -0.0066(9) 0.0033(9)
C15 0.0259(12) 0.0261(12) 0.0288(12) -0.0144(10) 0.0091(10) -0.0063(10)
C5 0.0221(11) 0.0185(11) 0.0282(12) -0.0098(9) 0.0049(9) -0.0016(9)
C19 0.0212(11) 0.0125(9) 0.0209(10) -0.0061(8) 0.0011(8) -0.0027(8)
C2 0.0192(11) 0.0233(11) 0.0215(11) -0.0082(9) -0.0011(9) -0.0011(9)
C9 0.0250(12) 0.0304(13) 0.0251(12) -0.0126(10) -0.0025(10) 0.0029(10)
C13 0.0258(12) 0.0328(13) 0.0203(11) -0.0115(10) -0.0005(9) 0.0008(10)
C14 0.0248(12) 0.0230(11) 0.0222(11) -0.0121(9) 0.0042(9) -0.0048(9)
C11 0.0234(12) 0.0308(13) 0.0297(13) -0.0052(10) -0.0068(10) -0.0032(10)
C10 0.0210(12) 0.0377(14) 0.0252(12) -0.0101(11) 0.0000(9) 0.0007(10)
C3 0.0216(12) 0.0262(12) 0.0252(12) -0.0033(10) -0.0037(9) 0.0007(10)
C20 0.0354(15) 0.0422(16) 0.0363(15) -0.0232(13) -0.0067(12) -0.0051(12)
C12 0.0323(14) 0.0324(14) 0.0285(13) -0.0157(11) -0.0064(11) 0.0004(11)
C4 0.0220(12) 0.0190(11) 0.0321(13) -0.0023(10) 0.0016(10) 0.0035(9)
C7 0.0315(13) 0.0247(12) 0.0174(11) -0.0026(9) -0.0057(9) -0.0021(10)
F3 0.037(7) 0.051(11) 0.16(3) -0.070(17) 0.002(10) -0.004(6)
F1 0.012(6) 0.041(10) 0.18(3) 0.042(13) 0.000(9) -0.002(5)
F2 0.085(15) 0.24(4) 0.040(10) -0.063(17) 0.035(10) -0.10(2)
loop_
_atom_type_symbol
_atom_type_description
_atom_type_scat_dispersion_real
_atom_type_scat_dispersion_imag
_atom_type_scat_source
C C 0.0033 0.0016 'International Tables Vol C Tables 4.2.6.8 and 6.1.1.4'
H H 0.0000 0.0000 'International Tables Vol C Tables 4.2.6.8 and 6.1.1.4'
Cl Cl 0.1484 0.1585 'International Tables Vol C Tables 4.2.6.8 and 6.1.1.4'
F F 0.0171 0.0103 'International Tables Vol C Tables 4.2.6.8 and 6.1.1.4'
N N 0.0061 0.0033 'International Tables Vol C Tables 4.2.6.8 and 6.1.1.4'
O O 0.0106 0.0060 'International Tables Vol C Tables 4.2.6.8 and 6.1.1.4'
Pd Pd -0.9988 1.0072 'International Tables Vol C Tables 4.2.6.8 and 6.1.1.4'
S S 0.1246 0.1234 'International Tables Vol C Tables 4.2.6.8 and 6.1.1.4'
loop_
_geom_angle_atom_site_label_1
_geom_angle_atom_site_label_2
_geom_angle_atom_site_label_3
_geom_angle
_geom_angle_site_symmetry_1
_geom_angle_site_symmetry_3
O1 Pd1 O1 180.0 2_666 .
O1 Pd1 N1 90.86(7) 2_666 .
O1 Pd1 N1 89.14(7) . .
O1 Pd1 N1 89.14(7) 2_666 2_666
O1 Pd1 N1 90.86(7) . 2_666
N1 Pd1 N1 180.00(7) . 2_666
C19 S1 C6 90.03(11) . .
C19 S2 C7 102.35(11) . .
C14 O1 Pd1 116.19(15) . .
C1 N1 Pd1 124.09(15) . .
C19 N1 Pd1 123.57(16) . .
C19 N1 C1 112.29(19) . .
C1 C6 S1 109.85(17) . .
C5 C6 S1 128.55(19) . .
C5 C6 C1 121.6(2) . .
C6 C1 N1 113.42(19) . .
C2 C1 N1 126.0(2) . .
C2 C1 C6 120.6(2) . .
C9 C8 C7 122.2(2) . .
C13 C8 C9 119.1(2) . .
C13 C8 C7 118.7(2) . .
F2' C15 C14 110.6(2) . .
F3' C15 F2' 106.9(3) . .
F3' C15 F1' 111.0(3) . .
F3' C15 C14 112.5(2) . .
F1' C15 F2' 104.5(2) . .
F1' C15 C14 110.9(2) . .
F3 C15 C14 112.5(7) . .
F3 C15 F1 109.4(14) . .
F3 C15 F2 101.6(16) . .
F1 C15 C14 115.5(6) . .
F2 C15 C14 120.0(8) . .
F2 C15 F1 96.0(16) . .
C6 C5 H5 121.4 . .
C4 C5 C6 117.1(2) . .
C4 C5 H5 121.4 . .
S2 C19 S1 124.82(13) . .
N1 C19 S1 114.40(17) . .
N1 C19 S2 120.65(17) . .
C1 C2 H2 121.0 . .
C3 C2 C1 117.9(2) . .
C3 C2 H2 121.0 . .
C8 C9 H9 119.9 . .
C8 C9 C10 120.2(2) . .
C10 C9 H9 119.9 . .
C8 C13 H13 119.7 . .
C12 C13 C8 120.7(2) . .
C12 C13 H13 119.7 . .
O1 C14 C15 111.3(2) . .
O2 C14 O1 129.8(2) . .
O2 C14 C15 118.9(2) . .
C10 C11 H11 120.1 . .
C10 C11 C12 119.9(3) . .
C12 C11 H11 120.1 . .
C9 C10 H10 119.8 . .
C11 C10 C9 120.4(2) . .
C11 C10 H10 119.8 . .
C2 C3 H3 119.3 . .
C2 C3 C4 121.4(2) . .
C4 C3 H3 119.3 . .
Cl1 C20 H20A 109.8 . .
Cl1 C20 H20B 109.8 . .
C20 C20 Cl1 109.4(3) 2_657 .
C20 C20 H20A 109.8 2_657 .
C20 C20 H20B 109.8 2_657 .
H20A C20 H20B 108.2 . .
C13 C12 C11 119.9(2) . .
C13 C12 H12 120.1 . .
C11 C12 H12 120.1 . .
C5 C4 C3 121.4(2) . .
C5 C4 H4 119.3 . .
C3 C4 H4 119.3 . .
S2 C7 H7A 108.3 . .
S2 C7 H7B 108.3 . .
C8 C7 S2 116.12(17) . .
C8 C7 H7A 108.3 . .
C8 C7 H7B 108.3 . .
H7A C7 H7B 107.4 . .
loop_
_geom_bond_atom_site_label_1
_geom_bond_atom_site_label_2
_geom_bond_distance
_geom_bond_site_symmetry_2
Pd1 O1 2.0065(16) 2_666
Pd1 O1 2.0065(16) .
Pd1 N1 2.0142(18) 2_666
Pd1 N1 2.0142(18) .
S1 C6 1.736(2) .
S1 C19 1.734(2) .
S2 C19 1.728(2) .
S2 C7 1.820(2) .
Cl1 C20 1.787(3) .
O1 C14 1.276(3) .
N1 C1 1.400(3) .
N1 C19 1.311(3) .
F2' C15 1.340(3) .
F3' C15 1.295(3) .
F1' C15 1.304(3) .
O2 C14 1.213(3) .
C6 C1 1.399(3) .
C6 C5 1.392(3) .
C1 C2 1.392(3) .
C8 C9 1.389(4) .
C8 C13 1.387(3) .
C8 C7 1.509(4) .
C15 C14 1.549(3) .
C15 F3 1.288(7) .
C15 F1 1.330(7) .
C15 F2 1.288(7) .
C5 H5 0.9500 .
C5 C4 1.386(4) .
C2 H2 0.9500 .
C2 C3 1.379(3) .
C9 H9 0.9500 .
C9 C10 1.390(4) .
C13 H13 0.9500 .
C13 C12 1.385(4) .
C11 H11 0.9500 .
C11 C10 1.375(4) .
C11 C12 1.386(4) .
C10 H10 0.9500 .
C3 H3 0.9500 .
C3 C4 1.398(4) .
C20 C20 1.480(6) 2_657
C20 H20A 0.9900 .
C20 H20B 0.9900 .
C12 H12 0.9500 .
C4 H4 0.9500 .
C7 H7A 0.9900 .
C7 H7B 0.9900 .
