#------------------------------------------------------------------------------
#$Date: 2017-04-04 15:49:54 +0300 (Tue, 04 Apr 2017) $
#$Revision: 194773 $
#$URL: file:///home/coder/svn-repositories/cod/cif/4/51/40/4514065.cif $
#------------------------------------------------------------------------------
#
# This file is available in the Crystallography Open Database (COD),
# http://www.crystallography.net/
#
# All data on this site have been placed in the public domain by the
# contributors.
#
data_4514065
loop_
_publ_author_name
'Ogawa, Yuta'
'Yamamoto, Kazuhiro'
'Miura, Chiyo'
'Tamura, Shigeki'
'Saito, Mitsuki'
'Mamada, Masashi'
'Kumaki, Daisuke'
'Tokito, Shizuo'
'Katagiri, Hiroshi'
_publ_section_title
;
 Asymmetric Alkylthienyl Thienoacenes Derived from
 Anthra[2,3-b]thieno[2,3-d]thiophene for Solution-Processable Organic
 Semiconductors.
;
_journal_issue                   11
_journal_name_full               'ACS applied materials &amp; interfaces'
_journal_page_first              9902
_journal_page_last               9909
_journal_paper_doi               10.1021/acsami.6b15793
_journal_volume                  9
_journal_year                    2017
_chemical_formula_moiety         'C18 H10 O3 S2'
_chemical_formula_sum            'C18 H10 O3 S2'
_chemical_formula_weight         338.38
_space_group_crystal_system      triclinic
_space_group_IT_number           2
_space_group_name_Hall           '-P 1'
_space_group_name_H-M_alt        'P -1'
_symmetry_space_group_name_Hall  '-P 1'
_symmetry_space_group_name_H-M   'P -1'
_atom_sites_solution_hydrogens   geom
_atom_sites_solution_primary     direct
_atom_sites_solution_secondary   difmap
_audit_creation_method           SHELXL-2014/7
_cell_angle_alpha                63.407(2)
_cell_angle_beta                 84.940(2)
_cell_angle_gamma                89.691(2)
_cell_formula_units_Z            2
_cell_length_a                   5.48410(10)
_cell_length_b                   12.2105(3)
_cell_length_c                   12.4889(3)
_cell_measurement_reflns_used    8925
_cell_measurement_temperature    93
_cell_measurement_theta_max      30.5480
_cell_measurement_theta_min      1.9880
_cell_volume                     744.37(3)
_computing_cell_refinement       'CrysAlisPro 1.171.38.43 (Rigaku OD, 2015)'
_computing_data_collection       'CrysAlisPro 1.171.38.43 (Rigaku OD, 2015)'
_computing_data_reduction        'CrysAlisPro 1.171.38.43 (Rigaku OD, 2015)'
_computing_molecular_graphics    'ORTEP-3 for Windows (Farrugia, 2012)'
_computing_publication_material  'Yadokari-XG (Wakita, Nemoto et al., 2009)'
_computing_structure_refinement  'SHELXL-2014 (Sheldrick, 2015)'
_computing_structure_solution    'SHELXT (Sheldrick, 2015)'
_diffrn_ambient_temperature      93
_diffrn_detector_area_resol_mean 28.5714
_diffrn_measured_fraction_theta_full 0.951
_diffrn_measured_fraction_theta_max 0.958
_diffrn_measurement_device_type  'Rigaku Saturn 70 CCD area detector'
_diffrn_measurement_method       \w
_diffrn_radiation_type           MoK\a
_diffrn_radiation_wavelength     0.71073
_diffrn_reflns_av_R_equivalents  0.0148
_diffrn_reflns_av_unetI/netI     0.0136
_diffrn_reflns_Laue_measured_fraction_full 0.951
_diffrn_reflns_Laue_measured_fraction_max 0.958
_diffrn_reflns_limit_h_max       7
_diffrn_reflns_limit_h_min       -7
_diffrn_reflns_limit_k_max       15
_diffrn_reflns_limit_k_min       -15
_diffrn_reflns_limit_l_max       16
_diffrn_reflns_limit_l_min       -16
_diffrn_reflns_number            9063
_diffrn_reflns_point_group_measured_fraction_full 0.951
_diffrn_reflns_point_group_measured_fraction_max 0.958
_diffrn_reflns_theta_full        25.242
_diffrn_reflns_theta_max         27.487
_diffrn_reflns_theta_min         3.149
_diffrn_source                   'Rotating Anode'
_exptl_absorpt_coefficient_mu    0.369
_exptl_absorpt_correction_T_max  1.00000
_exptl_absorpt_correction_T_min  0.88018
_exptl_absorpt_correction_type   multi-scan
_exptl_absorpt_process_details
;
CrysAlisPro 1.171.38.43 (Rigaku Oxford Diffraction, 2015)
Empirical absorption correction using spherical harmonics,
 implemented in SCALE3 ABSPACK scaling algorithm.
;
_exptl_crystal_colour            Colorless
_exptl_crystal_density_diffrn    1.510
_exptl_crystal_description       Prism
_exptl_crystal_F_000             348
_exptl_crystal_size_max          0.100
_exptl_crystal_size_mid          0.100
_exptl_crystal_size_min          0.050
_refine_diff_density_max         0.365
_refine_diff_density_min         -0.355
_refine_diff_density_rms         0.090
_refine_ls_extinction_method     none
_refine_ls_goodness_of_fit_ref   1.117
_refine_ls_hydrogen_treatment    constr
_refine_ls_matrix_type           full
_refine_ls_number_parameters     209
_refine_ls_number_reflns         3275
_refine_ls_number_restraints     0
_refine_ls_restrained_S_all      1.117
_refine_ls_R_factor_all          0.0349
_refine_ls_R_factor_gt           0.0339
_refine_ls_shift/su_max          0.001
_refine_ls_shift/su_mean         0.000
_refine_ls_structure_factor_coef Fsqd
_refine_ls_weighting_details
'w=1/[\s^2^(Fo^2^)+(0.0676P)^2^+0.2321P] where P=(Fo^2^+2Fc^2^)/3'
_refine_ls_weighting_scheme      calc
_refine_ls_wR_factor_gt          0.1032
_refine_ls_wR_factor_ref         0.1045
_reflns_Friedel_coverage         0.000
_reflns_number_gt                3127
_reflns_number_total             3275
_reflns_threshold_expression     'I > 2\s(I)'
_cod_data_source_file            am6b15793_si_001.cif
_cod_data_source_block           ydkr
_cod_depositor_comments          'Adding full bibliography for 4514065.cif.'
_cod_database_code               4514065
_shelx_shelxl_version_number     2014/7
_shelx_space_group_comment
;
The symmetry employed for this shelxl refinement is uniquely defined
by the following loop, which should always be used as a source of
symmetry information in preference to the above space-group names.
They are only intended as comments.
;
_shelx_estimated_absorpt_t_min   0.964
_shelx_estimated_absorpt_t_max   0.982
_oxdiff_exptl_absorpt_empirical_full_min 0.684
_oxdiff_exptl_absorpt_empirical_full_max 1.289
_oxdiff_exptl_absorpt_empirical_details
;
Empirical correction (ABSPACK) includes:
- Absorption correction using spherical harmonics
- Frame scaling
- Detector area scaling
;
_shelx_res_file
;

    ydkr.res created by SHELXL-2014/7

TITL
REM  Yadorkari-X generated
CELL 0.71073 5.4841 12.2105 12.4889 63.4070 84.9400 89.6910
ZERR 2.0 0.0001 0.0003 0.0003 0.0020 0.0020 0.0020
LATT 1
REM  SPGR P-1 triclinic
SFAC C H O S
UNIT 36 20 6 4
SIZE 0.10 0.10 0.05
TEMP -180.0
L.S. 20
FMAP 2
PLAN -100
ACTA
CONF
LIST 4
OMIT -10.000000 55.000000
OMIT    0    0    1
OMIT    0    1    0
OMIT    0    1    1

WGHT    0.067600    0.232100
FVAR      21.53630
S1    4   -0.242334    0.240966    0.723514    11.00000    0.01666    0.02426 =
         0.01675   -0.00868    0.00370   -0.00424
S2    4    0.339711    0.413838    0.464373    11.00000    0.01220    0.02058 =
         0.01562   -0.00998    0.00039   -0.00372
O1    3    0.377770    0.433887    0.215994    11.00000    0.02310    0.01723 =
         0.01774   -0.00690    0.00351   -0.00445
O2    3    0.431861    0.145062    0.408326    11.00000    0.01939    0.01444 =
         0.02274   -0.00749   -0.00760    0.00167
O3    3    0.267668   -0.030480    0.428531    11.00000    0.04292    0.01220 =
         0.04204   -0.00500   -0.02937    0.00184
AFIX 147
H3    2    0.372051   -0.060301    0.478386    11.00000   -1.50000
AFIX   0
C1    1   -0.046564    0.304816    0.783575    11.00000    0.01980    0.02848 =
         0.01641   -0.01159   -0.00224    0.00263
AFIX  43
H1    2   -0.076126    0.297938    0.862489    11.00000   -1.20000
AFIX   0
C2    1    0.153641    0.365790    0.707443    11.00000    0.01625    0.02662 =
         0.01752   -0.01226   -0.00285    0.00095
AFIX  43
H2    2    0.278353    0.406523    0.725908    11.00000   -1.20000
AFIX   0
C3    1    0.149766    0.359905    0.596212    11.00000    0.01229    0.01793 =
         0.01540   -0.00742   -0.00030    0.00065
C4    1   -0.054334    0.295839    0.590525    11.00000    0.01277    0.01517 =
         0.01584   -0.00629    0.00062   -0.00047
C5    1   -0.059263    0.290940    0.479422    11.00000    0.01445    0.01388 =
         0.01681   -0.00767   -0.00107   -0.00103
AFIX  43
H5    2   -0.186367    0.252136    0.460234    11.00000   -1.20000
AFIX   0
C6    1    0.144704    0.349929    0.403533    11.00000    0.01412    0.01251 =
         0.01529   -0.00710   -0.00344    0.00107
C7    1    0.216593    0.361095    0.283431    11.00000    0.01639    0.01180 =
         0.01515   -0.00591   -0.00284    0.00256
C8    1    0.074926    0.281068    0.244789    11.00000    0.01680    0.01436 =
         0.01274   -0.00739   -0.00023    0.00046
C9    1   -0.087825    0.335644    0.160270    11.00000    0.01947    0.01507 =
         0.01354   -0.00610   -0.00112    0.00313
AFIX  43
H9    2   -0.103363    0.421926    0.126349    11.00000   -1.20000
AFIX   0
C10   1   -0.233492    0.266102    0.122374    11.00000    0.01649    0.02127 =
         0.01270   -0.00912   -0.00134    0.00347
C11   1   -0.407304    0.320982    0.037088    11.00000    0.02044    0.02757 =
         0.01480   -0.01001   -0.00313    0.00714
AFIX  43
H11   2   -0.425871    0.407102    0.002247    11.00000   -1.20000
AFIX   0
C12   1   -0.547962    0.250042    0.005052    11.00000    0.01828    0.04099 =
         0.01740   -0.01650   -0.00560    0.00669
AFIX  43
H12   2   -0.663376    0.287801   -0.051953    11.00000   -1.20000
AFIX   0
C13   1   -0.524540    0.122099    0.055123    11.00000    0.01999    0.03953 =
         0.02554   -0.02212   -0.00367   -0.00110
AFIX  43
H13   2   -0.625259    0.074342    0.032566    11.00000   -1.20000
AFIX   0
C14   1   -0.356147    0.066268    0.136573    11.00000    0.02158    0.02651 =
         0.02585   -0.01611   -0.00385   -0.00053
AFIX  43
H14   2   -0.338466   -0.019787    0.168911    11.00000   -1.20000
AFIX   0
C15   1   -0.208394    0.136907    0.172559    11.00000    0.01701    0.02089 =
         0.01678   -0.01145   -0.00197    0.00091
C16   1   -0.038263    0.082532    0.258450    11.00000    0.02083    0.01473 =
         0.01926   -0.00860   -0.00382    0.00150
AFIX  43
H16   2   -0.018514   -0.003442    0.291815    11.00000   -1.20000
AFIX   0
C17   1    0.099539    0.151323    0.294883    11.00000    0.01710    0.01429 =
         0.01406   -0.00586   -0.00257    0.00111
C18   1    0.281390    0.089487    0.382411    11.00000    0.01913    0.01213 =
         0.01589   -0.00540   -0.00270    0.00170

HKLF 4 1 1 0 0 0 1 0 0 0 1

REM
REM R1 =  0.0339 for    3127 Fo > 4sig(Fo)  and  0.0349 for all    3275 data
REM    209 parameters refined using      0 restraints

END

WGHT      0.0676      0.2321

REM Highest difference peak  0.365,  deepest hole -0.355,  1-sigma level  0.090
Q1    1   0.0408  0.3215  0.5986  11.00000  0.05    0.37
Q2    1  -0.1344  0.3017  0.7475  11.00000  0.05    0.34
Q3    1   0.1913  0.1200  0.3404  11.00000  0.05    0.34
Q4    1   0.0541  0.3126  0.7541  11.00000  0.05    0.33
Q5    1   0.1631  0.3646  0.6612  11.00000  0.05    0.31
Q6    1  -0.0680  0.2888  0.5417  11.00000  0.05    0.29
Q7    1   0.1480  0.3216  0.2653  11.00000  0.05    0.29
Q8    1   0.5553 -0.0700  0.3456  11.00000  0.05    0.28
Q9    1   0.2225 -0.0035  0.4597  11.00000  0.05    0.27
Q10   1   0.1545  0.3577  0.8663  11.00000  0.05    0.26
Q11   1  -0.1580  0.2793  0.6409  11.00000  0.05    0.26
Q12   1  -0.3266  0.2946  0.0716  11.00000  0.05    0.25
Q13   1  -0.4656  0.2826  0.0162  11.00000  0.05    0.24
Q14   1  -0.1720  0.3026  0.1428  11.00000  0.05    0.24
Q15   1  -0.1684  0.2854  0.8669  11.00000  0.05    0.23
Q16   1   0.1743  0.3631  0.3470  11.00000  0.05    0.23
Q17   1   0.0706  0.4093  0.7990  11.00000  0.05    0.23
Q18   1   0.1098  0.2202  0.2665  11.00000  0.05    0.23
Q19   1  -0.2051  0.5197  0.0410  11.00000  0.05    0.22
Q20   1   0.3341  0.0278  0.3875  11.00000  0.05    0.22
Q21   1   0.4360  0.1161  0.3755  11.00000  0.05    0.22
Q22   1   0.3387 -0.0778  0.3633  11.00000  0.05    0.22
Q23   1   0.3741 -0.1003  0.4023  11.00000  0.05    0.22
Q24   1  -0.1255  0.1968  0.6670  11.00000  0.05    0.21
Q25   1  -0.2377  0.1419  0.6431  11.00000  0.05    0.21
Q26   1   0.0087  0.1126  0.2929  11.00000  0.05    0.21
Q27   1   0.0350  0.3196  0.4388  11.00000  0.05    0.21
Q28   1  -0.5546  0.2009  0.7377  11.00000  0.05    0.20
Q29   1   0.2499  0.3825  0.5468  11.00000  0.05    0.20
Q30   1  -0.6957  0.4000 -0.0575  11.00000  0.05    0.20
Q31   1  -0.6564  0.4214 -0.0217  11.00000  0.05    0.20
Q32   1  -0.2310  0.1539  0.7049  11.00000  0.05    0.19
Q33   1  -0.3791  0.4589 -0.0192  11.00000  0.05    0.19
Q34   1  -0.0310  0.4236  0.8617  11.00000  0.05    0.19
Q35   1   0.0028  0.1851  0.8003  11.00000  0.05    0.19
Q36   1  -0.0027  0.3062  0.2049  11.00000  0.05    0.19
Q37   1   0.0639  0.2199  0.7437  11.00000  0.05    0.19
Q38   1   0.3818 -0.0583  0.4399  11.00000  0.05    0.19
Q39   1  -0.1691  0.1738  0.7553  11.00000  0.05    0.19
Q40   1  -0.4508  0.1966  0.6636  11.00000  0.05    0.18
Q41   1   0.2856  0.0932  0.5238  11.00000  0.05    0.18
Q42   1  -0.1313  0.4831  0.0956  11.00000  0.05    0.18
Q43   1   0.0137  0.1605  0.6373  11.00000  0.05    0.18
Q44   1   0.4781  0.5614  0.1430  11.00000  0.05    0.18
Q45   1  -0.2134  0.2019  0.1404  11.00000  0.05    0.18
Q46   1   0.3031  0.2443  0.5413  11.00000  0.05    0.18
Q47   1   0.3649  0.2774  0.8151  11.00000  0.05    0.18
Q48   1  -0.4502  0.3409  0.8144  11.00000  0.05    0.17
Q49   1  -0.3388 -0.0409  0.3006  11.00000  0.05    0.17
Q50   1  -0.5941  0.2662 -0.0152  11.00000  0.05    0.17
Q51   1  -0.1421  0.1134  0.2109  11.00000  0.05    0.17
Q52   1   0.2621  0.3685  0.7843  11.00000  0.05    0.17
Q53   1   0.7604 -0.1332  0.3424  11.00000  0.05    0.17
Q54   1   0.0766 -0.0573  0.5226  11.00000  0.05    0.17
Q55   1  -0.0149 -0.0672  0.3949  11.00000  0.05    0.17
Q56   1  -0.5241  0.1966  0.0224  11.00000  0.05    0.17
Q57   1  -0.1908  0.3832  0.8707  11.00000  0.05    0.17
Q58   1  -0.3621  0.2756  0.8634  11.00000  0.05    0.17
Q59   1   0.2310  0.3606  0.4370  11.00000  0.05    0.16
Q60   1   0.4293  0.1428  0.5602  11.00000  0.05    0.16
Q61   1  -0.1158  0.4064  0.8098  11.00000  0.05    0.16
Q62   1  -0.3870  0.2844  0.7431  11.00000  0.05    0.16
Q63   1  -0.1865  0.5193 -0.0346  11.00000  0.05    0.16
Q64   1  -0.4059  0.2169  0.7215  11.00000  0.05    0.16
Q65   1  -0.0037 -0.0181  0.4409  11.00000  0.05    0.16
Q66   1  -0.1724  0.3835  0.9180  11.00000  0.05    0.16
Q67   1   0.1305  0.0354  0.4951  11.00000  0.05    0.16
Q68   1  -0.1070 -0.1062  0.3600  11.00000  0.05    0.15
Q69   1   0.6559 -0.1685  0.3604  11.00000  0.05    0.15
Q70   1  -0.2757  0.3310  0.7985  11.00000  0.05    0.15
Q71   1   0.1644  0.2213  0.5850  11.00000  0.05    0.15
Q72   1   0.5540  0.0943  0.4333  11.00000  0.05    0.15
Q73   1  -0.0341  0.5409  0.0605  11.00000  0.05    0.15
Q74   1  -0.3107  0.3268  0.7077  11.00000  0.05    0.15
Q75   1  -0.2119  0.3892  0.6566  11.00000  0.05    0.15
Q76   1   0.2968  0.5261  0.0962  11.00000  0.05    0.14
Q77   1   0.4490 -0.0035  0.5366  11.00000  0.05    0.14
Q78   1   0.2837  0.2582  0.5928  11.00000  0.05    0.14
Q79   1   0.2225  0.2399  0.7426  11.00000  0.05    0.14
Q80   1   0.2930  0.2574  0.7021  11.00000  0.05    0.14
Q81   1  -0.3601  0.2230  0.5750  11.00000  0.05    0.14
Q82   1  -0.1509  0.4235 -0.0216  11.00000  0.05    0.14
Q83   1   0.4575  0.0973  0.5003  11.00000  0.05    0.14
Q84   1  -0.5727  0.2729  0.6815  11.00000  0.05    0.14
Q85   1  -0.0946 -0.0378  0.3413  11.00000  0.05    0.14
Q86   1  -0.4006  0.2706  0.6516  11.00000  0.05    0.14
Q87   1  -0.2225 -0.0223  0.3059  11.00000  0.05    0.14
Q88   1   0.3460  0.5057  0.1962  11.00000  0.05    0.14
Q89   1   0.5410 -0.0233  0.4010  11.00000  0.05    0.14
Q90   1  -0.2815  0.3734  0.7565  11.00000  0.05    0.14
Q91   1   0.6040 -0.1435  0.3392  11.00000  0.05    0.14
Q92   1  -0.1495 -0.0591  0.4226  11.00000  0.05    0.13
Q93   1   0.0348  0.3844  0.0405  11.00000  0.05    0.13
Q94   1  -0.3036  0.3409 -0.0788  11.00000  0.05    0.13
Q95   1   0.2037  0.1662  0.7838  11.00000  0.05    0.13
Q96   1   0.1265  0.2679  0.9239  11.00000  0.05    0.13
Q97   1  -0.2793  0.1005  0.1556  11.00000  0.05    0.13
Q98   1  -0.1718 -0.1053  0.1961  11.00000  0.05    0.13
Q99   1  -0.5158  0.3023  0.6391  11.00000  0.05    0.13
Q100  1   0.2192 -0.1341  0.4982  11.00000  0.05    0.13
;
_shelx_res_checksum              55182
_shelx_hkl_file
;
   0   0  -1 0.48007 7.89293   2
   0   0  -1 0.19349 10.8386   3
   0   0   1-7.90934 17.0615   3
   0   0   1-6.00478 10.1065   2
   0   0  -2 111837. 781.059   3
   0   0   2 121338. 820.393   3
   0   0   3 77768.0 608.441   4
   0   0   3 76000.5 489.998   1
   0   0  -3 75486.3 795.737   3
   0   0  -3 74736.6 643.915   2
   0   0  -3 76374.5 583.074   4
   0   0   5 61415.7 531.247   1
   0   0   5 57805.0 711.440   4
   0   0  -5 60180.4 757.726   2
   0   0  -5 58992.6 588.431   1
   0   0   5 56695.6 899.138   3
   0   0  -8 13852.8 480.824   2
   0   0   8 15746.3 616.742   3
   0   0   8 14309.4 445.626   4
   0   0  -8 15532.9 368.492   1
   0   0   9 222085. 1875.91   4
   0   0  -9 211665. 2014.78   2
   0   0 -10 8965.19 457.209   2
   0   0  10 10015.3 427.704   4
   0   0  10 9721.07 555.645   3
   0   0 -11 6795.76 417.704   2
   0   0  11 6439.85 488.263   3
   0   0  12 89561.9 1861.53   3
   0   0 -12 88697.5 1593.06   2
   0   0 -13 3053.28 349.952   2
   0   0  13 3118.53 395.441   3
   0   0 -14 907.202 235.971   2
   0   0  14 636.323 232.539   3
   0   0  15 80119.6 2083.21   3
   0   0 -15 80395.7 1841.58   2
   0   1 -15 88348.0 1954.15   2
   0  -1  14 32031.8 1287.22   3
   0   1 -14 33116.8 1143.94   2
   0   1 -13 621.971 218.409   2
   0  -1  13 266.658 183.766   3
   0  -1  12 1952.41 314.702   3
   0   1 -12 1975.52 276.485   2
   0  -1  11 49.2888 130.032   3
   0   1 -11 78.0349 115.339   2
   0  -1  10 177.701 93.1864   4
   0  -1  10 166.033 130.878   3
   0   1 -10 232.282 113.160   2
   0   1  -9 28983.9 760.545   2
   0  -1   9 29306.6 732.508   4
   0  -1   9 30495.1 937.666   3
   0   1  -8 19987.1 356.811   1
   0  -1   8 19122.0 562.827   4
   0   1  -8 20735.1 587.691   2
   0   1  -7 324392. 1416.64   1
   0  -1   7 306565. 2136.35   4
   0  -1   6 13902.8 410.558   4
   0   1  -6 13649.1 405.413   2
   0   1  -6 13977.2 521.571   3
   0  -1   6 13791.4 279.392   1
   0   1  -6 13326.5 274.110   1
   0   1  -5 19253.2 437.060   2
   0  -1   5 18749.1 444.489   4
   0  -1   5 19880.2 313.270   1
   0   1  -5 18823.7 304.757   1
   0   1  -5 19598.6 567.447   3
   0  -1   1 23529.3 283.146   4
   0   1   0 3.99330 6.73752   4
   0  -1   0-3.26032 5.98191   1
   0  -1   0-6.93564 12.7204   3
   0   1   0 12.9625 11.4814   3
   0  -1  -1-1.42822 14.4030   3
   0  -1  -1 0.02358 4.57384   2
   0   1   1-5.26025 11.6315   3
   0  -1  -1-4.06224 8.29710   1
   0   1   4 47284.9 456.108   1
   0   1   4 46290.9 495.328   4
   0  -1  -4 44459.6 576.803   2
   0  -1  -4 46482.2 494.527   1
   0  -1  -4 44999.3 479.744   4
   0  -1  -5 1681.56 111.387   1
   0  -1  -5 1635.40 129.659   2
   0   1   5 1662.56 160.358   3
   0   1   5 2134.17 126.940   4
   0  -1  -6 40577.8 566.311   1
   0   1   6 43741.3 615.932   4
   0   1   6 43055.0 839.719   3
   0  -1  -6 41543.2 691.161   2
   0  -1  -7 27381.4 620.961   2
   0  -1  -7 27840.3 507.873   1
   0   1   7 29118.2 551.649   4
   0   1   7 28647.8 749.971   3
   0  -1  -8 47386.7 883.335   2
   0   1   8 50217.1 782.202   4
   0  -1  -8 49826.5 712.060   1
   0   1   8 50412.4 1068.12   3
   0  -1  -9 459189. 2259.11   1
   0   1   9 447434. 3397.36   3
   0   1  10 7936.26 356.632   4
   0   1  10 8392.84 501.779   3
   0  -1 -10 7777.35 424.943   2
   0   1  11 16019.0 737.811   3
   0  -1 -11 15261.7 619.230   2
   0   1  12 284103. 3312.10   3
   0  -1 -12 273117. 2779.78   2
   0  -1 -13 178961. 2394.12   2
   0   1  13 182205. 2767.00   3
   0  -1 -14 17.8536 187.892   2
   0   1  14-43.6844 173.476   3
   0  -1 -15 7146.16 567.490   2
   0   1  15 6270.01 595.164   3
   0   2 -14 11171.3 686.177   2
   0  -2  14 12845.3 851.864   3
   0  -2  13 28335.7 1164.57   3
   0   2 -13 26048.6 957.534   2
   0   2 -12 7816.07 504.589   2
   0  -2  12 7004.85 580.843   3
   0  -2  11 11813.4 691.807   3
   0   2 -11 14166.1 619.940   2
   0  -2  10 7185.04 417.234   4
   0   2 -10 7278.80 411.648   2
   0  -2  10 7368.95 508.445   3
   0  -2   9 1551.33 207.089   4
   0  -2   9 1505.85 233.245   3
   0   2  -9 1498.47 193.024   2
   0  -2   8 45618.1 926.837   4
   0   2  -8 46662.4 1157.09   3
   0   2  -8 47708.8 907.638   2
   0   2  -7 676915. 4114.27   3
   0  -2   6 234153. 1207.36   1
   0   2  -6 238495. 1679.89   2
   0  -2   6 235810. 1849.26   4
   0   2  -5 39969.9 622.534   2
   0  -2   5 40854.7 498.816   1
   0  -2   5 41103.5 440.545   1
   0   2  -5 38768.1 851.825   3
   0  -2   5 42422.9 738.416   4
   0  -2   4 102.408 54.8954   4
   0  -2   4 122.798 45.4892   1
   0  -2   4 25.2078 34.3677   1
   0   2  -4-8.30606 66.1949   3
   0   2  -4 9.10967 48.7761   2
   0   2  -3 181717. 1492.45   3
   0  -2   3 179663. 1234.83   4
   0  -2   3 178547. 947.279   1
   0  -2   2 57784.2 490.053   1
   0   2  -2 53116.6 453.914   2
   0  -2   2 56047.9 633.241   4
   0  -2   2 59260.6 452.204   1
   0  -2   2 53725.8 456.094   2
   0   2  -2 59154.7 758.145   3
   0  -2   1 5172.16 106.039   2
   0  -2   1 5374.97 135.689   1
   0   2  -1 5028.09 101.788   2
   0   2  -1 4619.28 187.688   3
   0   2  -1 4842.54 164.497   4
   0   2  -1 4617.50 135.759   1
   0   2   6 79226.9 759.955   4
   0   2   6 85890.4 1175.52   3
   0  -2  -6 85342.0 988.093   2
   0  -2  -6 81016.8 850.515   1
   0   2   7 7264.73 249.266   4
   0  -2  -7 7796.40 286.620   1
   0  -2  -7 7505.89 329.061   2
   0   2   7 7806.98 390.149   3
   0  -2  -9 790964. 3194.03   1
   0  -2 -10 115643. 1262.39   1
   0   2  10 117176. 1836.36   3
   0   2  10 120712. 1234.22   4
   0   2  11 2331.07 299.917   3
   0  -2 -11 2653.55 277.156   2
   0   2  12 1748.46 278.367   3
   0  -2 -12 1925.26 254.339   2
   0   2  13 79942.3 1809.11   3
   0  -2 -13 79464.2 1591.10   2
   0   2  14 13812.7 802.941   3
   0  -2 -14 13144.8 704.415   2
   0   2  15 170.016 204.324   3
   0  -2 -15 40.6404 166.980   2
   0  -2 -16 35016.2 1274.28   2
   0   2  16 34113.1 1369.67   3
   0  -3  13 17221.1 959.474   3
   0   3 -12 449.476 199.117   2
   0  -3  12 366.242 197.286   3
   0  -3  11 373.387 202.808   3
   0   3 -11 167.452 126.128   2
   0   3 -10 172694. 1997.97   2
   0  -3  10 175556. 2539.63   3
   0   3  -9 14628.4 540.571   2
   0   3  -9 13295.1 691.450   3
   0  -3   9 15224.3 613.472   4
   0   3  -8 26384.8 669.937   2
   0   3  -8 27445.2 925.859   3
   0  -3   8 26677.5 754.219   4
   0   3  -7 44594.2 808.099   2
   0  -3   7 45213.1 929.425   4
   0   3  -6 118201. 1193.46   2
   0  -3   6 121793. 797.448   1
   0   3  -5 379522. 2824.59   3
   0  -3   5 372888. 2348.49   4
   0  -3   4 28969.9 384.460   1
   0  -3   4 29827.5 617.575   4
   0   3  -4 29818.6 482.246   2
   0   3  -4 28579.5 721.313   3
   0   3  -3 131041. 867.796   2
   0  -3   3 129519. 1193.11   4
   0  -3   2 2294.74 153.751   4
   0  -3   2 2436.96 102.924   2
   0   3  -2 2552.97 182.980   3
   0  -3   2 2303.19 109.285   1
   0   3  -2 2663.10 103.778   2
   0  -3  -3 177.661 44.2846   2
   0  -3  -3 89.8104 42.9936   1
   0   3   3 175.959 34.6556   4
   0  -3  -3 193.203 49.4134   4
   0  -3  -4 89921.1 712.845   4
   0   3   4 88492.7 1006.98   3
   0   3   4 88459.2 641.407   4
   0  -3  -4 88872.4 802.906   1
   0  -3  -4 90063.8 799.510   2
   0  -3  -5 216931. 1164.79   4
   0   3   5 213081. 1722.90   3
   0  -3  -6 2387.72 158.006   1
   0  -3  -6 2452.80 170.497   2
   0   3   6 2035.46 201.291   3
   0   3   7 46116.8 934.196   3
   0  -3  -7 46295.0 726.397   1
   0  -3  -7 46519.9 802.786   2
   0  -3  -8 419.914 85.1151   1
   0   3   8 288.858 66.4065   4
   0   3   8 467.446 139.794   3
   0  -3  -8 427.422 105.238   2
   0   3   9 30486.2 878.034   3
   0  -3  -9 29799.5 651.523   1
   0   3   9 29411.5 534.163   4
   0   3  10 288352. 1766.50   4
   0  -3 -10 282646. 2463.77   2
   0  -3 -10 283791. 2105.43   1
   0  -3 -11 160586. 1994.90   2
   0   3  11 167606. 2310.41   3
   0   3  12 6.32095 133.241   3
   0  -3 -12 403.183 138.277   2
   0  -3 -13 30498.1 986.897   2
   0   3  13 28711.1 1083.91   3
   0  -3 -14 14217.9 721.473   2
   0   3  14 15890.1 834.522   3
   0  -3 -15 11692.6 693.906   2
   0   3  15 10575.1 740.722   3
   0  -3 -16 153365. 2625.27   2
   0   3  16 155587. 2916.11   3
   0  -4  13 21196.2 1091.73   3
   0  -4  12 22069.1 1070.79   3
   0  -4  11 93.9722 175.767   3
   0   4 -10 15236.5 610.063   2
   0  -4  10 18051.8 752.743   4
   0  -4   9 192354. 2282.02   4
   0   4  -9 196840. 2704.41   3
   0   4  -8 391885. 3683.33   3
   0   4  -8 378581. 2554.56   2
   0   4  -7 19269.4 769.397   3
   0  -4   7 19808.8 670.111   4
   0   4  -7 19092.4 523.318   2
   0  -4   6 1964.78 114.564   1
   0   4  -6 1647.84 231.099   3
   0  -4   6 2110.49 222.976   4
   0   4  -6 1921.31 161.657   2
   0   4  -5 249717. 1554.64   2
   0   4  -5 244671. 2390.96   3
   0   4  -4 933929. 4374.57   3
   0   4  -3 31259.5 750.351   3
   0   4  -3 33179.9 433.743   2
   0  -4   3 32491.5 665.691   4
   0  -4   3 31704.5 444.533   1
   0  -4   2 65836.7 546.544   2
   0  -4   2 64570.1 884.904   4
   0   4  -2 64825.1 492.706   2
   0  -4   2 63651.1 633.322   1
   0  -4   1 117695. 858.405   1
   0   4  -1 118610. 1248.22   3
   0   4  -1 117168. 1087.34   4
   0  -4  -3 67392.9 742.925   1
   0   4   3 68695.1 651.849   4
   0  -4  -3 69513.3 591.960   2
   0  -4  -4 148488. 1010.24   2
   0   4   4 155974. 952.959   4
   0   4   4 148678. 1392.18   3
   0  -4  -4 154230. 1147.80   1
   0  -4  -5 15342.3 389.461   1
   0   4   5 15650.7 303.227   4
   0  -4  -5 14359.8 363.270   2
   0  -4  -6 861.202 110.034   1
   0   4   6 929.129 83.4381   4
   0  -4  -6 864.349 109.004   2
   0   4   6 924.727 145.335   3
   0   4   7 208732. 2044.14   3
   0   4   7 205925. 1171.67   4
   0  -4  -7 207262. 1662.75   2
   0  -4  -7 207484. 1584.93   1
   0  -4  -8 12769.3 428.958   1
   0  -4  -8 11544.4 430.649   2
   0   4   8 11597.8 295.407   4
   0   4   8 12770.6 544.230   3
   0  -4  -9 3395.29 258.540   2
   0  -4  -9 4284.61 269.592   1
   0   4   9 3486.94 307.437   3
   0  -4 -10 9063.41 401.592   1
   0   4  10 9473.06 535.845   3
   0   4  10 10500.3 309.447   4
   0  -4 -10 8032.23 420.224   2
   0   4  11 146588. 2175.96   3
   0  -4 -11 147675. 1888.52   2
   0   4  12 1580.51 261.100   3
   0  -4 -12 1500.67 223.325   2
   0   4  13 146086. 2410.99   3
   0  -4 -13 143155. 2085.31   2
   0  -4 -14 97884.3 1840.01   2
   0   4  14 85762.8 1951.75   3
   0   4  15 31291.0 1243.67   3
   0  -4 -15 29380.6 1071.05   2
   0  -4 -16 31040.3 1177.36   2
   0   4  16 29530.6 1273.32   3
   0  -5  12 109043. 2401.11   3
   0  -5  11 119374. 2399.50   3
   0   5 -10 44022.3 1432.20   3
   0  -5  10 44087.3 1244.42   4
   0   5  -9 162075. 2611.21   3
   0  -5   9 160818. 2201.95   4
   0  -5   8 660356. 4294.89   4
   0   5  -8 657656. 3386.22   2
   0  -5   7 21389.3 741.076   4
   0   5  -7 20143.5 829.325   3
   0   5  -7 20155.9 547.201   2
   0   5  -6 30759.4 969.131   3
   0   5  -6 28941.6 592.770   2
   0  -5   6 29248.6 827.056   4
   0   5  -5 143221. 1177.78   2
   0  -5   5 140790. 1025.24   1
   0  -5   4 608.989 82.9239   1
   0  -5   4 903.934 141.064   4
   0   5  -4 600.358 137.004   3
   0   5  -4 886.642 96.1882   2
   0  -5   3 1284.43 107.403   1
   0  -5   3 1514.17 167.288   4
   0   5  -3 1300.58 175.173   3
   0  -5   2 233507. 1105.29   2
   0   5  -2 235791. 2069.24   3
   0   5   0 112070. 1150.36   4
   0   5   0 113763. 1310.10   3
   0  -5   0 111959. 966.467   1
   0   5   1 17920.2 433.053   4
   0  -5  -1 17276.1 391.445   1
   0   5   2 141846. 1148.87   4
   0   5   2 138652. 1361.65   3
   0  -5  -2 142426. 1136.47   1
   0   5   3 640.554 111.954   3
   0   5   3 483.673 73.4901   4
   0  -5  -3 482.242 84.1460   1
   0  -5  -3 493.393 59.0120   2
   0  -5  -5 52808.4 689.790   2
   0   5   5 53261.8 940.821   3
   0  -5  -5 53470.8 774.307   1
   0   5   5 53382.1 624.040   4
   0   5   6 6.63000 68.8022   3
   0  -5  -6 8.65900 62.0194   2
   0  -5  -6 174.839 83.6283   1
   0   5   6 51.7812 34.1738   4
   0   5   7 108119. 871.113   4
   0  -5  -7 107157. 1189.46   2
   0   5   8 511877. 3468.74   3
   0  -5  -9 51682.0 945.806   1
   0   5   9 51462.6 1156.69   3
   0   5   9 49511.7 622.605   4
   0   5  10 100920. 1738.24   3
   0  -5 -10 103537. 1409.16   1
   0   5  10 113894. 949.881   4
   0  -5 -10 114645. 1542.91   2
   0   5  11 58107.1 1379.18   3
   0  -5 -11 54924.4 1055.74   1
   0  -5 -11 58198.5 1168.35   2
   0  -5 -12 1240.32 197.349   1
   0  -5 -12 1563.73 226.458   2
   0   5  12 1723.88 267.249   3
   0  -5 -13 13020.2 638.639   2
   0   5  13 13861.9 762.005   3
   0   5  14 7245.40 586.468   3
   0  -5 -14 7567.04 522.172   2
   0  -5 -15 122179. 2166.62   2
   0   5  15 110992. 2334.37   3
   0  -5 -16 100426. 2092.53   2
   0   5  16 95692.0 2271.77   3
   0  -6  11 97341.6 2223.27   3
   0   6 -10 44797.5 1481.92   3
   0  -6  10 42967.9 1288.57   4
   0   6  -9 18236.5 934.206   3
   0  -6   9 14940.0 738.914   4
   0  -6   8 155953. 2217.66   4
   0   6  -8 151922. 2501.62   3
   0  -6   7 629.102 173.542   4
   0   6  -7 602.815 195.366   3
   0   6  -6 6043.12 456.310   3
   0  -6   6 5731.83 394.887   4
   0   6  -5 14973.7 386.502   2
   0   6  -5 15068.7 678.859   3
   0  -6   5 14469.0 362.762   1
   0  -6   5 15679.9 615.161   4
   0   6  -4 231969. 2524.56   3
   0  -6   4 235272. 1471.28   1
   0   6  -4 234091. 1330.07   2
   0  -6   4 231584. 2194.88   4
   0  -6   3 13670.5 360.913   1
   0  -6   3 13238.0 512.076   4
   0   6  -3 13949.1 276.786   2
   0   6  -3 13658.9 571.401   3
   0   6  -2 27237.8 307.440   2
   0   6  -2 25197.3 746.908   3
   0  -6   2 26807.8 702.723   4
   0  -6   2 27025.8 512.144   1
   0  -6   1 207819. 1428.51   1
   0   6  -1 206963. 1820.16   4
   0   6  -1 207753. 2030.56   3
   0   6   0 350727. 2224.61   4
   0   6   0 334161. 2501.00   3
   0   6   1 411464. 2655.60   3
   0   6   2 4735.40 238.491   4
   0   6   2 5004.18 120.980   2
   0   6   2 5113.02 296.946   3
   0   6   2 5401.88 145.787   2
   0   6   3 117855. 1117.90   4
   0   6   3 116234. 1397.23   3
   0  -6  -3 114412. 792.505   2
   0  -6  -3 115568. 1159.39   1
   0   6   6 1794.27 132.480   4
   0  -6  -6 1301.18 144.279   1
   0  -6  -6 1645.51 144.437   2
   0  -6  -7 5522.44 306.956   1
   0   6   7 5274.08 211.485   4
   0  -6  -7 5005.04 260.098   2
   0   6   7 5441.41 354.531   3
   0  -6  -8 134732. 1436.33   2
   0   6   8 137878. 1052.43   4
   0   6   8 132058. 1820.51   3
   0  -6  -9 101590. 1357.07   1
   0  -6  -9 104482. 1367.93   2
   0   6   9 105326. 1707.87   3
   0  -6 -10 32720.4 821.484   2
   0   6  10 32013.6 507.072   4
   0  -6 -10 32547.2 822.981   1
   0   6  10 33146.7 1002.69   3
   0  -6 -11 293289. 2605.48   2
   0  -6 -11 293100. 2574.64   1
   0   6  12 155597. 2390.03   3
   0  -6 -12 148006. 1981.50   2
   0  -6 -13 8313.48 509.189   2
   0   6  13 7536.68 577.469   3
   0  -6 -14-11.6284 148.960   2
   0   6  14-98.7181 179.834   3
   0   6  15 267473. 3630.72   3
   0  -6 -15 263382. 3154.21   2
   0   6  16 49899.9 1639.01   3
   0  -6 -16 46753.4 1427.09   2
   0   7 -10 23247.2 1127.15   3
   0   7  -9 42803.0 1490.66   3
   0  -7   9 44763.7 1346.51   4
   0   7  -8 30355.3 1172.78   3
   0  -7   8 29731.4 1044.73   4
   0  -7   7 81586.5 1643.55   4
   0   7  -7 78295.4 1812.80   3
   0   7  -6-4.12450 137.093   3
   0  -7   6-32.9281 118.701   4
   0   7  -5 1090.33 221.817   3
   0  -7   5 896.231 172.583   4
   0  -7   4 316562. 2753.84   4
   0   7  -4 313630. 3122.62   3
   0  -7   4 318769. 1872.76   1
   0  -7   2 185125. 1993.21   4
   0   7  -2 182218. 2157.94   3
   0  -7   2 181520. 1450.53   1
   0   7  -1 10951.2 512.551   3
   0  -7   1 10789.2 358.642   1
   0   7  -1 10585.2 453.801   4
   0  -7   0 234060. 1667.24   1
   0   7   0 237650. 2278.63   3
   0   7   0 233355. 2003.33   4
   0   7   1 96339.3 1409.69   3
   0  -7  -1 93931.7 1089.64   1
   0   7   2 83787.1 1297.18   3
   0  -7  -2 89723.7 1067.80   1
   0   7   2 80212.4 535.342   2
   0   7   2 90229.4 1143.49   4
   0   7   2 80869.6 457.408   2
   0   7   3 534.698 101.151   4
   0   7   3 435.083 116.372   3
   0  -7  -3 594.678 68.6199   2
   0  -7  -3 472.778 98.4668   1
   0   7   4 47788.9 763.047   4
   0  -7  -4 48325.0 838.071   1
   0  -7  -4 47361.3 595.437   2
   0  -7  -5 140236. 1135.39   2
   0   7   5 144068. 1280.25   4
   0   7   5 138224. 1710.10   3
   0  -7  -5 142923. 1471.25   1
   0   7   6 18484.8 442.841   4
   0  -7  -6 18853.6 458.497   2
   0  -7  -6 18242.4 543.361   1
   0   7   7 125139. 1124.28   4
   0  -7  -7 120535. 1249.18   2
   0  -7  -7 120404. 1447.19   1
   0   7   7 122334. 1724.65   3
   0  -7  -9 371412. 2558.62   2
   0  -7  -9 369848. 2709.37   1
   0   7  10 7241.42 495.930   3
   0  -7 -10 7336.80 390.332   2
   0  -7 -10 6940.69 395.955   1
   0   7  10 8015.40 272.916   4
   0  -7 -11 13056.0 574.199   1
   0  -7 -11 13783.0 572.215   2
   0   7  11 13822.4 698.429   3
   0   7  12 93173.2 1849.22   3
   0  -7 -12 91123.7 1554.01   2
   0  -7 -12 90235.0 1550.51   1
   0  -7 -13 93033.5 1671.23   2
   0   7  13 96208.3 1974.25   3
   0   7  14 27658.0 1122.65   3
   0  -7 -14 28042.4 976.915   2
   0  -7 -15 46863.7 1339.22   2
   0   7  15 44337.2 1470.44   3
   0   7  16 225.891 224.218   3
   0  -7 -16-22.6611 194.845   2
   0   8 -10 129.507 240.087   3
   0   8  -9 13305.9 877.451   3
   0  -8   9 11487.0 735.572   4
   0  -8   8 39695.3 1278.23   4
   0   8  -8 44228.4 1472.72   3
   0   8  -7 262268. 3477.21   3
   0  -8   7 251676. 3066.43   4
   0   8  -6 205675. 2903.69   3
   0  -8   6 197446. 2607.80   4
   0   8  -5 1250.75 255.372   3
   0  -8   5 1028.46 215.858   4
   0   8  -4 11.6367 141.311   3
   0  -8   4 92.8500 71.9595   1
   0  -8   4 26.0028 122.760   4
   0   8  -3 90216.7 1676.94   3
   0  -8   3 91497.0 1544.11   4
   0   8  -2 65966.6 1381.09   3
   0  -8   2 66283.1 1274.17   4
   0  -8   2 63934.2 926.428   1
   0   8  -1 10073.8 522.592   3
   0  -8   1 9900.27 480.655   4
   0  -8   1 9145.20 358.099   1
   0  -8   0 28959.1 630.553   1
   0   8   0 29953.5 792.386   4
   0  -8  -1 18163.2 514.007   1
   0   8   1 18360.3 587.365   4
   0   8   1 18441.0 675.054   3
   0  -8  -2 30513.2 674.716   1
   0   8   2 30422.9 734.548   4
   0   8   3 501342. 3372.22   3
   0   8   4 2281.04 189.752   4
   0   8   4 2135.51 231.131   3
   0  -8  -4 2196.66 199.763   1
   0  -8  -4 2704.25 152.886   2
   0   8   5 410515. 3138.42   3
   0   8   5 406116. 2364.64   4
   0  -8  -5 401225. 2637.51   1
   0  -8  -6 132355. 1556.92   1
   0   8   6 132612. 1827.38   3
   0   8   6 141223. 1341.28   4
   0  -8  -6 140719. 1266.42   2
   0   8   7 107006. 1670.55   3
   0  -8  -7 105933. 1425.15   1
   0  -8  -7 105366. 1176.72   2
   0  -8  -8 86646.6 1351.59   1
   0   8   8 84343.0 1560.96   3
   0   8   8 87859.5 997.952   4
   0  -8  -8 84155.2 1143.48   2
   0  -8  -9 535183. 3089.71   2
   0  -8  -9 545039. 3444.81   1
   0  -8 -10 309917. 2695.99   1
   0  -8 -10 312206. 2538.48   2
   0   8  10 311866. 1798.39   4
   0  -8 -11 261.917 130.041   1
   0   8  11 159.521 151.706   3
   0  -8 -11-11.9278 94.7426   2
   0  -8 -12 38462.1 1043.53   1
   0   8  12 36723.9 1200.58   3
   0  -8 -12 35200.2 966.571   2
   0  -8 -13 81324.7 1556.19   2
   0   8  13 83995.0 1889.82   3
   0  -8 -14 71353.3 1540.54   2
   0  -8 -14 67292.0 1480.57   1
   0   8  14 69356.8 1787.05   3
   0   8  15 1939.79 366.506   3
   0  -8 -15 1185.33 245.412   2
   0  -8 -16 9931.82 665.896   2
   0   8  16 9920.83 754.280   3
   0  -9   9 135453. 2608.34   4
   0   9  -9 138381. 2882.28   3
   0   9  -8 2027.89 390.603   3
   0  -9   8 2160.07 368.758   4
   0  -9   7 11387.1 713.514   4
   0   9  -7 11300.1 777.366   3
   0   9  -6 69600.7 1776.11   3
   0  -9   6 75774.7 1721.93   4
   0  -9   5 49114.0 1328.15   4
   0   9  -5 54621.7 1510.58   3
   0   9  -4 6317.04 512.957   3
   0  -9   4 6424.17 471.729   4
   0  -9   3 14074.6 654.852   4
   0  -9   3 14354.4 464.729   1
   0   9  -3 14473.2 721.940   3
   0   9  -2 4180.53 380.214   3
   0  -9   2 3944.43 340.812   4
   0  -9   2 4145.98 257.895   1
   0  -9   1 5397.21 392.371   4
   0  -9   1 4911.42 286.499   1
   0   9  -1 5061.58 405.467   3
   0   9   0 538.670 155.841   3
   0  -9   0 536.936 114.822   1
   0   9   0 597.724 148.757   4
   0  -9  -1 182255. 1725.36   1
   0   9   1 179623. 1974.09   4
   0   9   2 171927. 1866.37   4
   0  -9  -2 174829. 1723.47   1
   0   9   2 169257. 2142.65   3
   0   9   3 8529.75 407.125   4
   0   9   3 7531.84 190.814   2
   0   9   3 7752.98 462.955   3
   0   9   4 997.909 182.050   3
   0  -9  -4 1117.80 167.482   1
   0   9   4 1237.04 167.749   4
   0   9   4 1102.11 106.258   2
   0  -9  -5 564701. 3296.87   1
   0   9   5 563975. 3910.54   3
   0  -9  -6 257852. 1743.65   2
   0  -9  -6 258424. 2305.81   1
   0   9   6 261192. 2734.46   3
   0  -9  -7 5061.18 336.239   1
   0   9   7 3858.74 356.204   3
   0  -9  -7 4772.64 266.016   2
   0   9   7 4052.63 248.848   4
   0  -9  -8 140061. 1787.98   1
   0  -9  -8 144786. 1513.05   2
   0   9   8 145935. 1401.88   4
   0   9   8 139246. 2064.67   3
   0  -9  -9 64322.7 1084.40   2
   0   9   9 65578.2 923.411   4
   0   9   9 64420.8 1469.67   3
   0  -9  -9 63728.1 1253.19   1
   0   9  10 185523. 2554.95   3
   0  -9 -10 188870. 1984.14   2
   0  -9 -10 190738. 2219.37   1
   0   9  10 187336. 1509.46   4
   0  -9 -11 72187.4 1301.61   2
   0  -9 -11 70938.5 1395.70   1
   0  -9 -12 821.333 202.704   1
   0  -9 -12 1032.39 203.118   2
   0   9  12 759.016 242.221   3
   0  -9 -13 18827.4 792.281   1
   0  -9 -13 19004.6 764.278   2
   0   9  13 18490.9 918.121   3
   0  -9 -14 511.519 180.460   2
   0   9  14 531.071 226.002   3
   0  -9 -14 455.747 220.439   1
   0  -9 -15 3313.56 380.708   2
   0   9  15 2846.25 427.676   3
   0   9  16 1923.22 390.783   3
   0  -9 -16 1944.96 343.103   2
   0 -10   8 1798.55 358.622   4
   0  10  -8 2417.82 416.271   3
   0  10  -7 2108.66 415.663   3
   0 -10   7 1663.20 321.325   4
   0  10  -6 36867.9 1362.85   3
   0 -10   6 39867.9 1353.39   4
   0  10  -5 166.908 192.781   3
   0 -10   5 193.702 177.735   4
   0  10  -4 8175.58 614.650   3
   0 -10   4 8223.34 562.749   4
   0  10  -3-271.552 173.570   3
   0 -10   3 392.914 188.394   4
   0 -10   2 149998. 2180.66   4
   0 -10   2 147215. 1621.86   1
   0 -10   1 42564.6 881.911   1
   0  10  -1 41148.0 1207.63   3
   0 -10   1 43232.4 1155.21   4
   0 -10   0 87159.7 1272.09   1
   0  10   0 86266.8 1685.90   3
   0 -10   0 83902.8 1548.73   4
   0  10   1 357.639 146.411   4
   0 -10  -1 96.4826 86.9405   1
   0  10   1 245.056 125.101   3
   0  10   2 105370. 1820.78   3
   0  10   2 102869. 1543.51   4
   0 -10  -2 108234. 1468.66   1
   0 -10  -3 298852. 2456.17   1
   0  10   3 298888. 2556.40   4
   0  10   3 295417. 2996.04   3
   0 -10  -4 102107. 1462.85   1
   0  10   4 102733. 1462.30   4
   0  10   4 100662. 1753.99   3
   0 -10  -5 1688.99 213.786   1
   0  10   5 1791.67 144.409   2
   0  10   5 1484.41 240.103   3
   0  10   5 1840.55 200.412   4
   0  10   6 6866.79 483.751   3
   0 -10  -6 7115.58 303.821   2
   0  10   6 7224.96 366.827   4
   0 -10  -6 6846.44 412.149   1
   0 -10  -8 52789.5 1155.13   1
   0  10   8 53125.6 924.800   4
   0  10   8 53810.8 1358.09   3
   0 -10  -8 54193.0 938.488   2
   0  10   9 156954. 1544.94   4
   0 -10  -9 157727. 2090.77   1
   0 -10  -9 158341. 1723.34   2
   0  10   9 162978. 2403.93   3
   0  10  10 86490.8 1801.30   3
   0 -10 -10 85791.3 1561.97   1
   0 -10 -10 86383.1 1357.91   2
   0  10  11 14020.8 768.562   3
   0 -10 -11 15214.8 683.496   1
   0 -10 -11 16209.2 632.926   2
   0 -10 -12 19050.9 797.574   1
   0 -10 -12 19582.8 732.020   2
   0  10  12 19939.4 930.377   3
   0  10  13 16759.4 898.563   3
   0 -10 -13 17424.7 731.282   2
   0 -10 -13 17868.2 814.870   1
   0 -10 -14 214889. 2708.61   2
   0 -10 -14 203289. 2780.21   1
   0 -10 -15 1168.99 296.013   1
   0  10  15 377.126 230.272   3
   0 -10 -15 682.569 218.974   2
   0  10  16 33901.2 1395.14   3
   0 -10 -16 34554.3 1224.24   2
   0  11  -7 1452.92 378.264   3
   0 -11   6 19685.8 1012.94   4
   0  11  -6 18511.7 1032.61   3
   0  11  -5 4149.54 494.478   3
   0 -11   5 4773.80 497.104   4
   0 -11   4 16072.4 841.331   4
   0  11  -4 17708.4 941.335   3
   0  11  -3 3210.23 410.087   3
   0 -11   3 2283.61 332.422   4
   0  11  -2 25553.0 1035.63   3
   0 -11   2 23934.6 940.214   4
   0 -11   1 9232.15 580.384   4
   0 -11   1 8603.90 430.668   1
   0  11  -1 9185.67 621.950   3
   0 -11   0 36400.7 1104.67   4
   0 -11   0 35951.5 877.685   1
   0  11   0 38457.8 1207.50   3
   0  11   1 94422.3 1860.01   3
   0 -11  -1 94050.0 1424.14   1
   0  11   2 78373.0 1677.63   3
   0  11   2 77643.7 1451.61   4
   0 -11  -2 77409.8 1310.65   1
   0 -11  -3 255278. 2395.26   1
   0  11   3 256347. 2963.75   3
   0  11   3 257371. 2523.60   4
   0  11   4 381674. 2996.14   4
   0 -11  -4 381190. 2977.69   1
   0 -11  -5 1136.99 194.927   1
   0  11   5 1080.56 234.484   3
   0  11   5 1265.91 195.735   4
   0 -11  -6 9738.54 508.546   1
   0  11   6 8520.06 434.357   4
   0  11   6 8602.01 557.531   3
   0  11   7 4827.67 314.942   4
   0  11   7 4549.88 424.228   3
   0 -11  -7 5121.39 378.798   1
   0  11   8 124130. 1509.11   4
   0 -11  -8 129296. 1477.61   2
   0 -11  -8 126878. 1872.12   1
   0  11   8 129277. 2196.45   3
   0 -11  -9 19366.2 783.633   1
   0  11   9 19711.8 891.241   3
   0 -11  -9 20579.8 634.272   2
   0  11   9 19109.8 582.971   4
   0 -11 -10 338894. 2696.74   2
   0  11  10 324703. 3635.91   3
   0 -11 -10 338233. 3223.65   1
   0  11  10 323966. 2327.45   4
   0  11  11 16913.2 854.879   3
   0 -11 -11 15552.5 625.022   2
   0 -11 -11 15660.8 729.267   1
   0  11  12 1683.11 311.754   3
   0 -11 -12 1708.96 262.033   2
   0 -11 -12 1864.84 274.481   1
   0 -11 -13 1602.51 260.222   2
   0 -11 -13 2138.16 336.588   1
   0  11  13 1583.19 306.890   3
   0 -11 -14 39237.6 1170.05   2
   0  11  14 40627.1 1464.18   3
   0 -11 -14 40732.7 1300.43   1
   0 -11 -15-18.3452 177.081   2
   0 -11 -15 135.870 199.144   1
   0  11  15-70.8946 217.258   3
   0 -11 -16 85273.5 1908.26   2
   0  11  16 86728.3 2273.55   3
   0  12  -5 3027.16 489.972   3
   0 -12   5 3084.96 455.907   4
   0 -12   4 30048.7 1206.11   4
   0  12  -4 27770.9 1226.72   3
   0 -12   3 52633.2 1526.94   4
   0  12  -3 52912.0 1630.28   3
   0  12  -2 2173.70 373.743   3
   0 -12   2 1939.76 331.622   4
   0 -12   1 8719.81 592.099   4
   0  12  -1 8189.24 629.003   3
   0 -12   1 7886.78 436.121   1
   0  12   0 56508.5 1544.85   3
   0 -12   0 55446.9 1149.79   1
   0 -12   0 57014.0 1451.38   4
   0 -12  -1 33958.1 1095.47   4
   0  12   1 33417.4 1183.61   3
   0 -12  -1 31591.4 878.748   1
   0  12   2 7444.66 563.160   3
   0 -12  -2 7157.93 430.820   1
   0 -12  -3 80722.1 1424.20   1
   0  12   3 80830.5 1786.61   3
   0  12   3 81866.6 1541.99   4
   0  12   4 4887.51 449.928   3
   0 -12  -4 4676.06 364.490   1
   0  12   4 4760.42 369.270   4
   0  12   5 57697.7 1495.58   3
   0  12   5 59253.2 1216.89   4
   0 -12  -5 56721.4 1244.14   1
   0 -12  -6 552.547 153.556   1
   0  12   6 534.120 143.748   4
   0  12   6 547.189 203.356   3
   0 -12  -7 190037. 2343.58   1
   0  12   7 195333. 2762.00   3
   0  12   8 90276.8 1916.66   3
   0  12   8 84063.9 1360.90   4
   0 -12  -8 88620.3 1648.87   1
   0  12   9 5811.98 356.643   4
   0 -12  -9 6639.67 492.010   1
   0  12   9 5801.00 512.012   3
   0 -12 -10 10794.2 615.861   1
   0  12  10 11362.9 724.861   3
   0 -12 -10 9824.27 480.364   2
   0  12  10 9982.85 448.448   4
   0 -12 -11 102183. 1605.66   2
   0  12  11 96451.1 2107.36   3
   0 -12 -11 99051.0 1879.16   1
   0 -12 -12 102924. 1697.43   2
   0  12  12 103397. 2223.62   3
   0 -12 -12 103523. 1963.64   1
   0 -12 -13 85760.0 1646.52   2
   0 -12 -13 83665.0 1833.78   1
   0  12  14 1719.56 358.512   3
   0 -12 -14 1170.83 249.251   2
   0 -12 -14 1467.89 309.129   1
   0  12  15 27113.7 1277.13   3
   0 -12 -15 27450.5 1034.50   2
   0 -12 -15 28709.6 1168.80   1
   0 -12 -16 55258.1 1644.27   1
   0 -12 -16 51092.5 1495.91   2
   0  13  -4 360.199 325.535   3
   0  13  -3 150460. 2865.90   3
   0 -13   3 161138. 2830.22   4
   0 -13   2 64207.6 1738.99   4
   0  13  -2 64413.2 1833.14   3
   0  13  -1 6326.31 580.312   3
   0 -13   1 7014.11 576.263   4
   0 -13   0 1075.46 264.741   4
   0 -13   0 942.534 201.167   1
   0 -13  -1 54508.0 1463.56   4
   0  13   1 51130.2 1542.88   3
   0 -13  -1 52457.0 1198.61   1
   0  13   2 44238.9 1414.31   3
   0 -13  -2 42058.3 1275.82   4
   0 -13  -2 40931.3 1061.72   1
   0 -13  -3 1093.04 213.899   1
   0  13   3 1125.47 275.922   3
   0  13   4 19756.2 792.621   4
   0 -13  -4 18304.2 735.817   1
   0  13   4 20807.1 947.824   3
   0  13   5 158.183 120.115   4
   0  13   5 75.9329 175.012   3
   0 -13  -5 20.1554 119.715   1
   0 -13  -6 14026.8 663.075   1
   0  13   6 14980.1 819.918   3
   0  13   6 14010.7 618.992   4
   0  13   7 88.4353 173.160   3
   0  13   7 118.031 105.258   4
   0 -13  -7 253.751 162.106   1
   0 -13  -8 51774.0 1335.56   1
   0  13   8 52838.3 1538.84   3
   0  13   8 48550.3 1101.52   4
   0  13   9 129126. 2443.05   3
   0  13   9 127791. 1739.82   4
   0  13  10 13478.2 568.111   4
   0 -13 -10 15558.8 767.133   1
   0  13  10 14472.4 847.463   3
   0 -13 -11 4450.51 446.756   1
   0  13  11 5207.22 552.102   3
   0  13  12 21821.7 1085.11   3
   0 -13 -12 23643.8 988.154   1
   0  13  13 85969.3 2189.90   3
   0 -13 -13 86461.1 1690.08   2
   0 -13 -13 85283.6 1910.02   1
   0  13  14 2570.80 445.582   3
   0 -13 -14 1923.43 348.494   1
   0 -13 -14 2465.38 348.353   2
   0  13  15 3334.77 481.958   3
   0 -13 -15 3197.91 399.490   2
   0 -13 -15 3415.56 456.280   1
   0 -13 -16 4094.42 524.002   1
   0 -13 -16 4570.33 481.006   2
   0  14  -2 6899.82 672.529   3
   0 -14   1 112453. 2358.32   4
   0  14  -1 112457. 2462.31   3
   0 -14   0 66666.0 1764.96   4
   0  14   0 66264.2 1887.73   3
   0 -14  -1 26.6537 164.422   4
   0  14   1-70.8068 189.873   3
   0 -14  -1-13.5211 135.137   1
   0 -14  -2 2682.91 348.849   4
   0 -14  -2 2157.43 289.918   1
   0  14   2 2311.85 371.257   3
   0  14   3-23.6931 198.071   3
   0 -14  -3 76.1364 148.559   4
   0 -14  -3 36.8166 146.103   1
   0 -14  -4 43680.3 1286.06   4
   0 -14  -4 46964.3 1222.12   1
   0  14   5 50931.6 1558.26   3
   0 -14  -5 49824.0 1275.10   1
   0  14   6 123884. 1971.73   4
   0 -14  -6 127575. 2051.76   1
   0  14   7 20788.0 787.177   4
   0 -14  -7 22522.4 901.567   1
   0  14   7 23219.1 1074.93   3
   0  14   8 4480.13 499.150   3
   0  14   8 3779.47 337.117   4
   0 -14  -8 4516.76 443.786   1
   0  14   9 1405.54 219.820   4
   0 -14  -9 997.785 274.817   1
   0  14   9 1483.53 346.390   3
   0  14  10 2169.71 384.452   3
   0  14  10 2110.76 270.076   4
   0 -14 -10 1940.84 332.753   1
   0 -14 -11 23141.2 985.497   1
   0  14  11 23781.1 1154.99   3
   0  14  12 415.313 252.154   3
   0 -14 -12 491.183 241.445   1
   0 -14 -13 18284.5 934.707   1
   0  14  13 14283.9 945.353   3
   0  14  14 55193.4 1848.08   3
   0 -14 -14 60352.2 1735.36   1
   0 -14 -15 13928.7 884.350   1
   0  15   0 24856.4 1204.17   3
   0 -15  -1 10078.7 732.386   4
   0  15   1 9771.34 765.321   3
   0 -15  -2 104061. 1890.75   1
   0  15   2 104109. 2391.13   3
   0 -15  -2 104460. 2224.46   4
   0  15   3 9079.47 729.307   3
   0 -15  -3 9225.39 658.663   4
   0 -15  -3 8077.43 560.579   1
   0 -15  -4 3433.32 377.064   1
   0  15   4 3415.14 477.028   3
   0 -15  -4 3420.99 411.842   4
   0 -15  -5 60332.4 1478.47   1
   0 -15  -5 60250.3 1584.44   4
   0  15   5 61774.6 1820.64   3
   0  15   6 298920. 3938.58   3
   0 -15  -6 280575. 3251.78   1
   0  15   7 334.164 236.456   3
   0  15   7-45.3120 163.545   4
   0 -15  -7 265.255 197.150   1
   0  15   8 1654.29 331.549   3
   0  15   8 1055.32 217.653   4
   0 -15  -8 1420.89 266.606   1
   0 -15  -9 3909.30 439.046   1
   0  15   9 4002.59 507.633   3
   0  15   9 4357.58 383.393   4
   0  15  10 2397.72 400.996   3
   0 -15 -10 3058.42 402.620   1
   0 -15 -11 35054.0 1280.09   1
   0  15  11 37428.2 1465.62   3
   0 -15 -12 25723.3 1110.64   1
   0  15  12 25626.5 1255.10   3
   0  15  13-153.696 276.703   3
   0 -15 -13-6.69441 209.127   1
   0  16   2 21586.8 1147.03   3
   0 -16  -3 13195.2 742.594   1
   0  16   3 14935.0 956.773   3
   0 -16  -4 607.058 230.695   1
   0  16   4 126.238 268.029   3
   0 -16  -4 566.668 257.917   4
   0 -16  -5 2087.59 359.162   4
   0 -16  -5 1202.30 288.944   1
   0  16   5 1900.29 403.396   3
   0  16   6 1149.40 368.636   3
   0 -16  -6 541.201 238.018   1
   0 -16  -6 871.449 257.524   4
   0  16   7 36238.9 1455.90   3
   0 -16  -7 33469.4 1196.55   4
   0 -16  -7 38446.0 1301.70   1
   0  16   8 156345. 3045.16   3
   0 -16  -8 159402. 2663.32   1
   0 -16  -9 13823.6 811.040   1
   0  16   9 12272.5 668.219   4
   0  16   9 13444.0 906.515   3
   0  16  10 35.1377 241.146   3
   0 -16 -10 239.878 247.378   1
   0  16  11 1705.90 403.100   3
   0 -17  -7 2792.42 417.185   4
   0 -17  -8 6072.45 570.123   4
   0 -17  -9 11847.7 764.649   4
   1 -17  -7 2689.53 431.367   4
  -1  16  10 11651.9 873.346   3
   1 -16  -9 2058.50 371.055   1
  -1  16   9 2593.58 451.257   3
  -1  16   8 87.2883 263.071   3
   1 -16  -8 167.598 230.881   1
   1 -16  -8 105.327 198.919   4
   1 -16  -7 11016.3 733.407   1
   1 -16  -7 9240.83 645.642   4
  -1  16   7 10812.4 826.399   3
  -1  16   6 1071.38 342.984   3
   1 -16  -6 981.224 288.678   1
   1 -16  -6 645.529 245.542   4
  -1  16   5 9733.56 810.895   3
   1 -16  -5 8178.00 643.989   4
   1 -16  -5 8503.67 625.718   1
   1 -16  -4 20389.8 941.883   1
  -1  16   4 23910.2 1240.76   3
   1 -16  -4 21584.6 1055.42   4
   1 -16  -3 2276.52 378.823   1
   1 -15 -12 79453.1 2063.49   1
  -1  15  12 82449.0 2257.42   3
   1 -15 -11 52965.8 1637.80   1
  -1  15  11 51326.6 1750.41   3
   1 -15 -10 1635.38 335.277   1
  -1  15  10 1433.60 338.764   3
   1 -15  -9 20999.5 975.689   1
  -1  15   9 21378.6 1118.48   3
   1 -15  -8 55710.0 1554.06   1
  -1  15   8 57757.6 1822.90   3
   1 -15  -8 54429.2 1413.74   4
  -1  15   7 29055.7 1286.78   3
   1 -15  -7 28146.4 1044.14   4
   1 -15  -7 30643.6 1150.63   1
   1 -15  -6 563.151 229.836   1
  -1  15   6 368.777 234.782   3
   1 -15  -6 351.259 205.914   4
   1 -15  -5 9096.67 611.599   1
   1 -15  -5 8111.79 606.027   4
  -1  15   5 10317.2 777.542   3
   1 -15  -4 1246.88 296.973   4
  -1  15   4 2010.31 373.440   3
   1 -15  -4 2145.13 322.945   1
   1 -15  -3 45159.1 1466.60   4
  -1  15   3 46072.7 1653.76   3
   1 -15  -2 51212.0 1593.36   4
   1 -15  -2 48144.7 1341.00   1
  -1  15   2 49431.7 1707.13   3
  -1  15   1 172881. 3200.06   3
   1 -15  -1 161219. 2911.32   4
   1 -14 -14 13143.9 889.195   1
  -1  14  13 481.538 276.789   3
   1 -14 -13 548.438 288.369   1
   1 -14 -12 690.572 278.399   1
  -1  14  12 311.989 266.887   3
  -1  14  11 16256.5 970.340   3
   1 -14 -11 15676.5 872.809   1
   1 -14 -10 162335. 2656.32   1
  -1  14  10 156396. 2912.62   3
  -1  14   9 77150.2 2050.88   3
   1 -14  -9 80965.2 1827.15   1
   1 -14  -8 9990.99 641.571   1
   1 -14  -8 9735.22 566.448   4
  -1  14   8 9793.37 723.402   3
   1 -14  -7 9017.29 602.527   1
  -1  14   7 7832.75 645.674   3
   1 -14  -7 8379.95 561.809   4
   1 -14  -6 117762. 2090.39   1
   1 -14  -6 117406. 2040.74   4
  -1  14   6 118749. 2442.00   3
   1 -14  -5 1209.22 257.014   4
   1 -14  -5 1626.36 296.317   1
  -1  14   5 1636.39 331.083   3
   1 -14  -4 43140.9 1302.38   4
   1 -14  -4 45055.0 1255.85   1
  -1  14   4 42382.0 1479.62   3
  -1  14   3 21242.2 1070.34   3
   1 -14  -3 21278.6 945.912   4
   1 -14  -3 20450.6 842.049   1
   1 -14  -2 7050.16 505.640   1
   1 -14  -2 6496.46 562.956   4
  -1  14   2 7140.34 629.623   3
  -1  14   1 32845.0 1328.98   3
   1 -14  -1 31761.1 1227.66   4
   1 -14   0 3945.02 488.224   4
  -1  14   0 3194.67 449.963   3
   1 -14   1 13520.6 867.137   4
  -1  14  -1 14168.0 927.171   3
  -1  14  -2 10035.2 809.389   3
   1 -13 -15 6056.69 551.708   2
   1 -13 -15 6190.38 620.825   1
   1 -13 -14 28817.8 1097.94   2
  -1  13  14 29490.4 1329.54   3
   1 -13 -14 31026.9 1278.26   1
   1 -13 -13 83733.0 2041.88   1
  -1  13  13 85741.1 2197.89   3
   1 -13 -12 282.507 194.348   1
   1 -13 -12 3.78502 172.383   2
  -1  13  12 198.103 216.927   3
  -1  13  11 84322.6 2099.54   3
   1 -13 -11 85170.2 1925.46   1
   1 -13 -10 102449. 2047.93   1
  -1  13  10 106811. 2338.23   3
   1 -13  -9 109287. 2048.55   1
  -1  13   9 127719. 2491.99   3
  -1  13   8 195.984 192.252   3
   1 -13  -8 52.1463 157.818   1
   1 -13  -8 100.732 149.312   4
   1 -13  -7 107653. 1941.40   1
  -1  13   7 107428. 2231.35   3
   1 -13  -7 107682. 1784.78   4
  -1  13   6 20994.0 989.801   3
   1 -13  -6 19551.7 791.810   4
   1 -13  -6 20911.3 850.966   1
   1 -13  -5 4511.03 401.983   4
  -1  13   5 4176.09 465.812   3
   1 -13  -5 4127.58 385.397   1
   1 -13  -4 114034. 1996.47   4
  -1  13   4 112324. 2292.98   3
   1 -13  -4 116070. 1908.05   1
  -1  13   3 161198. 2792.08   3
   1 -13  -3 155652. 2380.37   4
   1 -13  -2 68642.9 1436.75   1
  -1  13   2 65710.2 1780.16   3
   1 -13  -2 66117.9 1609.82   4
  -1  13   1 5171.26 527.825   3
   1 -13  -1 4824.12 464.728   4
   1 -13  -1 4916.99 394.194   1
  -1  13   0 2085.65 370.114   3
   1 -13   0 2589.00 391.871   4
  -1  13  -1 4146.72 505.001   3
   1 -13   1 4888.65 520.199   4
   1 -13   2 25172.2 1148.34   4
  -1  13  -2 22928.5 1142.91   3
   1 -13   3 1792.24 371.033   4
  -1  13  -3 1546.40 392.408   3
   1 -12 -16 245.019 273.463   1
   1 -12 -16 202.129 215.007   2
   1 -12 -15 205.937 244.600   1
  -1  12  15 874.035 312.487   3
   1 -12 -15 160.877 206.304   2
  -1  12  14 46148.9 1594.67   3
   1 -12 -14 46293.1 1373.78   2
   1 -12 -14 48555.7 1536.65   1
   1 -12 -13 81187.3 1722.83   2
  -1  12  13 78451.7 2020.31   3
   1 -12 -13 83349.6 1983.78   1
   1 -12 -12 9818.04 585.999   2
  -1  12  12 11496.5 774.800   3
   1 -12 -12 9924.28 669.413   1
   1 -12 -11 110021. 1791.56   2
   1 -12 -11 106431. 2116.23   1
   1 -12 -10 233935. 2976.49   1
   1 -12 -10 232141. 2511.19   2
   1 -12  -9 178333. 2510.81   1
  -1  12   9 176200. 2111.13   2
   1 -12  -8 15564.2 621.738   4
  -1  12   8 14224.3 797.292   3
   1 -12  -8 15905.5 740.117   1
   1 -12  -7 104290. 1834.73   1
   1 -12  -7 101112. 1623.54   4
  -1  12   6 128994. 2324.26   3
   1 -12  -6 130410. 2012.36   1
   1 -12  -6 133476. 1912.97   4
   1 -12  -5 11014.6 577.774   4
   1 -12  -5 11124.3 586.349   1
  -1  12   5 10838.8 690.227   3
   1 -12  -4 2504.92 301.456   4
  -1  12   4 2400.54 347.778   3
   1 -12  -4 2030.14 264.258   1
  -1  12   3 313.781 182.355   3
   1 -12  -3 164.221 122.954   4
   1 -12  -3 497.120 155.344   1
   1 -12  -2 329004. 2962.68   1
   1 -12  -2 323870. 3304.66   4
  -1  12   1 79481.7 1888.99   3
   1 -12  -1 78585.2 1426.55   1
   1 -12  -1 77377.2 1673.97   4
  -1  12   0 1784.85 325.523   3
   1 -12   0 1555.30 231.272   1
   1 -12   0 1079.10 244.325   4
  -1  12  -1 7104.06 609.200   3
   1 -12   1 5917.03 517.173   4
   1 -12   2 54484.3 1559.88   4
  -1  12  -2 54721.6 1664.28   3
  -1  12  -3 61411.0 1801.42   3
   1 -12   3 66261.7 1818.11   4
  -1  12  -4 6007.04 638.615   3
   1 -12   4 5391.52 555.647   4
  -1  12  -5 1190.74 369.604   3
   1 -11 -16 22256.9 1046.24   2
   1 -11 -16 21244.0 1054.74   1
  -1  11  15 1985.47 392.234   3
   1 -11 -15 1494.02 308.297   2
   1 -11 -15 887.686 249.505   1
  -1  11  14 3042.27 454.914   3
   1 -11 -14 2984.40 416.885   1
   1 -11 -14 2979.44 377.467   2
   1 -11 -13 22403.5 1006.07   1
   1 -11 -13 20453.3 858.811   2
  -1  11  13 19675.2 985.672   3
   1 -11 -12 1537.23 267.767   2
   1 -11 -12 1411.08 287.722   1
  -1  11  12 1482.50 306.490   3
   1 -11 -11 25564.2 872.000   2
   1 -11 -11 27604.0 1040.42   1
  -1  11  11 27494.0 1111.61   3
   1 -11 -10 41470.0 1048.28   2
   1 -11 -10 42927.6 1244.47   1
  -1  11  10 43034.3 1373.22   3
   1 -11  -9 271376. 2985.42   1
   1 -11  -9 269290. 2505.60   2
   1 -11  -8 257889. 2821.58   1
   1 -11  -8 254630. 2234.16   4
  -1  11   7 16594.9 803.097   3
   1 -11  -7 15429.2 586.583   4
  -1  11   7 15846.7 569.478   2
   1 -11  -7 17184.8 719.004   1
  -1  11   6 111184. 2063.41   3
   1 -11  -6 112316. 1782.22   1
  -1  11   6 110296. 1412.91   2
   1 -11  -6 113871. 1643.44   4
   1 -11  -5 455289. 3392.91   4
   1 -11  -5 456257. 3493.56   1
  -1  11   4 106983. 2000.11   3
   1 -11  -4 109330. 1708.93   4
   1 -11  -3 654.166 160.499   1
  -1  11   3 345.595 180.062   3
   1 -11  -3 212.911 115.871   4
  -1  11   2 2536.35 340.485   3
   1 -11  -2 2904.16 282.083   1
   1 -11  -2 3229.19 332.793   4
   1 -11  -1 587.498 163.671   1
  -1  11   1 565.497 195.608   3
   1 -11  -1 258.332 129.044   4
   1 -11   0 53049.0 1354.56   4
  -1  11   0 53671.1 1480.65   3
   1 -11   0 52896.1 1102.83   1
  -1  11  -1 7796.92 590.898   3
   1 -11   1 8860.01 583.373   4
   1 -11   1 8891.04 440.983   1
   1 -11   2 45194.8 1355.78   4
  -1  11  -2 44455.8 1416.74   3
  -1  11  -3 16269.4 897.443   3
   1 -11   3 17683.9 885.818   4
  -1  11  -4 189.263 217.074   3
   1 -11   4 168.814 194.283   4
  -1  11  -5 3421.56 471.261   3
   1 -11   5 4573.36 513.396   4
  -1  11  -6 112005. 2588.61   3
   1 -11   6 110807. 2416.68   4
   1 -10 -16 7178.96 624.179   2
  -1  10  16 7143.19 666.545   3
   1 -10 -15 1543.49 305.304   2
  -1  10  15 1868.84 353.850   3
   1 -10 -15 1343.55 308.652   1
   1 -10 -14 1441.28 306.226   1
   1 -10 -14 1090.42 268.141   2
  -1  10  14 1203.30 288.656   3
   1 -10 -13 61738.0 1472.46   2
   1 -10 -13 60198.1 1564.32   1
   1 -10 -12 68059.8 1626.75   1
   1 -10 -12 65279.4 1436.10   2
  -1  10  11 36090.7 1212.71   3
   1 -10 -11 38139.2 1044.49   2
   1 -10 -11 35814.6 1131.50   1
   1 -10 -10 119.146 121.846   2
   1 -10 -10 274.077 154.197   1
  -1  10  10 21.3562 147.714   3
   1 -10  -9 987099. 5502.36   1
   1 -10  -8 79846.3 1505.85   1
   1 -10  -8 78600.5 1269.24   2
  -1  10   8 82837.9 1740.10   3
  -1  10   7 7123.63 380.601   2
  -1  10   7 6559.85 491.759   3
   1 -10  -7 6165.60 417.733   1
  -1  10   6 28144.2 976.112   3
   1 -10  -6 29211.7 751.973   4
  -1  10   6 30509.1 731.019   2
   1 -10  -6 29390.9 873.997   1
   1 -10  -5 137244. 1712.27   4
   1 -10  -5 136049. 1824.30   1
  -1  10   5 136247. 2130.72   3
   1 -10  -4 60701.8 1184.94   1
  -1  10   4 57850.6 1380.52   3
   1 -10  -4 57058.9 1154.21   4
  -1  10   4 58859.2 878.595   2
   1 -10  -3 7882.50 444.758   4
  -1  10   3 7296.53 500.549   3
   1 -10  -3 7591.34 427.328   1
   1 -10  -2 106662. 1664.67   4
   1 -10  -2 106009. 1507.90   1
   1 -10  -1 141.140 105.888   1
  -1  10   1 465.905 169.779   3
   1 -10  -1 293.963 134.299   4
  -1  10   0 4056.43 390.162   3
   1 -10   0 5179.06 330.814   1
   1 -10   0 4515.47 387.243   4
  -1  10  -1 1399.89 260.345   3
   1 -10   1 901.206 212.911   4
   1 -10   1 1154.18 166.260   1
   1 -10   2 15071.3 747.240   4
   1 -10   2 14619.9 527.998   1
  -1  10  -2 13981.5 751.722   3
  -1  10  -3 192021. 2883.23   3
   1 -10   3 192235. 2666.43   4
   1 -10   4 64213.5 1634.55   4
  -1  10  -4 54865.5 1606.61   3
  -1  10  -5 2519.52 398.555   3
   1 -10   5 2541.19 351.608   4
  -1  10  -6 2786.80 424.733   3
   1 -10   6 3746.04 460.762   4
   1 -10   7 98550.2 2260.42   4
  -1  10  -7 94932.6 2322.79   3
  -1   9  16 4569.19 535.472   3
   1  -9 -16 4456.98 488.992   2
   1  -9 -15 1455.59 319.382   2
  -1   9  15 1359.92 312.816   3
   1  -9 -15 1481.54 309.733   1
   1  -9 -14 4349.30 449.461   1
   1  -9 -14 5379.63 489.055   2
  -1   9  14 5548.98 541.452   3
   1  -9 -13 2614.02 326.894   2
   1  -9 -13 2475.69 337.348   1
  -1   9  13 2434.75 364.407   3
   1  -9 -12 184386. 2392.42   2
  -1   9  12 177120. 2699.43   3
   1  -9 -12 182939. 2553.69   1
   1  -9 -11 132317. 2127.31   1
   1  -9 -11 124234. 1877.57   2
   1  -9 -10 51614.0 1270.84   1
   1  -9 -10 47883.6 1102.77   2
  -1   9  10 50341.0 1351.59   3
   1  -9  -9 8033.51 496.621   1
   1  -9  -9 9591.26 480.416   2
  -1   9   9 9353.51 579.607   3
   1  -9  -8 70455.5 1197.92   2
   1  -9  -8 68342.5 1338.86   1
  -1   9   8 69382.7 1506.04   3
  -1   9   8 66193.2 895.240   4
  -1   9   7 42664.3 754.382   4
   1  -9  -7 41331.1 862.247   2
  -1   9   6 2055.50 203.965   2
   1  -9  -6 1929.77 232.346   1
  -1   9   6 1621.03 237.488   3
   1  -9  -5 18084.6 642.557   1
   1  -9  -5 17826.8 563.980   4
  -1   9   5 18777.5 746.187   3
  -1   9   5 18899.7 540.474   2
   1  -9  -4 34621.9 823.590   4
  -1   9   4 32998.2 979.865   3
   1  -9  -4 33463.5 844.868   1
  -1   9   4 33155.3 673.213   2
  -1   9   3 5664.08 419.715   3
   1  -9  -3 6123.87 362.100   1
   1  -9  -3 7264.56 395.984   4
  -1   9   3 7398.66 289.048   2
  -1   9   2 1253.46 219.135   3
   1  -9  -2 1060.17 174.451   4
   1  -9  -2 970.508 161.586   1
  -1   9   2 1309.23 112.591   2
   1  -9  -1 66403.0 1266.84   4
   1  -9  -1 66482.7 1089.32   1
  -1   9   0 174290. 2377.56   3
   1  -9   0 174833. 2127.62   4
   1  -9   0 180559. 1747.01   1
  -1   9  -1 8399.84 531.758   3
   1  -9   1 9938.22 405.568   1
   1  -9   1 8587.95 499.905   4
   1  -9   2 143.757 79.5534   1
   1  -9   2-101.980 123.321   4
  -1   9  -3 70551.0 1658.41   3
   1  -9   3 74106.7 1569.08   4
   1  -9   4 245795. 3010.68   4
  -1   9  -4 238796. 3160.86   3
  -1   9  -5 16439.5 878.249   3
   1  -9   5 17250.3 835.041   4
  -1   9  -6 6750.95 589.652   3
   1  -9   6 7052.73 560.373   4
   1  -9   7 96488.0 2128.57   4
  -1   9  -7 94424.7 2223.30   3
  -1   9  -8 9712.76 780.206   3
   1  -9   8 9273.75 707.496   4
   1  -9   9 2810.02 444.871   4
  -1   8  16 528.256 236.907   3
   1  -8 -16 1659.36 358.356   2
  -1   8  15 61623.2 1746.69   3
   1  -8 -15 64551.2 1658.54   2
  -1   8  14 119666. 2336.42   3
   1  -8 -14 124400. 2190.54   1
   1  -8 -13 10971.8 623.457   2
   1  -8 -13 10869.8 634.549   1
  -1   8  13 10689.4 694.189   3
  -1   8  12 36581.0 1203.17   3
   1  -8 -12 37860.2 1134.61   1
   1  -8 -12 36173.5 1063.07   2
  -1   8  11 23891.3 944.845   3
   1  -8 -11 23096.2 858.739   1
   1  -8 -11 23835.2 818.312   2
   1  -8 -10 274539. 2585.32   2
   1  -8 -10 267514. 2796.38   1
  -1   8   9 10728.1 592.386   3
   1  -8  -9 10564.6 547.585   1
   1  -8  -9 10969.2 508.490   2
   1  -8  -8 124921. 1567.27   2
   1  -8  -8 124953. 1778.89   1
  -1   8   8 120447. 1072.63   4
  -1   8   7 27010.9 537.738   4
   1  -8  -7 26321.2 778.768   1
   1  -8  -7 28253.7 711.479   2
   1  -8  -6 4237.82 264.853   2
  -1   8   6 4443.03 357.669   3
  -1   8   6 5119.45 251.260   4
   1  -8  -6 3996.05 308.037   1
   1  -8  -5 84929.7 1310.45   1
  -1   8   5 87128.4 1517.73   3
   1  -8  -4 317789. 2455.84   1
   1  -8  -4 314556. 2255.49   4
   1  -8  -3 33118.5 767.218   4
   1  -8  -3 31940.5 765.043   1
  -1   8   3 32690.7 931.214   3
   1  -8  -2 157953. 1639.22   1
  -1   8   2 160803. 2050.50   3
   1  -8  -2 161287. 1757.95   4
  -1   8   2 162604. 1219.88   2
   1  -8  -1 32906.4 722.579   1
  -1   8   1 35016.8 491.888   2
   1  -8  -1 33425.3 834.297   4
  -1   8   1 33575.9 956.675   3
   1  -8   0 1013.08 139.689   1
   1  -8   0 854.481 160.637   4
  -1   8  -1 38093.9 1064.91   3
   1  -8   1 38254.9 983.440   4
   1  -8   1 40082.0 749.883   1
  -1   8  -2 486.046 177.382   3
   1  -8   2 172.380 111.283   4
   1  -8   2 512.764 116.213   1
   1  -8   3 8936.09 522.004   4
   1  -8   3 8928.49 351.180   1
  -1   8  -3 8466.66 548.464   3
  -1   8  -4 81799.2 1754.31   3
   1  -8   4 82624.6 1657.74   4
  -1   8  -5 208967. 2923.79   3
   1  -8   5 209145. 2701.56   4
   1  -8   6 71766.7 1648.23   4
  -1   8  -6 75927.9 1835.92   3
   1  -8   7 7449.69 579.431   4
  -1   8  -7 6557.29 581.798   3
  -1   8  -8 105787. 2368.19   3
   1  -8   8 98340.8 2089.49   4
   1  -8   9 46.0591 200.373   4
  -1   8  -9 40.9047 223.321   3
   1  -8  10 1325.50 357.009   4
  -1   7  16 27191.5 1222.86   3
   1  -7 -16 26720.8 1142.61   2
   1  -7 -15 4754.87 481.360   2
  -1   7  15 4554.83 498.051   3
   1  -7 -14 84157.7 1735.31   1
   1  -7 -14 83374.7 1795.43   2
  -1   7  13 113710. 2144.40   3
   1  -7 -13 117555. 2000.10   2
   1  -7 -13 113206. 1963.44   1
  -1   7  12 22290.0 920.336   3
   1  -7 -12 23217.2 856.214   1
   1  -7 -12 23642.0 858.631   2
   1  -7 -11 4449.27 365.297   2
  -1   7  11 4689.33 416.842   3
   1  -7 -11 3721.23 348.615   1
   1  -7 -10 337395. 3029.24   1
  -1   7  10 343282. 3335.31   3
   1  -7  -9 10225.3 478.906   2
  -1   7   9 10161.0 560.489   3
   1  -7  -9 9646.07 501.321   1
  -1   7   8 21.2326 105.568   3
  -1   7   8 58.9088 41.7584   4
   1  -7  -8 243.932 106.698   2
  -1   7   7 2645.23 151.139   4
  -1   7   7 2449.98 260.486   3
   1  -7  -7 2783.68 226.709   2
   1  -7  -7 2382.83 236.586   1
   1  -7  -6 43369.6 923.277   1
   1  -7  -6 46817.4 850.356   2
  -1   7   6 47722.8 1070.43   3
  -1   7   6 43495.8 640.916   4
  -1   7   5 52568.2 1109.13   3
   1  -7  -5 58223.6 1032.39   1
   1  -7  -5 57495.5 890.690   2
  -1   7   5 54552.8 763.255   4
   1  -7  -4 55673.2 852.257   4
  -1   7   4 55042.5 1114.55   3
  -1   7   4 52768.4 816.451   2
  -1   7   3 2933.45 264.724   3
   1  -7  -3 3445.67 232.076   4
  -1   7   3 3459.36 202.682   2
  -1   7   2 582386. 3659.36   3
  -1   7   1 257717. 1421.73   2
  -1   7   1 260487. 2477.67   3
   1  -7  -1 262368. 2153.97   4
   1  -7  -1 264643. 1901.56   1
   1  -7   0 137778. 1399.26   1
  -1   7   0 140358. 925.247   2
  -1   7   0 134477. 1820.75   3
   1  -7   0 135819. 1612.02   4
  -1   7  -1 81171.3 674.307   2
   1  -7   1 77614.8 1300.06   4
  -1   7  -1 76683.4 1417.02   3
   1  -7   1 80747.1 985.881   1
   1  -7   2 286182. 1807.68   1
   1  -7   2 286114. 2609.02   4
   1  -7   3 12137.8 368.500   1
  -1   7  -3 12060.8 302.242   2
   1  -7   4 95813.8 985.200   1
   1  -7   4 98663.0 1687.01   4
   1  -7   5 266985. 2898.28   4
  -1   7  -5 281018. 3214.13   3
  -1   7  -6 3737.76 410.889   3
   1  -7   6 3479.56 371.970   4
  -1   7  -7 2347.33 348.533   3
   1  -7   7 2528.58 342.919   4
  -1   7  -8 112621. 2326.75   3
   1  -7   8 101698. 1998.70   4
  -1   7  -9 8594.62 701.253   3
   1  -7   9 8479.26 629.035   4
   1  -7  10 15803.1 884.165   4
  -1   7 -10 15912.0 972.318   3
  -1   6  16 145563. 2745.12   3
   1  -6 -16 151482. 2703.93   2
   1  -6 -15 62.8923 181.593   2
  -1   6  15 490.364 242.969   3
   1  -6 -14 1878.30 303.274   2
  -1   6  14 1553.28 305.939   3
   1  -6 -13 169188. 2300.27   1
  -1   6  13 170646. 2597.21   3
  -1   6  12 47452.1 1306.23   3
   1  -6 -12 47696.5 1216.35   2
  -1   6  11 1858.99 263.375   3
   1  -6 -11 1758.72 246.238   1
  -1   6  10 353929. 3285.60   3
   1  -6 -10 357918. 3023.40   1
   1  -6  -9 1648.56 214.537   1
  -1   6   9 2318.07 273.092   3
   1  -6  -9 1851.35 228.756   2
   1  -6  -8 27609.6 788.821   1
   1  -6  -8 28538.5 740.668   2
  -1   6   7 11609.2 527.046   3
   1  -6  -7 11708.2 492.995   1
   1  -6  -7 12343.1 456.517   2
   1  -6  -6 30709.8 675.949   2
   1  -6  -6 28225.0 723.434   1
  -1   6   6 27896.6 781.317   3
  -1   6   6 30150.1 459.386   4
   1  -6  -5 357548. 2445.17   1
  -1   6   5 341463. 2619.32   3
   1  -6  -4 45577.6 831.963   1
   1  -6  -4 45614.1 680.216   4
  -1   6   3 126350. 1541.88   3
   1  -6  -3 127220. 1227.09   4
  -1   6   3 122872. 1143.20   2
   1  -6  -3 124740. 1326.02   1
   1  -6  -2 107425. 1196.61   4
   1  -6  -2 108353. 1176.27   1
  -1   6   1 191678. 1262.93   2
   1  -6  -1 195103. 1562.86   1
   1  -6   0 324106. 2340.63   4
  -1   6   0 300386. 2551.07   3
   1  -6   1 148219. 1671.75   4
   1  -6   1 151729. 1252.17   1
   1  -6   2 5412.92 233.532   1
  -1   6  -2 5523.22 195.547   2
  -1   6  -2 5704.23 381.861   3
   1  -6   2 6224.72 362.565   4
   1  -6   3 31423.2 535.577   1
   1  -6   3 31334.0 842.667   4
  -1   6  -3 32260.8 495.137   2
  -1   6  -3 30196.0 906.369   3
  -1   6  -4 35197.0 574.392   2
  -1   6  -4 33264.8 992.285   3
   1  -6   4 35251.6 949.559   4
   1  -6   5 119247. 1812.47   4
  -1   6  -5 121631. 1171.90   2
   1  -6   6 216563. 2530.41   4
  -1   6  -6 216390. 1688.37   2
   1  -6   7 29983.1 979.242   4
  -1   6  -7 30494.1 1103.23   3
   1  -6   8 333.035 174.837   4
  -1   6  -8 88.2687 147.648   3
  -1   6  -9 615.215 243.527   3
   1  -6   9 991.884 258.257   4
  -1   6 -10 537.015 253.582   3
   1  -6  10 589.828 201.764   4
  -1   6 -11 12215.4 852.257   3
   1  -6  11 12150.0 766.958   4
  -1   5  16 122768. 2528.54   3
   1  -5 -16 126529. 2471.42   2
   1  -5 -15 18981.0 917.948   2
  -1   5  15 20148.7 982.737   3
  -1   5  14 16574.3 861.720   3
   1  -5 -14 17242.2 830.194   2
  -1   5  13 9848.26 637.551   3
   1  -5 -13 10730.5 622.749   2
   1  -5 -12 13212.9 646.585   2
  -1   5  12 13766.7 707.809   3
   1  -5 -12 12096.3 592.082   1
   1  -5 -11 12846.5 603.986   2
   1  -5 -11 11962.7 563.583   1
  -1   5  11 13120.7 651.722   3
  -1   5  10 226777. 2553.07   3
   1  -5 -10 229278. 2374.14   2
  -1   5   9 248363. 2535.90   3
   1  -5  -9 250014. 2331.91   2
  -1   5   8 303204. 2703.93   3
   1  -5  -8 308841. 2427.05   2
   1  -5  -7 6131.96 322.558   2
   1  -5  -7 5544.04 162.872   4
   1  -5  -7 5838.37 150.726   4
   1  -5  -7 5910.96 346.542   1
   1  -5  -6 304.182 73.2147   2
  -1   5   6 214.028 106.647   3
   1  -5  -6 170.443 44.2388   4
   1  -5  -6 173.999 94.0744   1
  -1   5   5 277733. 2233.19   3
   1  -5  -5 277128. 1868.63   2
   1  -5  -5 282745. 2114.15   1
   1  -5  -3 158.281 70.5451   1
   1  -5  -3 179.049 64.0556   4
  -1   5   3 63.7296 81.1561   3
  -1   5   3 90.2438 59.3827   2
  -1   5  -1 280831. 2330.24   3
   1  -5   1 277130. 2079.62   4
   1  -5   2 22776.5 428.926   1
  -1   5  -2 23459.8 717.378   3
  -1   5  -2 23664.5 403.615   2
   1  -5   2 23795.9 656.155   4
   1  -5   3 4507.70 184.502   1
   1  -5   3 3965.16 296.148   4
  -1   5  -3 3477.65 300.417   3
  -1   5  -3 3806.60 175.591   2
   1  -5   4 1991.36 218.796   4
  -1   5  -4 1975.27 242.925   3
  -1   5  -4 1807.98 140.600   2
   1  -5   4 2133.19 121.768   1
  -1   5  -5 21790.1 798.109   3
  -1   5  -5 23568.0 510.912   2
   1  -5   5 21572.3 343.499   1
   1  -5   5 23846.3 767.972   4
  -1   5  -6 881965. 5364.29   3
  -1   5  -7 800214. 5414.13   3
   1  -5   7 826408. 4843.25   4
   1  -5   8 141.928 148.642   4
  -1   5  -8 281.229 115.675   2
  -1   5  -8-110.957 205.189   3
   1  -5   9 679.064 200.071   4
  -1   5  -9 894.764 257.503   3
  -1   5 -10 253.807 189.953   3
   1  -5  10 45.9973 144.222   4
   1  -5  11 19223.5 913.023   4
  -1   5 -11 21435.4 1083.15   3
   1  -5  12-174.070 251.414   3
   1  -4 -16 3678.62 458.541   2
  -1   4  16 2315.44 405.274   3
   1  -4 -15 26376.2 1081.63   2
  -1   4  15 25841.0 1107.31   3
   1  -4 -14 6528.09 519.302   2
  -1   4  14 7349.32 577.945   3
   1  -4 -13 118568. 2041.02   2
  -1   4  13 123018. 2194.83   3
   1  -4 -12 202649. 2296.89   1
  -1   4  12 200225. 2658.18   3
   1  -4 -12 197807. 2483.33   2
   1  -4 -11 40499.5 1064.27   2
  -1   4  11 40763.7 1139.86   3
   1  -4 -11 40550.9 996.656   1
  -1   4  10 2907.35 298.501   3
   1  -4 -10 3064.58 297.364   2
   1  -4 -10 2985.06 271.351   1
   1  -4  -9 479921. 3172.94   1
   1  -4  -9 484027. 3228.22   2
   1  -4  -7 263642. 2157.20   1
   1  -4  -7 263636. 2089.62   2
   1  -4  -6 51148.9 901.640   1
   1  -4  -6 52926.0 867.909   2
  -1   4   6 52657.7 964.724   3
   1  -4  -5 20013.1 502.344   2
   1  -4  -5 20980.3 550.963   1
   1  -4  -5 20786.1 276.285   4
  -1   4   5 21242.0 577.117   3
   1  -4  -5 19396.7 271.302   4
   1  -4  -4 184854. 1557.23   1
   1  -4  -4 181927. 1420.75   2
  -1   4   4 189550. 1649.80   3
   1  -4  -4 189335. 912.913   4
   1  -4  -3 1658.57 105.967   4
   1  -4  -3 1850.20 153.435   1
  -1   4   3 1695.01 155.088   3
   1  -4  -2 25288.8 501.011   1
  -1   4   2 25546.2 572.279   3
   1  -4  -2 25575.9 450.569   4
  -1   4   2 23916.4 456.624   2
  -1   4   1 23791.5 567.580   3
   1  -4  -1 22920.5 451.430   1
  -1   4   1 22725.3 426.749   2
   1  -4  -1 22580.2 465.662   4
  -1   4  -1 49531.0 887.046   3
   1  -4   1 49225.3 588.901   1
   1  -4   1 50010.7 816.419   4
  -1   4  -2 24976.3 677.345   3
   1  -4   2 25801.6 403.156   1
   1  -4   2 27523.6 656.984   4
  -1   4  -2 26651.9 436.266   2
  -1   4  -3 479809. 3105.18   3
   1  -4   3 469616. 2861.94   4
  -1   4  -4 291262. 2635.17   3
  -1   4  -4 287666. 1202.66   1
   1  -4   4 285710. 2343.35   4
   1  -4   5 16313.1 246.462   1
   1  -4   5 16546.0 270.672   1
  -1   4  -5 15445.1 637.801   3
   1  -4   5 16412.6 605.776   4
  -1   4  -6 112503. 1233.09   2
  -1   4  -6 112533. 1800.70   3
   1  -4   6 112539. 1618.95   4
   1  -4   7 8853.78 491.321   4
  -1   4  -7 8725.84 375.003   2
  -1   4  -7 8392.07 537.819   3
   1  -4   8 199522. 2428.21   4
  -1   4  -8 194649. 1873.23   2
  -1   4  -9 7163.39 572.837   3
  -1   4  -9 6995.63 386.789   2
   1  -4   9 6800.31 482.607   4
   1  -4  10 4793.65 426.867   4
  -1   4 -10 5452.45 369.498   2
  -1   4 -10 4959.51 500.436   3
  -1   4 -11 6266.26 579.158   3
   1  -4  11 6358.15 503.250   4
   1  -4  12 27964.5 1236.52   3
   1  -3 -16 217837. 3301.31   2
  -1   3  16 211174. 3344.09   3
   1  -3 -15 90853.4 2000.60   2
  -1   3  15 78759.9 1945.92   3
   1  -3 -14 102.918 165.058   2
  -1   3  14 228.294 206.127   3
   1  -3 -13 8053.52 555.691   2
  -1   3  13 7562.40 552.736   3
   1  -3 -12 253596. 2823.24   2
  -1   3  12 246766. 2939.59   3
  -1   3  11 5931.77 447.559   3
   1  -3 -11 6082.90 429.435   2
   1  -3 -11 6339.41 389.812   1
  -1   3  10 22008.0 789.623   3
   1  -3 -10 23189.1 704.779   1
   1  -3  -9 50424.6 1055.97   2
   1  -3  -9 50944.9 1011.74   1
  -1   3   8 104029. 1513.65   3
   1  -3  -8 102452. 1361.54   1
   1  -3  -7 169685. 1699.68   2
   1  -3  -7 174523. 1698.49   1
   1  -3  -5 115109. 1184.62   2
  -1   3   5 115202. 1259.79   3
   1  -3  -5 114976. 1240.71   1
   1  -3  -4 103803. 479.818   4
  -1   3   4 99389.1 1100.67   3
   1  -3  -4 106538. 1061.85   2
   1  -3  -4 101489. 542.297   4
   1  -3  -4 106926. 1120.57   1
   1  -3  -3 53428.3 426.727   4
   1  -3  -3 54832.1 482.504   4
  -1   3   3 52484.6 756.594   3
   1  -3  -3 53046.0 754.869   1
  -1   3   2 214703. 1472.78   3
  -1   3   2 218303. 1347.35   2
  -1   3  -2 23245.4 586.322   3
   1  -3   2 23895.0 338.898   1
   1  -3   2 24650.7 568.059   4
  -1   3  -2 24342.2 314.974   1
  -1   3  -2 24103.5 411.220   2
  -1   3  -3 206705. 1894.24   3
   1  -3   3 205729. 1745.28   4
  -1   3  -5 73454.3 901.492   2
   1  -3   5 74252.0 1173.99   4
   1  -3   6 154244. 1800.25   4
  -1   3  -6 150132. 1403.32   2
  -1   3  -7 152.476 87.2023   2
  -1   3  -7 131.532 104.274   3
   1  -3   7 233.457 122.427   4
  -1   3  -8 181373. 2516.96   3
   1  -3   8 184777. 2190.54   4
  -1   3  -8 185199. 1801.25   2
  -1   3  -9 131008. 2212.05   3
   1  -3   9 134170. 1922.46   4
  -1   3  -9 135195. 1658.52   2
  -1   3 -10 68417.4 1248.53   2
  -1   3 -10 69783.2 1710.87   3
   1  -3  10 67856.8 1449.17   4
  -1   3 -11 6159.94 414.014   2
   1  -3  11 6277.24 542.177   3
   1  -3  11 6249.47 478.677   4
  -1   3 -12 15753.2 699.058   2
   1  -3  12 16562.0 915.910   3
   1  -3  13 388.181 259.129   3
  -1   2  16 45624.8 1582.09   3
   1  -2 -15 168312. 2748.94   2
  -1   2  15 179452. 2969.80   3
   1  -2 -14 19312.9 893.245   2
  -1   2  14 18950.0 917.314   3
   1  -2 -13 2273.56 326.958   2
  -1   2  13 2007.61 314.712   3
  -1   2  12 5555.79 451.398   3
   1  -2 -12 5115.00 416.828   2
   1  -2 -11 40968.1 945.654   1
  -1   2  11 44718.5 1196.58   3
   1  -2 -11 43114.8 1109.61   2
  -1   2  10 93591.0 1624.40   3
   1  -2 -10 93585.0 1526.84   2
   1  -2  -9 59.0443 94.8998   1
   1  -2  -9 2.70326 91.3209   2
  -1   2   9 265.516 124.851   3
  -1   2   8 9526.01 191.442   4
  -1   2   8 9320.28 162.908   4
   1  -2  -8 10438.4 448.247   2
   1  -2  -8 12532.3 474.047   1
  -1   2   8 11693.2 513.279   3
   1  -2  -7 5733.23 309.527   1
  -1   2   7 5641.01 329.423   3
   1  -2  -7 5234.66 299.500   2
   1  -2  -6 365421. 2275.44   1
  -1   2   6 372020. 2423.04   3
   1  -2  -5 71507.8 925.776   2
   1  -2  -5 70501.2 951.444   1
  -1   2   5 69341.5 953.746   3
  -1   2  -2 52253.2 386.698   1
   1  -2   2 55028.4 779.650   4
   1  -2   2 52900.8 447.042   1
  -1   2  -2 52953.1 798.539   3
  -1   2  -3 128810. 1373.21   3
  -1   2  -3 124741. 996.997   2
   1  -2   3 127301. 1259.81   4
  -1   2  -4 27454.2 705.518   3
  -1   2  -4 28180.0 519.761   2
   1  -2   4 26696.1 628.601   4
  -1   2  -5 261008. 2322.54   3
   1  -2   5 260436. 2131.13   4
  -1   2  -6 4478.79 245.885   2
  -1   2  -6 4825.36 349.429   3
   1  -2   6 4727.41 306.367   4
  -1   2  -7 50089.0 873.219   2
  -1   2  -7 49851.3 1190.68   3
  -1   2  -8 108891. 1405.22   2
   1  -2   8 108943. 1584.35   4
  -1   2  -9 4588.09 315.687   2
   1  -2   9 4145.00 342.130   4
  -1   2  -9 3866.45 381.881   3
  -1   2 -10 26212.5 780.574   2
   1  -2  10 25104.2 842.839   4
   1  -2  10 24915.0 950.584   3
  -1   2 -11 4714.04 363.651   2
   1  -2  11 4789.88 458.609   3
   1  -2  11 5619.50 428.544   4
   1  -2  12 130926. 2454.20   3
  -1   2 -12 123237. 1888.30   2
  -1   2 -13 58819.4 1391.83   2
   1  -2  13 66880.8 1867.97   3
   1  -2  14 187.671 237.993   3
  -1   2 -14 48.2133 176.307   2
   1  -1 -15 5541.75 540.500   2
  -1   1  15 5753.60 562.392   3
   1  -1 -14 66084.9 1643.71   2
  -1   1  14 61919.0 1676.04   3
   1  -1 -13 71727.0 1625.85   2
  -1   1  13 70627.5 1683.13   3
   1  -1 -12 15616.9 721.531   2
  -1   1  12 16443.2 770.286   3
   1  -1 -11 31053.8 948.202   2
  -1   1  11 29212.8 981.353   3
  -1   1  10 108474. 1744.40   3
   1  -1 -10 105736. 1416.08   1
   1  -1  -9 713.730 164.201   2
  -1   1   9 524.403 140.697   3
   1  -1  -9 944.162 162.745   1
   1  -1  -8 86489.7 1289.77   2
  -1   1   8 90964.3 817.207   4
   1  -1  -8 89370.0 1214.19   1
  -1   1   8 89500.5 1384.49   3
   1  -1  -7 441270. 2590.86   1
   1  -1  -6 363667. 2226.06   1
  -1   1   5 99332.6 1118.68   3
   1  -1  -5 94845.0 1075.00   1
   1  -1  -5 97321.6 1066.79   2
  -1   1   5 90754.3 487.390   4
  -1   1   5 90857.4 524.296   4
  -1   1   0 152906. 1013.42   2
  -1   1   0 154218. 920.529   1
   1  -1   0 155134. 891.781   3
   1  -1   0 153283. 1009.20   2
   1  -1   0 157966. 936.860   1
  -1   1   0 159799. 969.059   4
  -1   1  -3 507187. 2489.07   3
  -1   1  -4 205518. 1778.28   3
  -1   1  -4 209079. 1365.47   2
   1  -1   4 207874. 1627.24   4
   1  -1   5 5065.09 278.674   4
  -1   1  -5 4903.54 237.825   2
  -1   1  -6 260289. 1820.97   2
  -1   1  -6 253807. 2385.00   3
   1  -1   6 255377. 2084.54   4
  -1   1  -7 18419.5 679.870   3
   1  -1   7 18994.9 598.674   4
  -1   1  -7 18653.1 527.162   2
  -1   1  -8 284151. 2214.72   2
   1  -1   8 276014. 2395.37   4
  -1   1  -9 520117. 3220.37   2
   1  -1   9 521625. 3973.83   3
   1  -1  10 83813.7 1457.53   4
  -1   1 -10 84732.9 1383.05   2
   1  -1  10 86151.8 1734.28   3
   1  -1  11 156.234 138.316   3
   1  -1  11 178.906 118.059   4
  -1   1 -11 421.698 144.470   2
  -1   1 -12 29450.0 926.513   2
   1  -1  12 33863.5 1232.85   3
  -1   1 -13 202561. 2546.38   2
   1  -1  13 213269. 3203.86   3
  -1   1 -14 19651.0 847.883   2
   1  -1  14 18923.6 1022.00   3
  -1   1 -15 710.509 235.646   2
   1   0 -15 3505.10 459.149   2
  -1   0  15 3640.43 497.231   3
   1   0 -14 1380.79 310.237   2
  -1   0  14 2009.62 354.543   3
  -1   0  13 37507.5 1263.72   3
   1   0 -13 34878.5 1144.99   2
   1   0 -12 85633.7 1686.36   2
  -1   0  12 85136.7 1757.44   3
   1   0 -11 24092.7 844.731   2
  -1   0  11 24966.1 924.034   3
   1   0 -10 50408.5 1136.48   2
  -1   0  10 47894.4 1182.36   3
  -1   0   9 63961.0 1276.73   3
  -1   0   9 62681.7 851.198   4
   1   0  -9 61347.3 1175.68   2
  -1   0   8 10439.1 485.647   3
   1   0  -8 10300.4 412.206   1
   1   0  -8 10175.5 448.065   2
  -1   0   8 10532.5 337.472   4
   1   0  -7 2560.91 199.602   1
  -1   0   7 2473.03 224.569   3
  -1   0   7 2604.48 157.636   4
   1   0  -7 2098.26 203.435   2
   1   0  -6 250311. 1901.33   2
   1   0  -6 254645. 1839.43   1
   1   0  -4 66472.8 847.541   1
  -1   0   4 65415.7 519.666   4
  -1   0   4 64977.3 806.168   3
   1   0  -4 65906.1 508.737   4
   1   0  -4 65781.5 806.004   2
   1   0  -3 179207. 1313.99   1
   1   0  -3 183598. 1245.08   2
   1   0  -1 65862.6 397.601   3
  -1   0   1 65311.6 542.639   4
   1   0  -1 60309.2 516.646   4
  -1   0   1 65265.8 397.854   3
   1   0  -1 63043.7 675.588   1
  -1   0   1 62007.3 640.144   2
  -1   0   0 93582.4 768.251   2
  -1   0   0 90738.7 732.265   1
   1   0   0 91663.8 732.016   1
   1   0   0 94602.7 769.721   2
  -1   0   0 93553.6 714.842   4
   1   0   0 92134.4 710.885   4
  -1   0  -2 30501.5 465.227   3
   1   0   2 30416.8 514.620   4
   1   0   2 30147.9 322.113   1
  -1   0  -2 29209.6 337.707   1
  -1   0  -2 30442.0 449.285   2
  -1   0  -3 100.877 24.8789   1
   1   0   3 84.6483 57.4927   4
  -1   0  -3 110.928 62.7802   3
  -1   0  -3 68.2013 42.0329   2
  -1   0  -4 58641.4 711.656   2
   1   0   4 59751.1 833.212   4
  -1   0  -4 61214.7 907.652   3
  -1   0  -6 4569.39 248.650   2
   1   0   6 4829.28 280.137   4
  -1   0  -6 4681.49 313.057   3
   1   0   7 95981.0 1280.16   4
  -1   0  -7 81646.2 1105.40   2
   1   0   8 16776.4 572.695   4
   1   0   8 17446.0 678.744   3
  -1   0  -9 51886.9 1017.93   2
   1   0   9 54227.8 1255.61   3
   1   0   9 55526.6 1089.50   4
  -1   0 -10 216785. 2210.23   2
   1   0  10 220641. 2700.24   3
   1   0  11 70340.4 1620.31   3
  -1   0 -11 67178.9 1298.81   2
   1   0  11 71526.2 1356.48   4
  -1   0 -12 15660.6 671.016   2
   1   0  12 15722.4 816.268   3
  -1   0 -13 5781.13 445.157   2
   1   0  13 5634.10 527.278   3
  -1   0 -14 8921.67 571.488   2
   1   0  14 10043.3 735.131   3
   1   0  15 77876.2 2096.41   3
  -1   0 -15 71809.1 1671.28   2
  -1  -1  14 18209.9 955.317   3
   1   1 -14 19048.3 916.079   2
  -1  -1  13 33782.3 1229.99   3
   1   1 -13 30885.8 1103.89   2
   1   1 -12 381.919 181.924   2
  -1  -1  12 268.430 150.332   3
   1   1 -11 10407.5 563.799   2
  -1  -1  11 10859.2 622.475   3
   1   1 -10 80778.9 1443.60   2
  -1  -1  10 80911.8 1559.96   3
   1   1  -9 13159.5 552.463   2
   1   1  -9 13759.0 460.842   1
  -1  -1   9 13424.7 453.486   4
   1   1  -8 157169. 1508.41   1
  -1  -1   8 154223. 1889.90   3
  -1  -1   7 28609.2 566.424   4
   1   1  -7 27455.5 682.009   2
  -1  -1   7 28510.6 757.561   3
   1   1  -6 3025.37 215.695   2
   1   1  -6 3217.81 208.144   1
  -1  -1   6 3165.73 236.687   3
  -1  -1   6 3129.99 173.103   4
   1   1  -1 198925. 1069.95   2
  -1  -1   1 200652. 1116.53   2
  -1  -1   0 13196.6 284.671   2
   1   1   0 13219.3 291.601   1
  -1  -1   0 14032.1 297.512   4
   1   1   0 13575.1 280.510   4
  -1  -1  -2 134229. 808.004   1
   1   1   2 128319. 858.149   3
  -1  -1  -2 138123. 940.005   2
  -1  -1  -2 128362. 763.947   1
   1   1   2 139385. 1050.39   4
   1   1   2 135255. 860.446   3
   1   1   3 30936.6 512.821   3
  -1  -1  -3 29231.7 333.234   1
   1   1   3 29709.8 529.419   4
  -1  -1  -3 29762.2 464.460   2
   1   1   4 40580.1 680.349   3
  -1  -1  -4 40060.3 364.322   1
  -1  -1  -4 38843.5 576.533   2
   1   1   4 39421.9 402.555   1
  -1  -1  -5 56648.7 442.186   1
   1   1   5 55637.9 895.125   3
   1   1   5 56176.3 469.001   1
  -1  -1  -5 55405.5 758.743   2
   1   1   6 244248. 1853.09   4
   1   1   6 238847. 984.485   1
   1   1   6 244854. 2063.07   3
  -1  -1  -7 189769. 1658.11   2
   1   1   7 184170. 879.220   1
  -1  -1  -7 182227. 939.661   1
   1   1   7 187797. 1714.45   4
   1   1   7 186519. 1982.63   3
   1   1   8 49018.1 454.511   1
  -1  -1  -8 46713.2 897.949   2
  -1  -1  -8 50313.6 515.591   1
   1   1   8 50172.7 940.251   4
   1   1   8 47075.0 1068.51   3
   1   1   9 25290.5 698.678   4
   1   1   9 24220.4 831.829   3
  -1  -1  -9 23621.4 698.613   2
  -1  -1 -10 32431.2 855.823   2
   1   1  10 34397.7 841.480   4
   1   1  10 35011.8 1051.70   3
   1   1  11 376295. 2904.25   4
   1   1  11 384456. 3681.19   3
  -1  -1 -12 58841.9 1281.37   2
   1   1  12 57765.6 1512.21   3
   1   1  13 110393. 2200.01   3
  -1  -1 -13 107949. 1830.29   2
  -1  -1 -14 9159.15 579.017   2
   1   1  14 8016.57 661.628   3
  -1  -1 -15 3978.74 420.837   2
   1   1  15 4714.37 538.365   3
  -1  -2  14 5773.35 578.150   3
  -1  -2  13 45.9193 190.527   3
   1   2 -13 306.027 210.970   2
  -1  -2  12 25456.4 1029.56   3
   1   2 -12 24680.4 930.799   2
  -1  -2  11 252802. 3016.41   3
   1   2 -11 237831. 2679.31   2
   1   2 -10 21402.9 758.678   2
  -1  -2  10 20754.5 825.297   3
   1   2  -9 11427.2 515.313   2
  -1  -2   9 12350.7 472.970   4
  -1  -2   8 502832. 2809.40   4
   1   2  -8 505674. 2589.08   1
   1   2  -8 488604. 3084.74   2
  -1  -2   8 485902. 3434.14   3
  -1  -2   7 543158. 2704.14   4
  -1  -2   7 521180. 3333.20   3
   1   2  -6 2455.32 197.237   2
  -1  -2   6 2939.78 187.626   4
   1   2  -6 2635.78 191.045   1
   1   2  -5 11986.1 442.922   3
   1   2  -5 11881.0 378.835   2
  -1  -2   5 11893.8 350.840   4
   1   2  -5 12225.3 378.193   1
   1   2  -4 76663.9 1022.98   3
   1   2  -4 77392.1 821.323   4
   1   2  -2 180.646 52.5387   3
   1   2  -2 165.244 51.4039   2
   1   2  -2 160.158 68.3971   1
   1   2  -2 191.266 50.6454   4
   1   2  -1 1909.56 100.897   3
   1   2  -1 2000.32 133.663   1
  -1  -2   1 1870.63 105.886   2
  -1  -2   1 1780.49 108.015   2
  -1  -2   1 1948.21 104.329   3
  -1  -2   0 15330.0 292.518   2
  -1  -2   0 14652.5 219.528   3
   1   2   0 15019.9 315.169   4
   1   2   0 14542.6 220.894   3
   1   2   0 14827.9 282.559   2
   1   2   0 13909.9 319.767   1
  -1  -2  -1 97.2021 44.7660   1
   1   2   1 206.516 58.8890   4
  -1  -2  -1 169.829 51.3882   2
   1   2   1 104.436 34.5841   3
   1   2   1 142.616 52.4699   2
  -1  -2  -2 68507.8 624.424   3
  -1  -2  -2 69938.4 642.326   1
  -1  -2  -2 67934.9 619.799   2
   1   2   3 12351.0 317.332   3
   1   2   3 12346.8 341.947   4
  -1  -2  -3 12483.5 263.348   1
  -1  -2  -3 11762.6 286.465   2
   1   2   5 310966. 1890.36   4
  -1  -2  -6 1244.88 136.301   2
   1   2   6 1258.34 138.824   4
   1   2   6 1259.18 158.867   3
  -1  -2  -6 1133.34 85.8731   1
   1   2   7 30345.8 780.456   3
  -1  -2  -7 29444.5 433.250   1
  -1  -2  -7 29458.9 653.418   2
   1   2   7 29590.0 646.741   4
  -1  -2  -8 381460. 2525.32   2
   1   2   8 371539. 2448.65   4
  -1  -2  -9 13002.2 331.223   1
   1   2   9 11623.6 457.373   4
   1   2   9 12004.1 572.001   3
  -1  -2  -9 11809.0 491.721   2
   1   2  10 61169.8 1070.84   4
   1   2  10 57489.5 1324.21   3
   1   2  11 1372.57 193.961   4
  -1  -2 -11 1073.74 198.021   2
   1   2  11 1463.02 261.197   3
   1   2  12 11961.2 689.612   3
  -1  -2 -12 11714.0 576.254   2
   1   2  13 941.643 244.058   3
  -1  -2 -13 941.990 214.016   2
   1   2  14 46599.1 1482.05   3
  -1  -2 -14 46388.4 1252.48   2
  -1  -2 -15 83836.4 1782.16   2
   1   2  15 87193.3 2145.00   3
  -1  -2 -16-144.091 224.045   2
  -1  -3  13 9242.95 687.715   3
  -1  -3  12 488433. 4582.23   3
  -1  -3  11 338814. 3625.37   3
   1   3 -11 311506. 3132.28   2
   1   3 -10 5880.26 417.038   2
  -1  -3  10 5669.82 456.112   3
  -1  -3   9 4651.18 388.642   3
   1   3  -9 5467.82 379.540   2
  -1  -3   9 4541.31 320.797   4
   1   3  -8 20553.4 648.198   2
  -1  -3   8 22363.6 652.803   4
  -1  -3   8 21181.9 753.797   3
   1   3  -7 110366. 1373.37   2
   1   3  -7 113912. 1686.15   3
  -1  -3   7 113693. 1355.84   4
   1   3  -6 9456.21 457.320   3
   1   3  -6 9527.40 380.861   2
  -1  -3   6 9146.35 361.252   4
  -1  -3   6 10267.3 356.932   1
   1   3  -5 259363. 1782.92   2
  -1  -3   5 253349. 1806.30   4
   1   3  -4 307849. 2179.46   3
   1   3  -4 304528. 1767.23   2
   1   3  -4 307745. 1839.99   4
  -1  -3   3 200733. 1421.63   1
   1   3  -3 189241. 1258.12   2
   1   3  -3 191570. 1393.97   4
   1   3  -3 197081. 1557.30   3
   1   3  -2 1505.31 131.292   3
  -1  -3   2 1435.13 107.283   2
   1   3  -2 1355.32 120.401   4
  -1  -3   2 1245.51 117.974   1
  -1  -3   1 1671.75 129.424   1
   1   3  -1 1874.61 122.933   3
  -1  -3   1 1908.29 97.2563   2
  -1  -3   1 1747.92 105.119   2
   1   3  -1 1877.94 130.454   4
  -1  -3  -2 151591. 1063.43   1
   1   3   2 152673. 1143.97   4
  -1  -3  -2 150340. 888.497   2
   1   3   3 5432.89 219.551   3
  -1  -3  -3 5239.82 185.915   2
  -1  -3  -3 5115.20 194.982   1
   1   3   6 56052.6 967.954   3
  -1  -3  -6 57810.5 830.064   2
   1   3   6 55939.6 836.487   4
  -1  -3  -6 57253.8 648.896   1
   1   3   7 6288.91 353.438   3
  -1  -3  -7 6092.96 302.988   2
   1   3   7 6143.24 294.291   4
  -1  -3  -7 6042.32 224.379   1
  -1  -3  -8 69399.6 786.641   1
  -1  -3  -8 70523.0 1085.04   2
   1   3   8 66416.2 989.330   4
   1   3   8 68207.3 1247.84   3
   1   3   9 169575. 1647.08   4
  -1  -3  -9 170248. 1322.37   1
   1   3   9 173229. 2128.89   3
  -1  -3  -9 168322. 1817.25   2
   1   3  10 7057.99 356.331   4
   1   3  10 6665.72 455.995   3
  -1  -3 -10 7006.56 287.987   1
  -1  -3 -10 6373.15 378.061   2
   1   3  11 55399.9 1361.17   3
  -1  -3 -11 54369.0 1143.64   2
   1   3  11 56953.0 1031.05   4
  -1  -3 -12 113551. 1736.14   2
   1   3  12 118112. 2118.85   3
   1   3  13 5290.55 495.969   3
  -1  -3 -13 4677.55 391.446   2
  -1  -3 -14-74.6477 171.193   2
   1   3  14 376.686 227.829   3
  -1  -3 -15 24644.0 975.469   2
   1   3  15 25478.4 1142.29   3
   1   3  16 26105.0 1233.00   3
  -1  -3 -16 23701.3 1000.57   2
  -1  -4  13 23228.6 1119.23   3
  -1  -4  12 1025.08 284.756   3
  -1  -4  11 85180.0 1894.12   3
  -1  -4  10 271345. 3176.30   3
  -1  -4   9 124717. 1739.34   4
   1   4  -9 119555. 1691.82   2
  -1  -4   9 119764. 2002.08   3
   1   4  -8 2517.25 244.453   2
  -1  -4   8 2877.21 262.160   4
   1   4  -8 2427.71 293.190   3
   1   4  -7 57786.0 1266.42   3
   1   4  -7 59850.5 1037.72   2
  -1  -4   7 59908.3 1072.51   4
  -1  -4   7 60649.2 870.069   1
   1   4  -6 70623.4 1034.65   2
  -1  -4   6 72488.6 950.616   1
   1   4  -5 80927.5 1307.06   3
  -1  -4   5 79123.4 979.072   1
  -1  -4   5 78369.5 1108.87   4
   1   4  -4 489.028 105.818   4
   1   4  -4 799.649 111.143   2
   1   4  -4 935.176 143.365   3
  -1  -4   4 763.028 108.297   1
  -1  -4   2 302696. 1791.28   1
   1   4  -2 311242. 1968.48   3
   1   4  -1 24089.8 510.842   4
  -1  -4   1 24161.4 300.858   2
   1   4  -1 24975.1 518.385   3
  -1  -4   1 22981.8 487.440   1
  -1  -4  -3 49903.9 538.063   2
  -1  -4  -3 48627.3 654.240   1
   1   4   3 50401.0 714.396   3
   1   4   3 50542.3 720.091   4
   1   4   4 354084. 2041.65   3
  -1  -4  -6 14249.5 361.272   1
   1   4   6 13392.2 479.484   3
   1   4   6 14636.6 426.924   4
  -1  -4  -6 14110.0 406.339   2
  -1  -4  -7 73855.6 999.042   2
   1   4   7 71136.1 976.538   4
  -1  -4  -7 72507.3 848.566   1
   1   4   8 177714. 1992.36   3
  -1  -4  -8 176064. 1697.68   2
  -1  -4  -8 178788. 1371.09   1
   1   4   8 178297. 1584.77   4
  -1  -4  -9 119743. 1509.79   2
  -1  -4  -9 120749. 1191.47   1
   1   4  10 534.100 161.021   3
   1   4  10 262.963 98.2437   4
  -1  -4 -10 334.605 84.7661   1
  -1  -4 -10 250.253 103.388   2
   1   4  11 6178.99 465.042   3
  -1  -4 -11 6748.48 321.965   1
   1   4  11 6477.07 344.107   4
  -1  -4 -11 6278.36 402.483   2
  -1  -4 -12 286080. 2745.90   2
   1   4  12 267879. 3160.76   3
  -1  -4 -13 6559.65 458.734   2
   1   4  13 6949.70 558.746   3
   1   4  14 23623.3 1036.10   3
  -1  -4 -14 21453.1 844.586   2
   1   4  15 1419.89 309.310   3
  -1  -4 -15 1810.30 311.313   2
  -1  -4 -16 25925.9 1041.96   2
   1   4  16 25349.4 1192.76   3
  -1  -5  12 5185.66 558.177   3
  -1  -5  11 130.221 211.478   3
  -1  -5  10 30150.6 1102.76   3
  -1  -5   9 45399.9 1137.78   4
   1   5  -8 4044.35 385.567   3
  -1  -5   8 3379.60 314.959   4
   1   5  -7 495536. 2958.41   2
  -1  -5   7 484578. 3300.31   4
  -1  -5   6 327678. 2030.50   1
   1   5  -6 329581. 2215.43   2
   1   5  -5 1151.71 189.189   3
  -1  -5   5 1196.50 143.621   1
  -1  -5   5 1448.83 180.121   4
   1   5  -4 150956. 1612.78   4
   1   5  -4 150089. 1232.55   2
   1   5  -4 150265. 1779.74   3
  -1  -5   4 150298. 1347.29   1
  -1  -5   2 86381.5 741.141   2
   1   5  -2 85247.2 1161.80   3
  -1  -5   2 81398.4 972.944   1
   1   5  -2 81484.7 1081.73   4
  -1  -5   1 19113.1 244.181   2
   1   5  -1 18332.2 497.798   3
  -1  -5   1 17687.1 452.533   1
   1   5  -1 17528.5 485.079   4
   1   5   0 44695.3 743.374   3
  -1  -5   0 42970.2 334.647   2
  -1  -5   0 43091.4 691.837   1
  -1  -5   0 43406.5 373.567   2
   1   5   0 42241.6 726.074   4
   1   5   1 18192.1 459.964   3
   1   5   1 18732.1 479.646   4
  -1  -5  -1 19256.8 236.251   2
  -1  -5  -1 18321.1 447.952   1
  -1  -5  -2 5004.68 142.014   2
   1   5   2 4792.45 236.348   3
  -1  -5  -2 5416.69 246.862   1
   1   5   2 5103.02 176.553   2
   1   5   2 5315.19 251.385   4
  -1  -5  -4 177172. 1125.21   2
   1   5   4 176517. 1550.49   3
   1   5   4 174457. 1409.86   4
  -1  -5  -4 176585. 1352.12   1
  -1  -5  -6 57849.0 810.605   1
  -1  -5  -6 58183.1 801.123   2
   1   5   6 59094.2 1022.12   3
   1   5   8 31.0226 65.8853   4
   1   5   8-118.562 115.544   3
  -1  -5  -8 48.6594 71.4007   2
  -1  -5  -8 97.0046 63.6688   1
   1   5  10 187761. 1697.88   4
   1   5  10 173669. 2282.45   3
  -1  -5 -10 176547. 1918.88   2
  -1  -5 -10 186588. 1651.88   1
   1   5  11 6521.44 473.294   3
  -1  -5 -11 6519.74 334.180   1
   1   5  11 6463.65 334.142   4
  -1  -5 -11 6473.80 397.699   2
  -1  -5 -12 54797.2 1205.62   2
   1   5  12 59973.1 1495.22   3
  -1  -5 -13 366749. 3267.74   2
   1   5  13 400829. 4059.62   3
   1   5  14 417617. 4382.91   3
  -1  -5 -14 446723. 3789.04   2
  -1  -5 -15 8482.35 582.757   2
   1   5  15 8306.75 660.126   3
   1   5  16 1197.41 316.072   3
  -1  -5 -16 1346.82 277.283   2
  -1  -6  11 2059.14 363.401   3
  -1  -6  10 136502. 2477.79   3
   1   6  -9 32351.0 1191.73   3
  -1  -6   8 1780.53 267.818   4
   1   6  -8 1378.00 287.752   3
   1   6  -7 39849.9 1176.22   3
  -1  -6   7 39619.9 1022.19   4
   1   6  -6 192439. 2436.26   3
  -1  -6   6 183260. 2075.84   4
   1   6  -5 36581.4 988.993   3
  -1  -6   5 37403.8 900.863   4
  -1  -6   5 37291.1 702.678   1
   1   6  -4 6639.19 406.090   3
  -1  -6   4 6966.37 265.778   2
  -1  -6   4 6927.62 313.673   1
   1   6  -3 45010.0 982.677   3
  -1  -6   3 46287.2 782.402   1
   1   6  -2 23092.0 645.407   4
   1   6  -2 21381.4 640.786   3
  -1  -6   2 22935.0 552.507   1
  -1  -6   1 148149. 1374.24   1
   1   6  -1 143835. 1507.39   4
   1   6   0 187236. 1707.85   3
   1   6   0 189304. 1671.68   4
  -1  -6   0 186855. 1536.69   1
   1   6   1 29161.3 655.970   3
  -1  -6  -1 29586.8 611.516   1
   1   6   1 31174.7 667.312   4
   1   6   2 8049.04 343.640   3
  -1  -6  -2 7229.29 301.411   1
   1   6   2 7263.89 200.987   2
   1   6   2 7127.09 315.180   4
  -1  -6  -2 7389.84 155.729   2
  -1  -6  -4 70926.3 695.154   2
   1   6   4 71738.3 1051.12   3
  -1  -6  -4 71985.6 947.721   1
   1   6   4 69258.3 938.223   4
   1   6   5 230967. 1708.66   4
  -1  -6  -5 232575. 1432.95   2
   1   6   6 220404. 2058.23   3
   1   6   6 223037. 1705.00   4
  -1  -6  -6 220483. 1555.86   2
   1   6   7 305305. 2591.02   3
   1   6   7 301856. 2028.12   4
  -1  -6  -7 307094. 2032.43   2
   1   6   8 58073.1 890.666   4
  -1  -6  -8 58008.1 947.359   2
  -1  -6  -8 60614.3 932.411   1
  -1  -6 -10 629690. 3297.58   1
  -1  -6 -11 107241. 1379.56   1
   1   6  11 112243. 1315.95   4
  -1  -6 -11 109550. 1582.69   2
  -1  -6 -12 1339.88 217.957   2
  -1  -6 -12 1336.87 192.930   1
   1   6  12 1334.44 256.796   3
  -1  -6 -13 163820. 2179.73   2
   1   6  13 161288. 2584.48   3
  -1  -6 -14 135315. 2075.31   2
   1   6  14 126437. 2411.69   3
  -1  -6 -15 12525.2 685.037   2
   1   6  15 7814.16 654.055   3
  -1  -6 -16 733.354 252.750   2
   1   6  16 747.837 311.686   3
  -1  -7  10 6118.85 568.905   3
   1   7  -9 50298.1 1531.29   3
   1   7  -8 43148.9 1369.06   3
  -1  -7   8 42933.0 1221.86   4
  -1  -7   7 4964.69 404.885   4
   1   7  -7 5509.34 478.434   3
  -1  -7   6 44.7460 106.748   4
   1   7  -6 5.78901 123.530   3
  -1  -7   5 68088.1 1319.49   4
  -1  -7   5 66712.3 980.044   1
   1   7  -4 123712. 1841.55   3
  -1  -7   4 122119. 1689.88   4
  -1  -7   4 121844. 1328.04   1
  -1  -7   3 5040.17 275.135   1
   1   7  -3 4573.57 324.029   4
  -1  -7   2 63577.1 962.921   1
   1   7  -2 62181.8 1124.94   4
   1   7  -2 64907.1 1200.13   3
   1   7  -1 1936.93 212.844   3
  -1  -7   1 1355.25 153.303   1
   1   7  -1 1609.96 181.259   4
   1   7   0 13429.9 511.772   3
   1   7   0 12908.8 481.744   4
  -1  -7   0 12211.6 420.256   1
  -1  -7  -1 34045.9 690.088   1
   1   7   1 33335.8 755.082   4
   1   7   1 34828.9 798.510   3
   1   7   3 363120. 2517.14   3
   1   7   3 360914. 2338.15   4
  -1  -7  -4 83372.8 744.521   2
   1   7   4 81686.3 1085.92   4
  -1  -7  -5 32446.0 531.157   2
   1   7   5 31088.8 772.843   3
   1   7   5 31054.9 668.677   4
  -1  -7  -5 31363.0 682.705   1
   1   7   6 497016. 3258.65   3
  -1  -7  -6 455571. 2626.34   1
  -1  -7  -7 378894. 2441.89   1
  -1  -7  -7 385772. 2223.84   2
   1   7   8 88607.7 1133.10   4
   1   7   8 89509.8 1505.24   3
  -1  -7  -8 89032.3 1214.33   1
  -1  -7  -8 87615.7 1149.73   2
   1   7   9 44002.2 803.328   4
  -1  -7  -9 44412.5 884.259   1
   1   7   9 46893.2 1160.13   3
  -1  -7  -9 45739.0 895.103   2
  -1  -7 -10 8517.90 406.150   1
   1   7  10 8610.90 535.302   3
   1   7  10 8689.85 368.849   4
  -1  -7 -10 8227.04 413.919   2
   1   7  11 49445.1 1306.39   3
  -1  -7 -11 49289.0 1051.50   2
  -1  -7 -11 48802.9 991.002   1
   1   7  11 50561.5 884.787   4
   1   7  12 123795. 2162.27   3
  -1  -7 -12 120716. 1606.71   1
  -1  -7 -12 127597. 1801.04   2
  -1  -7 -13 67988.7 1276.77   1
   1   7  13 67340.6 1675.57   3
  -1  -7 -13 68303.5 1399.23   2
   1   7  14 38059.5 1326.56   3
  -1  -7 -14 40493.0 1144.86   2
  -1  -7 -15 61989.8 1489.46   2
   1   7  15 59892.1 1733.71   3
  -1  -7 -16 15857.5 807.259   2
   1   7  16 15642.4 940.704   3
  -1  -8   8 54932.0 1491.26   4
   1   8  -8 53444.9 1584.31   3
   1   8  -7 5580.37 515.855   3
  -1  -8   7 6756.77 513.491   4
   1   8  -6 27699.1 1043.70   3
  -1  -8   6 29156.4 962.219   4
  -1  -8   5 34587.2 1003.28   4
   1   8  -5 34386.5 1093.01   3
   1   8  -4 33459.0 1026.03   3
  -1  -8   4 31304.3 935.405   4
  -1  -8   4 31814.4 708.287   1
   1   8  -3 69578.9 1402.37   3
  -1  -8   3 70948.2 1063.36   1
   1   8  -3 71935.9 1363.22   4
  -1  -8   2 122.809 97.1486   1
   1   8  -2 402.363 137.385   3
   1   8  -2 182.425 127.050   4
  -1  -8   1 720.232 128.469   1
   1   8  -1 878.699 170.121   4
   1   8  -1 669.382 149.498   3
   1   8   0 1395.14 191.542   3
   1   8   0 1307.09 186.429   4
  -1  -8   0 1393.46 163.437   1
   1   8   1 5227.45 329.339   4
   1   8   1 6261.20 373.746   3
  -1  -8  -1 5363.17 299.233   1
   1   8   2 11480.0 490.795   3
  -1  -8  -2 10011.2 407.202   1
   1   8   2 11492.2 468.265   4
   1   8   3 292075. 2426.72   3
  -1  -8  -3 275964. 2112.41   1
   1   8   3 268130. 2163.10   4
  -1  -8  -5 15224.8 518.985   1
  -1  -8  -5 15512.6 356.437   2
   1   8   5 14993.1 494.333   4
   1   8   5 13806.2 553.675   3
  -1  -8  -6 25912.6 517.853   2
   1   8   6 24536.5 753.411   3
  -1  -8  -6 23989.8 653.776   1
   1   8   6 25825.4 643.000   4
  -1  -8  -7 39594.5 702.770   2
   1   8   7 37740.0 768.115   4
   1   8   7 36573.5 966.989   3
  -1  -8  -7 38544.5 828.489   1
  -1  -8  -8 234311. 1842.77   2
   1   8   8 235165. 2545.81   3
   1   8   8 238021. 1908.52   4
  -1  -8  -9 10002.5 414.911   2
   1   8   9 10547.4 574.727   3
  -1  -8  -9 9692.44 438.423   1
   1   8   9 10583.4 403.592   4
  -1  -8 -10 153035. 1724.12   2
   1   8  10 157707. 1550.09   4
   1   8  10 156610. 2255.59   3
  -1  -8 -10 156131. 1782.85   1
  -1  -8 -11 37845.8 942.088   1
   1   8  11 37728.0 1173.46   3
   1   8  11 35760.9 743.530   4
  -1  -8 -12 116256. 1669.72   1
  -1  -8 -12 119078. 1722.12   2
   1   8  12 116534. 2125.92   3
   1   8  13 5399.33 494.186   3
  -1  -8 -13 4829.78 366.324   1
  -1  -8 -13 4786.83 380.453   2
   1   8  14 11840.4 754.240   3
  -1  -8 -14 13915.5 674.870   2
  -1  -8 -15 87509.5 1745.52   2
   1   8  15 86754.7 2072.14   3
   1   8  16 14393.9 912.854   3
  -1  -8 -16 14031.2 758.773   2
  -1  -9   8 2659.35 372.696   4
   1   9  -7 11448.7 740.482   3
  -1  -9   7 12633.5 728.772   4
  -1  -9   6 153.623 172.872   4
   1   9  -6-8.34161 170.109   3
   1   9  -5 2749.31 353.497   3
  -1  -9   5 3000.68 339.502   4
  -1  -9   4 7952.25 509.091   4
   1   9  -4 7965.44 549.852   3
   1   9  -3 76772.5 1579.48   3
  -1  -9   3 74104.0 1458.66   4
  -1  -9   3 76107.3 1151.17   1
   1   9  -2 10259.2 561.734   3
  -1  -9   2 9661.96 421.400   1
   1   9  -2 10156.3 532.274   4
  -1  -9   1 628.775 134.535   1
   1   9  -1 407.958 127.632   4
   1   9  -1 302.913 128.876   3
   1   9   0 29257.0 876.389   3
  -1  -9   0 30766.4 739.811   1
   1   9   0 31866.5 888.013   4
   1   9   1 237266. 2313.09   4
   1   9   1 236916. 2443.51   3
  -1  -9  -1 230413. 2027.73   1
  -1  -9  -2 367.836 103.834   1
   1   9   2 444.331 136.222   3
   1   9   2 495.749 131.868   4
   1   9   3 120685. 1546.01   4
  -1  -9  -3 118814. 1476.43   1
  -1  -9  -4 7268.11 380.962   1
  -1  -9  -4 7575.39 204.765   2
   1   9   4 7187.71 431.603   3
   1   9   4 7003.59 374.530   4
   1   9   5 9504.92 497.757   3
  -1  -9  -5 10599.6 287.637   2
   1   9   5 9827.26 433.372   4
  -1  -9  -5 11145.4 470.041   1
   1   9   6 59894.0 1256.05   3
  -1  -9  -6 58286.4 751.458   2
   1   9   6 54391.3 984.715   4
  -1  -9  -6 55877.9 1042.78   1
   1   9   7 34227.6 772.598   4
   1   9   7 32547.9 940.648   3
  -1  -9  -7 32488.8 807.514   1
  -1  -9  -7 33618.3 635.533   2
  -1  -9  -8 20349.6 540.534   2
   1   9   8 19413.8 575.806   4
   1   9   8 18721.4 755.628   3
   1   9   9 304.295 117.494   4
  -1  -9  -9 151.031 111.683   1
   1   9   9 89.6797 114.774   3
  -1  -9  -9 184.171 94.9201   2
  -1  -9 -10 90700.5 1315.39   2
   1   9  10 89507.0 1213.99   4
  -1  -9 -10 90693.1 1444.79   1
   1   9  11 51300.2 1390.19   3
  -1  -9 -11 50637.2 1118.33   1
  -1  -9 -11 50396.5 1049.61   2
   1   9  11 50562.9 912.409   4
  -1  -9 -12 6515.04 408.263   2
  -1  -9 -12 7037.09 438.972   1
   1   9  12 7540.70 568.734   3
   1   9  13 140187. 2453.88   3
  -1  -9 -13 143958. 2007.96   2
  -1  -9 -13 142940. 1997.19   1
  -1  -9 -14 5987.62 442.390   2
  -1  -9 -14 5022.61 402.221   1
   1   9  14 5715.29 542.003   3
   1   9  15 5589.64 575.054   3
  -1  -9 -15 4901.82 437.645   2
  -1  -9 -16 39820.3 1248.55   2
   1   9  16 42011.0 1545.51   3
  -1 -10   7 17513.2 902.084   4
   1  10  -6 8900.09 675.720   3
  -1 -10   6 8056.46 599.418   4
   1  10  -5 41324.5 1340.39   3
  -1 -10   5 40562.9 1240.82   4
   1  10  -4 20000.6 909.712   3
  -1 -10   4 19517.7 843.002   4
  -1 -10   3 252511. 2928.65   4
  -1 -10   3 247274. 2180.59   1
   1  10  -2 12116.5 654.738   3
   1  10  -2 11792.8 621.262   4
  -1 -10   2 12041.0 488.931   1
   1  10  -1 50295.1 1281.42   3
  -1 -10   1 49073.7 971.580   1
   1  10  -1 48228.6 1177.48   4
   1  10   0 29649.0 949.259   3
  -1 -10   0 28864.7 753.823   1
   1  10   0 29677.7 913.379   4
   1  10   1 91097.5 1545.68   4
  -1 -10  -1 88843.4 1332.66   1
   1  10   2 181635. 2263.60   3
  -1 -10  -2 178938. 1900.18   1
   1  10   2 177542. 2082.26   4
   1  10   3 12851.3 600.989   3
  -1 -10  -3 14848.6 562.914   1
   1  10   3 14150.5 577.079   4
   1  10   4 133105. 1697.17   4
  -1 -10  -4 132320. 1669.37   1
   1  10   6 87071.1 1314.45   4
  -1 -10  -6 83933.7 897.914   2
  -1 -10  -6 83680.0 1346.68   1
  -1 -10  -7 5118.29 349.408   1
   1  10   7 4503.40 382.761   3
  -1 -10  -7 5592.88 263.688   2
   1  10   8 31611.5 773.736   4
  -1 -10  -8 31717.7 668.998   2
   1  10   8 30598.3 988.734   3
  -1 -10  -8 32194.5 882.672   1
  -1 -10  -9 42795.5 1022.49   1
  -1 -10  -9 45805.8 875.631   2
   1  10   9 44792.2 1232.32   3
   1  10   9 45741.4 922.027   4
  -1 -10 -10 17848.1 683.102   1
  -1 -10 -10 18778.4 607.566   2
   1  10  10 17913.5 818.658   3
   1  10  10 17818.7 568.959   4
   1  10  11 95.4557 149.430   3
  -1 -10 -11 68.8369 123.260   2
   1  10  11 125.800 97.5212   4
  -1 -10 -11 314.603 153.251   1
  -1 -10 -12 249843. 2704.42   1
  -1 -10 -12 254335. 2500.06   2
   1  10  12 257463. 3311.38   3
  -1 -10 -13 130889. 1896.18   2
  -1 -10 -13 133587. 2024.52   1
   1  10  13 132138. 2440.58   3
  -1 -10 -14 146.130 148.417   1
   1  10  14 155.183 192.976   3
  -1 -10 -14 160.976 142.244   2
  -1 -10 -15 108.495 153.586   2
   1  10  15 166.456 202.149   3
  -1 -10 -16 768.171 230.670   2
   1  10  16 1587.17 377.021   3
  -1 -11   6 10250.2 728.865   4
   1  11  -5 961.255 301.898   3
  -1 -11   5 534.006 234.522   4
   1  11  -4 2065.24 352.720   3
  -1 -11   4 1657.65 298.011   4
   1  11  -3 13402.0 768.691   3
  -1 -11   3 14107.4 753.251   4
  -1 -11   2 220044. 2803.54   4
  -1 -11   2 221842. 2201.92   1
   1  11  -1 261036. 3062.65   3
   1  11  -1 253144. 2913.54   4
   1  11   0 123387. 1944.03   4
  -1 -11   0 119359. 1625.70   1
   1  11   0 124197. 2059.37   3
  -1 -11  -1 60133.8 1165.43   1
   1  11   1 57960.8 1326.93   4
  -1 -11  -2 64908.5 1213.71   1
   1  11   2 69591.5 1519.83   3
   1  11   2 67429.6 1375.45   4
   1  11   3 231.375 166.478   3
  -1 -11  -3 75.4643 116.581   1
   1  11   3 357.319 137.493   4
  -1 -11  -4 12831.4 555.592   1
   1  11   4 13218.7 658.677   3
   1  11   4 12649.6 571.922   4
   1  11   5 285025. 2587.22   4
  -1 -11  -5 281780. 2567.39   1
   1  11   6 419856. 3685.81   3
  -1 -11  -6 422858. 3206.34   1
   1  11   6 415504. 3044.76   4
   1  11   7 568.789 180.170   3
  -1 -11  -7 176.980 110.454   1
   1  11   7 581.811 136.574   4
   1  11   8 1171.56 250.715   3
  -1 -11  -8 1374.65 160.844   2
  -1 -11  -8 1294.31 217.702   1
   1  11   8 1297.21 195.054   4
  -1 -11  -9 5151.03 305.577   2
   1  11   9 5087.41 460.845   3
   1  11   9 4590.25 319.487   4
  -1 -11  -9 4080.80 345.827   1
  -1 -11 -10 2156.40 274.803   1
  -1 -11 -10 3946.28 291.945   2
   1  11  10 3409.84 275.073   4
   1  11  10 2692.95 352.155   3
  -1 -11 -11 15861.8 595.948   2
   1  11  11 15696.0 556.166   4
  -1 -11 -11 14650.9 672.231   1
  -1 -11 -12 23.8061 134.330   1
   1  11  12-0.62895 167.545   3
   1  11  13 2426.48 379.005   3
  -1 -11 -13 2153.67 298.783   1
  -1 -11 -13 1550.25 230.160   2
   1  11  14 195284. 3195.80   3
  -1 -11 -14 197857. 2482.79   2
  -1 -11 -14 197153. 2640.26   1
  -1 -11 -15 40391.5 1238.76   1
   1  11  15 42900.0 1550.80   3
  -1 -11 -15 43905.9 1240.90   2
   1  11  16 13668.0 914.828   3
  -1 -11 -16 13798.0 747.180   2
  -1 -12   5 6837.29 618.542   4
  -1 -12   4 64489.0 1708.42   4
   1  12  -3 5662.60 548.208   3
  -1 -12   3 4045.62 453.671   4
  -1 -12   2 11820.3 709.832   4
   1  12  -2 10881.9 697.596   3
   1  12  -1 92397.2 1955.64   3
  -1 -12   1 98907.3 1948.80   4
  -1 -12   0 168924. 2054.13   1
   1  12   0 176797. 2494.16   4
  -1 -12  -1 3768.45 333.436   1
   1  12   1 3395.81 382.453   3
   1  12   1 3253.79 351.689   4
  -1 -12  -2 87065.6 1481.62   1
   1  12   2 87316.8 1795.92   3
   1  12   2 90043.8 1707.84   4
   1  12   3 12548.9 683.900   3
   1  12   3 12026.6 606.959   4
  -1 -12  -3 11834.6 561.195   1
  -1 -12  -4 8777.85 483.236   1
   1  12   4 8540.80 561.379   3
   1  12   4 9079.43 515.204   4
  -1 -12  -5 108435. 1698.14   1
   1  12   5 106927. 1692.46   4
  -1 -12  -6 45189.7 1108.12   1
   1  12   6 41642.5 1230.48   3
  -1 -12  -7 7298.81 473.022   1
   1  12   7 6596.71 509.315   3
   1  12   7 7360.70 433.068   4
  -1 -12  -8 20291.4 773.529   1
   1  12   8 23380.1 971.075   3
   1  12   8 21960.3 722.534   4
  -1 -12  -9 6446.93 449.483   1
   1  12   9 6924.22 558.681   3
   1  12  10 13222.0 770.000   3
   1  12  10 13269.9 553.519   4
  -1 -12 -10 12607.8 641.803   1
   1  12  11 93352.8 2035.57   3
  -1 -12 -11 90655.6 1419.70   2
  -1 -12 -11 91136.0 1735.57   1
   1  12  12 42958.4 1432.25   3
  -1 -12 -12 44849.9 1263.69   1
  -1 -12 -12 45730.4 1077.92   2
  -1 -12 -13 39960.5 1067.81   2
   1  12  13 40048.0 1420.05   3
  -1 -12 -13 40737.6 1223.97   1
  -1 -12 -14 9046.31 546.029   2
  -1 -12 -14 9044.73 616.621   1
   1  12  14 9592.79 745.828   3
   1  12  15 45033.6 1626.80   3
  -1 -12 -15 44826.9 1264.36   2
  -1 -12 -15 42867.2 1326.23   1
  -1 -12 -16 28237.6 1066.86   2
  -1 -13   3 1933.83 359.276   4
  -1 -13   2 47034.0 1473.95   4
   1  13  -2 43895.8 1470.21   3
  -1 -13   1 10843.5 717.153   4
   1  13  -1 10614.9 724.207   3
  -1 -13   0 53672.5 1220.16   1
   1  13   0 56104.6 1588.31   3
  -1 -13  -1 17456.9 707.275   1
   1  13   1 16110.8 780.949   4
   1  13   2 127555. 2318.41   3
  -1 -13  -2 129958. 1902.72   1
   1  13   2 124705. 2106.68   4
  -1 -13  -3 91403.5 1607.59   1
   1  13   3 98238.1 2029.44   3
   1  13   3 95675.6 1792.39   4
  -1 -13  -4 22807.3 821.786   1
   1  13   4 23037.8 978.397   3
   1  13   5 7111.45 549.623   3
  -1 -13  -5 7094.84 469.727   1
   1  13   5 7499.32 495.112   4
  -1 -13  -6 139221. 2053.99   1
   1  13   6 141284. 2399.61   3
   1  13   6 137492. 1988.04   4
   1  13   7 262908. 3305.30   3
  -1 -13  -7 270807. 2899.20   1
   1  13   7 269846. 2732.51   4
   1  13   8 299921. 2840.52   4
   1  13   8 294975. 3536.02   3
   1  13   9 52590.4 1537.05   3
  -1 -13  -9 51973.4 1307.43   1
   1  13   9 55497.6 1194.19   4
   1  13  10 468.467 227.090   3
  -1 -13 -10 265.466 176.564   1
   1  13  10 191.923 132.702   4
   1  13  11 8577.43 659.634   3
  -1 -13 -11 8608.68 574.187   1
   1  13  11 9577.83 492.060   4
  -1 -13 -12 62224.4 1543.80   1
   1  13  12 64306.8 1804.24   3
   1  13  13 652.042 257.211   3
  -1 -13 -13 672.402 234.163   1
   1  13  14 133972. 2732.03   3
  -1 -13 -14 134604. 2362.69   1
  -1 -13 -14 133801. 2076.60   2
   1  13  15 15545.6 992.163   3
  -1 -13 -15 14657.6 753.630   2
  -1 -13 -15 14699.7 818.396   1
  -1 -13 -16 17445.4 864.088   2
  -1 -13 -16 19164.3 975.105   1
  -1 -14   1 68441.0 1825.10   4
   1  14   0 47903.8 1536.92   3
  -1 -14   0 46728.6 1206.86   1
  -1 -14   0 51533.8 1561.18   4
  -1 -14  -1 11303.4 603.281   1
   1  14   1 12872.0 799.264   3
  -1 -14  -2 17204.8 744.310   1
   1  14   2 17931.3 917.602   3
   1  14   2 18493.6 874.526   4
   1  14   3 778.186 252.553   3
   1  14   3 634.163 207.314   4
  -1 -14  -3 1029.51 231.396   1
   1  14   4 95288.7 2081.36   3
   1  14   4 93051.2 1835.72   4
  -1 -14  -4 91595.9 1725.47   1
   1  14   5 86261.2 1959.40   3
   1  14   5 85666.1 1724.26   4
  -1 -14  -5 88200.8 1702.47   1
   1  14   6 4158.74 455.403   3
   1  14   6 4782.68 412.136   4
  -1 -14  -6 4353.74 412.055   1
   1  14   7 4371.14 478.519   3
  -1 -14  -7 4471.85 414.085   1
   1  14   7 4213.15 381.244   4
   1  14   8 69637.4 1817.90   3
   1  14   8 67847.6 1422.39   4
  -1 -14  -8 65916.7 1506.06   1
   1  14   9 72609.0 1862.14   3
  -1 -14  -9 69080.3 1580.12   1
   1  14   9 69696.0 1424.66   4
   1  14  10 729.062 186.146   4
   1  14  10 602.446 234.749   3
  -1 -14 -10 546.263 216.611   1
   1  14  11 3331.40 457.007   3
  -1 -14 -11 3653.11 404.220   1
   1  14  11 3463.90 332.453   4
  -1 -14 -12 26779.5 1062.80   1
   1  14  12 24742.5 1177.47   3
   1  14  13-25.8136 200.975   3
  -1 -14 -13-110.750 202.612   1
  -1 -14 -14 22843.0 1025.64   1
   1  14  14 21846.4 1158.14   3
  -1 -14 -15 101979. 2193.49   1
  -1 -15  -1 155733. 2340.18   1
   1  15   2 9999.20 733.366   3
  -1 -15  -2 11157.2 636.402   1
   1  15   3 549.875 253.426   3
  -1 -15  -3 963.721 255.717   1
   1  15   3 505.484 207.383   4
   1  15   4 65059.2 1801.25   3
  -1 -15  -4 65836.5 1537.77   1
   1  15   4 68352.6 1648.02   4
   1  15   5 1012.29 288.950   3
  -1 -15  -5 1007.09 272.420   1
   1  15   5 322.253 161.829   4
   1  15   6 1901.64 291.722   4
   1  15   6 1858.69 341.866   3
  -1 -15  -6 1690.48 284.498   1
   1  15   7 44037.3 1497.85   3
  -1 -15  -7 43225.9 1265.73   1
   1  15   7 43238.3 1242.23   4
  -1 -15  -8 5070.46 475.414   1
   1  15   8 5613.29 572.795   3
   1  15   8 5092.23 434.338   4
   1  15   9 12362.7 825.438   3
   1  15   9 10455.3 595.464   4
  -1 -15  -9 11102.7 681.189   1
   1  15  10 17449.8 984.374   3
  -1 -15 -10 16493.0 823.964   1
   1  15  10 16612.8 726.803   4
   1  15  11 837.198 302.523   3
  -1 -15 -11 1463.54 299.609   1
  -1 -15 -12 169805. 2799.70   1
   1  15  12 168748. 3149.52   3
   1  15  13 34747.9 1468.02   3
  -1 -15 -13 35758.9 1299.01   1
  -1 -16  -2 176.975 202.342   1
  -1 -16  -3 11478.0 690.184   1
   1  16   3 11967.3 835.742   3
  -1 -16  -4 31096.3 1118.71   1
   1  16   4 35227.7 1409.48   3
   1  16   5 120.871 250.327   3
  -1 -16  -5 239.173 193.873   1
   1  16   5 474.154 224.799   4
   1  16   6 4695.79 462.013   4
   1  16   6 5273.22 576.683   3
  -1 -16  -6 5212.57 480.160   1
  -1 -16  -7 1804.24 324.742   1
   1  16   7 880.844 279.843   3
   1  16   7 1504.77 299.206   4
  -1 -16  -8 14003.5 781.596   1
   1  16   8 13821.2 908.216   3
   1  16   8 13320.6 727.491   4
  -1 -16  -9 22570.5 998.297   1
   1  16   9 23019.1 1173.16   3
   1  16   9 21103.0 893.555   4
   1  16  10 1232.76 344.682   3
   1  16  10 855.325 230.802   4
  -1 -16 -10 1082.70 305.729   1
   1  16  11 25301.9 1253.93   3
   1  16  12 56701.9 1875.37   3
   1  17   6 5538.86 611.100   3
   1  17   7 3839.99 545.486   3
   1  17   8 6598.67 664.525   3
   1  17   9 49992.5 1774.10   3
   1  17   9 48628.9 1393.03   4
   1  17  10 111532. 2101.21   4
   2 -16  -7 5614.00 584.702   1
   2 -16  -6 2767.80 452.691   1
   2 -16  -6 3622.45 484.706   4
   2 -16  -5 2332.55 419.405   1
   2 -16  -5 2270.10 432.688   4
   2 -16  -4 647.315 298.718   4
   2 -16  -4 1045.68 300.199   1
  -2  15  11 39980.6 1604.09   3
   2 -15 -11 39044.1 1508.14   1
   2 -15 -10 8718.17 732.120   1
  -2  15  10 10413.7 828.852   3
   2 -15  -9 33317.6 1337.33   1
  -2  15   9 36449.6 1494.80   3
   2 -15  -8 1782.80 369.486   1
  -2  15   8 1587.96 384.539   3
   2 -15  -7 48312.4 1550.49   1
  -2  15   7 50386.1 1725.19   3
   2 -15  -7 47342.0 1404.04   4
   2 -15  -6 42867.8 1423.42   1
   2 -15  -6 39003.9 1332.81   4
  -2  15   6 42825.0 1597.63   3
   2 -15  -5 1911.31 326.555   1
   2 -15  -5 1813.19 335.504   4
  -2  15   5 1817.00 369.558   3
  -2  15   4 17374.9 1034.63   3
   2 -15  -4 17924.3 899.351   1
   2 -15  -4 17084.7 941.597   4
  -2  15   3 103802. 2540.20   3
   2 -15  -3 103687. 2111.72   1
   2 -15  -3 110189. 2399.89   4
   2 -15  -2 94071.6 2282.64   4
  -2  15   2 97494.8 2475.21   3
  -2  14  12 44676.6 1639.05   3
   2 -14 -12 46215.8 1613.35   1
  -2  14  11 356.230 273.998   3
   2 -14 -11 54.1875 219.939   1
  -2  14  10 3312.36 480.194   3
   2 -14 -10 1306.51 319.524   1
   2 -14  -9 21826.1 1041.35   1
  -2  14   9 20655.2 1069.45   3
   2 -14  -8 50.0292 187.230   1
  -2  14   8 245.474 210.413   3
   2 -14  -7 608.665 245.971   1
  -2  14   7 468.204 254.738   3
   2 -14  -7 1323.44 254.172   4
   2 -14  -6 32207.0 1133.81   4
  -2  14   6 31637.7 1308.12   3
   2 -14  -6 35000.6 1235.12   1
  -2  14   5 181915. 3146.85   3
   2 -14  -5 184177. 2760.91   1
   2 -14  -4 34510.5 1192.67   1
  -2  14   4 36302.9 1421.16   3
   2 -14  -4 34416.4 1242.16   4
  -2  14   3 5365.64 564.202   3
   2 -14  -3 5446.21 500.121   1
   2 -14  -3 4742.24 515.825   4
  -2  14   2 5160.10 566.821   3
   2 -14  -2 5540.34 489.434   1
   2 -14  -2 5047.09 519.185   4
  -2  14   1 70529.5 2002.29   3
   2 -14  -1 81714.8 2046.07   4
  -2  14   0 30675.5 1381.80   3
   2 -14   0 32940.7 1353.61   4
  -2  13  15 18518.3 1017.46   2
  -2  13  14 1248.00 333.891   2
   2 -13 -14 2247.07 424.530   1
  -2  13  13 55633.5 1605.68   2
  -2  13  13 57846.1 1848.37   3
   2 -13 -13 59837.2 1830.38   1
   2 -13 -12 69569.7 1920.70   1
  -2  13  12 69483.4 1969.64   3
  -2  13  11 2415.61 348.691   2
  -2  13  11 2280.89 398.552   3
   2 -13 -11 1852.52 368.139   1
  -2  13  10 22315.2 1086.29   3
   2 -13 -10 22835.0 1057.83   1
  -2  13   9 161941. 2888.24   3
   2 -13  -9 160372. 2720.29   1
  -2  13   8 233002. 3347.13   3
   2 -13  -8 244033. 3224.90   1
  -2  13   7 9800.43 705.557   3
   2 -13  -7 10311.8 670.588   1
   2 -13  -7 9418.07 563.052   4
   2 -13  -6 15439.8 792.842   1
  -2  13   6 14688.5 857.741   3
   2 -13  -6 15318.7 732.760   4
  -2  13   5 55471.8 1639.64   3
   2 -13  -5 58319.5 1499.14   1
   2 -13  -5 56396.0 1435.98   4
   2 -13  -4 46024.9 1335.13   4
  -2  13   4 46678.3 1529.13   3
   2 -13  -4 46593.0 1316.97   1
  -2  13   3 10888.7 755.596   3
   2 -13  -3 11858.5 663.246   1
   2 -13  -3 11435.1 702.362   4
   2 -13  -2 29019.9 1143.25   4
   2 -13  -2 26657.4 972.293   1
  -2  13   2 26111.1 1170.76   3
   2 -13  -1 6272.50 480.145   1
  -2  13   1 6125.59 593.915   3
   2 -13  -1 6441.23 567.384   4
   2 -13   0 807.495 239.665   4
  -2  13   0 1036.44 321.296   3
  -2  13  -1-92.0076 197.743   3
   2 -13   1 28.3464 195.846   4
  -2  13  -2 12746.0 891.417   3
   2 -13   2 12889.9 868.668   4
   2 -12 -15 852.015 319.804   1
  -2  12  14 74028.4 2059.21   3
  -2  12  14 68995.1 1834.26   2
   2 -12 -14 73180.1 2006.03   1
  -2  12  13 21929.5 1005.93   2
  -2  12  13 23630.8 1149.73   3
   2 -12 -13 24864.2 1151.46   1
  -2  12  12 312088. 3620.05   2
   2 -12 -12 324187. 4006.28   1
  -2  12  11 25608.6 1009.18   2
   2 -12 -11 25402.4 1107.70   1
  -2  12  10 9928.35 718.059   3
   2 -12 -10 8001.15 618.833   1
  -2  12  10 9596.59 595.066   2
  -2  12   9 42815.8 1416.61   3
   2 -12  -9 39098.7 1307.61   1
  -2  12   9 41794.8 1175.06   2
  -2  12   8 116166. 2314.87   3
   2 -12  -8 113407. 2145.45   1
  -2  12   8 108308. 1818.97   2
   2 -12  -7 2633.44 284.253   4
  -2  12   7 1944.85 316.934   3
   2 -12  -7 2340.44 331.264   1
  -2  12   6 14348.4 806.123   3
   2 -12  -6 14008.7 727.257   1
   2 -12  -6 12403.0 620.449   4
  -2  12   5 18372.5 902.739   3
   2 -12  -5 16442.8 775.522   1
   2 -12  -5 18393.3 772.986   4
   2 -12  -4 82454.3 1670.40   4
   2 -12  -4 83158.0 1675.51   1
  -2  12   3 1904.78 332.924   3
   2 -12  -3 1876.65 272.113   1
   2 -12  -3 1885.07 295.261   4
   2 -12  -2 621.599 214.209   4
   2 -12  -2 1110.15 208.223   1
  -2  12   2 1087.52 270.189   3
   2 -12  -1 798.313 224.263   1
  -2  12   1 1292.42 298.101   3
   2 -12  -1 1197.09 254.719   4
   2 -12   0 3941.98 361.960   1
  -2  12   0 3623.39 463.864   3
   2 -12   0 3684.81 430.906   4
  -2  12  -1 4395.21 496.789   3
   2 -12   1 5113.68 505.793   4
   2 -12   2 3852.74 476.540   4
  -2  12  -2 3028.28 441.589   3
   2 -12   3 7277.44 678.582   4
  -2  12  -3 6551.59 630.920   3
   2 -12   4 131972. 2744.05   4
  -2  12  -4 124652. 2744.68   3
   2 -11 -16 6901.36 671.899   1
  -2  11  15 27672.3 1251.68   3
   2 -11 -15 27324.8 1186.92   2
   2 -11 -15 26426.0 1219.15   1
   2 -11 -14 17750.3 978.807   1
   2 -11 -14 18793.7 935.523   2
  -2  11  14 18208.3 991.941   3
  -2  11  13 43062.0 1480.80   3
   2 -11 -13 43740.3 1367.24   2
   2 -11 -13 43320.5 1470.34   1
   2 -11 -12 53462.7 1580.30   1
  -2  11  12 55894.8 1645.49   3
   2 -11 -11 141334. 2500.17   1
  -2  11  11 136783. 2263.37   2
  -2  11  11 145382. 2590.87   3
  -2  11  10 290044. 3587.97   3
   2 -11 -10 303595. 3552.97   1
  -2  11   9 27897.8 1107.63   3
   2 -11  -9 26530.5 1041.16   1
  -2  11   9 25818.3 916.222   2
   2 -11  -8 2402.19 332.326   1
  -2  11   8 2313.15 291.031   2
  -2  11   8 2262.32 333.586   3
   2 -11  -7 379.312 189.261   1
  -2  11   7 352.523 184.797   3
  -2  11   7 308.635 152.300   2
   2 -11  -7 189.474 106.538   4
  -2  11   6 19774.9 889.138   3
   2 -11  -6 21412.3 865.215   1
   2 -11  -6 19486.5 716.128   4
  -2  11   6 19879.9 703.704   2
   2 -11  -5 9394.97 564.766   1
   2 -11  -5 9302.92 519.269   4
  -2  11   5 9558.48 635.857   3
   2 -11  -4 52189.0 1273.65   1
  -2  11   4 51657.8 1434.52   3
   2 -11  -4 48530.2 1209.77   4
  -2  11   3 97814.9 2004.76   3
   2 -11  -3 93641.7 1636.73   1
   2 -11  -3 94434.6 1722.06   4
   2 -11  -2 47573.2 1286.71   4
  -2  11   2 44507.3 1377.80   3
   2 -11  -2 44353.6 1110.44   1
  -2  11   1 14445.3 802.621   3
   2 -11  -1 13309.9 621.973   1
   2 -11  -1 13208.1 719.387   4
  -2  11   0 7023.83 603.518   3
   2 -11   0 6896.85 467.277   1
   2 -11   0 7360.62 563.097   4
   2 -11   1 34731.2 1204.21   4
  -2  11  -1 34791.2 1286.57   3
  -2  11  -2 535.956 227.830   3
   2 -11   2-123.628 165.616   4
   2 -11   3 9578.25 691.460   4
  -2  11  -3 8349.59 672.178   3
   2 -11   4 158081. 2861.07   4
  -2  11  -4 158378. 2933.31   3
  -2  11  -5 9690.39 789.725   3
   2 -11   5 8002.46 673.528   4
  -2  10  15 3165.97 459.141   3
   2 -10 -15 2553.36 400.132   2
   2 -10 -15 2595.14 429.651   1
  -2  10  14 72641.0 1916.20   3
   2 -10 -14 71237.8 1771.05   2
   2 -10 -14 72696.8 1914.99   1
  -2  10  13 57213.4 1648.41   3
   2 -10 -13 58971.1 1671.00   1
   2 -10 -13 59843.3 1583.93   2
  -2  10  12 104.028 180.642   3
   2 -10 -12 290.983 223.356   1
   2 -10 -12 148.784 189.927   2
   2 -10 -11 44702.7 1377.23   1
  -2  10  11 45011.8 1405.41   3
  -2  10  10 92798.6 1954.39   3
   2 -10 -10 87857.3 1866.17   1
   2 -10  -9 127223. 2186.54   1
  -2  10   9 131302. 2029.07   2
  -2  10   8 6556.51 518.771   3
  -2  10   8 6592.83 451.031   2
   2 -10  -8 6561.85 508.930   1
  -2  10   7 4603.83 420.784   3
   2 -10  -7 5468.50 448.122   1
   2 -10  -7 4699.78 315.551   4
  -2  10   7 4963.39 368.569   2
  -2  10   6 19019.8 849.145   3
   2 -10  -6 16693.0 731.225   1
   2 -10  -6 17275.7 615.407   4
  -2  10   6 18540.8 680.628   2
  -2  10   5 61541.6 1182.02   2
   2 -10  -5 62507.2 1363.97   1
  -2  10   5 64414.5 1518.45   3
   2 -10  -4 13811.3 603.019   4
   2 -10  -4 13996.9 630.821   1
  -2  10   4 14234.0 550.084   2
  -2  10   4 13970.8 717.699   3
   2 -10  -3 9740.28 523.299   1
   2 -10  -3 9586.33 520.022   4
  -2  10   3 9586.95 418.573   2
   2 -10  -2 4974.38 366.247   1
  -2  10   2 4941.48 451.299   3
   2 -10  -2 4711.88 390.482   4
   2 -10  -1 596.369 180.992   4
  -2  10   1 62.4921 137.513   3
   2 -10  -1 465.108 157.404   1
   2 -10   0 4260.21 341.655   1
  -2  10   0 4895.24 455.476   3
   2 -10   0 3722.08 403.374   4
  -2  10  -1 36325.7 1243.31   3
   2 -10   1 35966.3 914.599   1
   2 -10   1 38422.8 1243.87   4
  -2  10  -2 76916.3 1826.06   3
   2 -10   2 81933.1 1800.16   4
   2 -10   3 90813.6 1981.01   4
  -2  10  -3 86910.1 2004.03   3
   2 -10   4 48917.9 1530.23   4
  -2  10  -4 50665.5 1586.93   3
  -2  10  -5 1746.49 380.419   3
   2 -10   5 1854.10 345.662   4
  -2  10  -6 122263. 2622.83   3
   2 -10   6 124059. 2539.86   4
  -2  10  -7 5485.61 617.433   3
   2 -10   7 6717.18 654.239   4
  -2   9  16 76075.6 2087.33   3
  -2   9  15 1666.21 378.047   3
   2  -9 -15 1135.47 304.747   1
   2  -9 -15 1554.91 333.733   2
   2  -9 -14 29769.1 1194.35   1
   2  -9 -14 32546.8 1214.03   2
  -2   9  13 218735. 3171.16   3
   2  -9 -13 210712. 2916.09   2
   2  -9 -13 212808. 3097.88   1
  -2   9  12 56899.0 1554.20   3
   2  -9 -12 55553.8 1432.01   2
   2  -9 -12 56209.4 1545.42   1
  -2   9  11 5007.95 460.786   3
   2  -9 -11 4455.32 417.989   2
   2  -9 -11 4667.27 450.423   1
  -2   9  10 296.977 183.239   3
   2  -9 -10 384.307 172.901   1
   2  -9 -10 378.011 159.401   2
  -2   9   9 62402.7 1510.72   3
  -2   9   9 58229.0 1323.15   2
   2  -9  -9 58924.5 1449.58   1
  -2   9   8 104590. 1706.18   2
   2  -9  -8 104438. 1862.51   1
  -2   9   7 2908.20 334.246   3
   2  -9  -7 2041.51 273.911   1
  -2   9   7 2629.25 279.515   2
   2  -9  -7 3442.24 255.403   4
   2  -9  -6 155.677 111.773   1
  -2   9   6 325.463 148.484   3
   2  -9  -6 364.959 117.219   4
  -2   9   6 72.1963 108.905   2
  -2   9   5 85526.8 1659.38   3
   2  -9  -5 83196.4 1506.60   1
  -2   9   5 81156.7 1349.05   2
   2  -9  -5 84992.9 1307.52   4
  -2   9   4 47009.6 1222.18   3
   2  -9  -4 45439.0 1088.85   1
   2  -9  -4 44034.9 985.286   4
  -2   9   4 47141.7 978.947   2
  -2   9   3 44675.3 1197.87   3
   2  -9  -3 42550.2 1023.03   1
   2  -9  -3 42774.7 1032.75   4
  -2   9   3 45896.9 909.780   2
  -2   9   2 139391. 1499.70   2
  -2   9   2 134156. 2102.45   3
   2  -9  -2 133311. 1760.95   1
   2  -9  -2 131909. 1878.53   4
   2  -9  -1 477806. 3278.13   1
  -2   9   1 490429. 2714.10   2
  -2   9   0 131257. 2173.41   3
   2  -9   0 126883. 1986.66   4
   2  -9   0 133444. 1668.31   1
   2  -9   1 18022.6 791.417   4
  -2   9  -1 18835.9 846.422   3
   2  -9   2 220.752 129.092   1
   2  -9   2 87.8577 140.430   4
  -2   9  -2 130.599 179.842   3
  -2   9  -3 23963.0 1005.66   3
   2  -9   3 25802.3 1013.48   4
  -2   9  -4 12499.1 757.609   3
   2  -9   4 13372.6 768.180   4
  -2   9  -5 1205.46 294.522   3
   2  -9   5 1869.43 327.084   4
  -2   9  -6 821.661 263.712   3
   2  -9   6 313.031 207.705   4
  -2   9  -7 8110.58 693.711   3
   2  -9   7 9311.99 726.525   4
  -2   9  -8 292.633 298.506   3
   2  -9   8 4.47555 206.797   4
  -2   8  16 345886. 4346.38   3
   2  -8 -15 70090.3 1833.21   1
  -2   8  15 71503.0 1907.09   3
   2  -8 -15 71863.7 1882.75   2
  -2   8  14 611.309 234.338   3
   2  -8 -14 376.443 233.196   1
   2  -8 -14 449.407 224.351   2
   2  -8 -13 23576.0 1009.49   1
   2  -8 -13 23734.9 991.995   2
  -2   8  13 22898.8 1006.60   3
   2  -8 -12 127064. 2169.13   2
   2  -8 -12 122532. 2226.61   1
  -2   8  11 6369.86 504.913   3
   2  -8 -11 5722.30 452.947   2
   2  -8 -11 6800.12 529.782   1
   2  -8 -10 202438. 2456.31   2
  -2   8  10 199049. 2628.81   3
   2  -8 -10 198738. 2639.64   1
  -2   8   9 189214. 2486.95   3
   2  -8  -9 195006. 2313.70   2
   2  -8  -9 186181. 2474.95   1
  -2   8   8 85921.7 1652.06   3
  -2   8   8 83895.5 1503.79   2
   2  -8  -8 86689.4 1634.68   1
  -2   8   7 7370.54 482.055   3
   2  -8  -7 6635.13 453.921   1
  -2   8   7 7070.58 433.677   2
   2  -8  -7 7364.04 320.672   4
  -2   8   6 6977.92 459.648   3
   2  -8  -6 6693.15 445.065   1
  -2   8   6 6337.39 387.166   2
   2  -8  -6 6428.48 320.084   4
  -2   8   5 80566.1 1497.71   3
   2  -8  -5 79619.7 1435.65   1
  -2   8   5 77851.2 1305.38   2
  -2   8   4 54205.3 1224.59   3
   2  -8  -4 54463.0 1145.28   1
  -2   8   4 54916.6 1038.19   2
   2  -8  -4 50844.0 1006.01   4
  -2   8   3 15769.6 537.274   2
   2  -8  -3 15513.0 590.818   1
   2  -8  -3 15083.7 582.520   4
  -2   8   3 15274.7 664.130   3
  -2   8   2 63584.3 1343.84   3
   2  -8  -2 59551.2 1130.71   1
   2  -8  -2 63629.7 1225.27   4
  -2   8   2 61441.6 1002.39   2
  -2   8   1 285680. 2937.10   3
   2  -8  -1 270671. 2315.11   1
  -2   8   1 284160. 2055.23   2
   2  -8  -1 270984. 2613.45   4
  -2   8   0 716859. 4810.76   3
   2  -8   0 718772. 4473.96   4
   2  -8   1 118549. 1494.04   1
   2  -8   1 121153. 1938.06   4
  -2   8  -2 22558.7 906.993   3
   2  -8   2 25830.3 657.520   1
  -2   8  -2 24564.0 532.267   2
   2  -8   2 23653.8 872.290   4
  -2   8  -3 174865. 2580.15   3
   2  -8   3 172265. 2487.22   4
  -2   8  -4 9116.62 615.952   3
   2  -8   4 10339.2 634.793   4
   2  -8   5-150.881 151.614   4
  -2   8  -5 24.3944 155.528   3
   2  -8   6 108272. 2142.27   4
  -2   8  -6 112935. 2294.63   3
  -2   8  -7 76932.1 1973.38   3
   2  -8   7 80601.7 1952.91   4
  -2   8  -8 35748.2 1422.55   3
   2  -8   8 34599.3 1312.88   4
  -2   8  -9 380.056 257.418   3
   2  -8   9 344.799 254.677   4
  -2   7  16 27868.9 1245.08   3
  -2   7  15 84272.1 2047.47   3
   2  -7 -15 93185.0 2153.60   2
  -2   7  14 2017.29 332.084   3
   2  -7 -14 1467.96 304.321   1
   2  -7 -14 1479.51 300.055   2
  -2   7  13 21966.6 950.677   3
   2  -7 -13 22498.8 977.723   2
   2  -7 -13 20201.5 920.198   1
  -2   7  12 1567.96 277.672   3
   2  -7 -12 1519.59 285.147   1
   2  -7 -12 1727.23 299.414   2
   2  -7 -11 45379.1 1280.96   1
   2  -7 -11 44576.5 1231.76   2
  -2   7  11 42398.0 1235.98   3
   2  -7 -10 3385.98 335.947   2
   2  -7 -10 3956.85 386.112   1
  -2   7  10 3956.40 372.583   3
  -2   7   9 242167. 2728.21   3
   2  -7  -9 249161. 2598.48   2
   2  -7  -9 246960. 2762.26   1
   2  -7  -8 411558. 3218.25   2
  -2   7   8 409393. 3402.22   3
  -2   7   7 58038.6 1253.25   3
  -2   7   7 57245.3 1166.02   2
   2  -7  -7 58509.5 760.885   4
   2  -7  -7 56718.3 1250.75   1
  -2   7   6 26060.8 831.139   3
  -2   7   6 24984.9 734.477   2
   2  -7  -6 24290.4 808.138   1
   2  -7  -5 5087.95 365.151   1
  -2   7   5 4202.67 310.970   2
   2  -7  -5 4959.30 269.548   4
  -2   7   5 4059.07 327.345   3
  -2   7   3 177428. 2079.76   3
   2  -7  -3 181727. 1810.62   4
   2  -7  -3 176481. 1916.33   1
  -2   7   3 173887. 1760.08   2
  -2   7   2 22396.3 748.094   3
   2  -7  -2 22295.1 660.859   1
  -2   7   2 23148.8 629.208   2
   2  -7  -2 21809.1 662.850   4
  -2   7   1 19394.6 711.270   3
   2  -7  -1 19131.2 590.791   1
   2  -7  -1 17835.6 630.344   4
   2  -7   0 381414. 2566.73   1
  -2   7   0 381297. 2513.69   2
   2  -7   0 383734. 3102.10   4
  -2   7  -1 167524. 2191.38   3
   2  -7   1 172242. 1720.27   1
   2  -7   1 165390. 2145.32   4
  -2   7  -1 160305. 1447.62   2
   2  -7   2 17797.4 515.501   1
  -2   7  -2 16323.5 449.844   2
   2  -7   2 16177.7 689.036   4
  -2   7  -3 813079. 5211.26   3
  -2   7  -4 151824. 1406.84   2
  -2   7  -4 152049. 2338.16   3
   2  -7   4 153163. 2242.86   4
  -2   7  -5 3949.68 421.459   3
   2  -7   5 3794.75 388.167   4
  -2   7  -6 66303.0 1682.84   3
   2  -7   6 70926.4 1674.22   4
   2  -7   7 131258. 2369.41   4
  -2   7  -7 143730. 2577.94   3
   2  -7   8 64962.3 1717.17   4
  -2   7  -8 65516.8 1838.91   3
  -2   7  -9 308.809 240.625   3
   2  -7   9 123.058 190.529   4
  -2   7 -10 31516.5 1416.16   3
   2  -7  10 25654.2 1164.67   4
   2  -7  11 4413.60 551.352   4
  -2   6  16 97636.6 2254.66   3
  -2   6  15 20818.0 1007.27   3
   2  -6 -15 23220.8 1095.02   2
  -2   6  14 10050.6 669.667   3
   2  -6 -14 8778.26 657.581   2
  -2   6  13 7118.41 547.064   3
   2  -6 -13 5917.17 495.930   1
   2  -6 -13 6676.06 542.644   2
   2  -6 -12 283644. 3225.73   1
  -2   6  12 273068. 3132.10   3
  -2   6  11 65388.8 1485.79   3
   2  -6 -11 66676.1 1517.29   1
  -2   6  10 10417.5 575.076   3
   2  -6 -10 10856.9 586.639   2
   2  -6 -10 10999.1 607.522   1
  -2   6   9 858.070 193.651   3
   2  -6  -9 769.925 194.597   1
   2  -6  -9 730.655 194.353   2
   2  -6  -8 222804. 2325.83   2
   2  -6  -8 217889. 2453.14   1
  -2   6   7 446690. 3293.86   3
   2  -6  -7 451845. 3424.63   1
   2  -6  -6 68615.5 1292.40   1
  -2   6   6 71353.1 1287.49   3
   2  -6  -6 71622.5 833.183   4
  -2   6   6 67126.5 1207.83   2
   2  -6  -5 415260. 3080.91   1
  -2   6   5 420258. 2881.85   2
  -2   6   4 5820.44 355.165   3
   2  -6  -4 5995.30 365.917   1
  -2   6   4 6307.13 344.866   2
   2  -6  -4 6017.90 291.948   4
  -2   6   3 20577.3 651.543   3
   2  -6  -3 20341.1 558.854   4
   2  -6  -3 19421.6 614.957   1
  -2   6   3 20038.6 590.037   2
   2  -6  -2 55099.5 965.953   4
   2  -6  -2 56851.5 1007.53   1
  -2   6   2 57603.2 1109.00   3
  -2   6   1 237230. 1906.46   2
  -2   6   1 234250. 2299.61   3
   2  -6  -1 238795. 1989.28   1
   2  -6  -1 240168. 2147.67   4
  -2   6  -1 148285. 1397.26   2
   2  -6   1 145337. 1456.83   1
   2  -6   1 147875. 1847.87   4
  -2   6  -1 143115. 1891.73   3
  -2   6  -2 1342.16 212.010   3
   2  -6   2 1457.10 144.068   1
   2  -6   2 1902.56 238.383   4
   2  -6   3 23531.7 529.366   1
   2  -6   3 24709.1 833.939   4
  -2   6  -3 24080.3 550.719   2
  -2   6  -4 71673.9 971.899   2
  -2   6  -4 72618.7 1537.24   3
   2  -6   4 71306.0 1457.35   4
  -2   6  -5 178769. 1588.42   2
   2  -6   5 177929. 2402.37   4
  -2   6  -6 13766.2 737.576   3
  -2   6  -6 14468.6 484.510   2
   2  -6   6 13094.4 698.138   4
  -2   6  -7 6387.15 351.202   2
  -2   6  -7 6393.49 538.196   3
   2  -6   7 6854.65 522.284   4
  -2   6  -8 89479.7 2065.63   3
   2  -6   8 89870.8 1918.95   4
  -2   6  -9 172837. 2947.11   3
   2  -6   9 175192. 2771.24   4
  -2   6 -10 87892.9 2248.04   3
   2  -6  10 84203.6 1996.46   4
  -2   6 -11 81580.8 2217.79   3
   2  -6  11 76565.0 1972.10   4
  -2   5  16 60210.9 1772.51   3
   2  -5 -15 187359. 3059.42   2
  -2   5  15 174894. 2879.26   3
  -2   5  14 4132.33 465.046   3
   2  -5 -14 4411.89 477.434   2
   2  -5 -13 132.439 203.111   1
  -2   5  13 381.814 205.256   3
   2  -5 -13 767.459 242.896   2
  -2   5  12 8024.02 549.101   3
   2  -5 -12 7205.84 544.398   2
   2  -5 -12 7271.95 521.007   1
  -2   5  11 34295.2 1048.19   3
   2  -5 -11 31738.5 1029.58   1
   2  -5 -11 31487.6 1033.59   2
  -2   5  10 5123.20 395.435   3
   2  -5 -10 4479.11 387.684   2
   2  -5 -10 5038.65 410.008   1
  -2   5   9 9766.72 520.485   3
   2  -5  -9 10436.5 540.642   2
   2  -5  -9 9410.92 527.816   1
  -2   5   8 7581.41 438.715   3
   2  -5  -8 7575.07 436.531   2
   2  -5  -8 8030.06 472.529   1
  -2   5   7 41097.1 971.027   3
   2  -5  -7 39628.2 999.519   1
   2  -5  -7 40676.7 966.916   2
  -2   5   6 554781. 3434.58   2
   2  -5  -6 558037. 3557.84   1
   2  -5  -5 336276. 2683.13   1
  -2   5   5 330228. 2528.98   3
  -2   5   5 333941. 2533.32   2
   2  -5  -3 101076. 1354.06   1
   2  -5  -3 98467.8 1105.59   4
  -2   5   3 97727.7 1291.14   2
   2  -5  -2 50644.3 912.199   1
  -2   5   2 49211.8 942.462   3
   2  -5  -2 49217.7 850.930   4
  -2   5   2 51721.7 905.300   2
  -2   5   1 5937.24 338.355   3
   2  -5  -1 5824.60 301.669   1
   2  -5  -1 6088.40 325.576   4
  -2   5   1 5524.35 295.721   2
  -2   5  -2 60655.6 1203.22   3
   2  -5   2 59963.6 828.467   1
  -2   5  -2 57332.5 869.406   2
   2  -5   2 58789.3 1138.20   4
   2  -5   3 257428. 1618.82   1
   2  -5   3 263435. 2559.24   4
  -2   5  -3 259275. 1855.09   2
  -2   5  -4 598254. 4157.63   3
   2  -5   4 624874. 4095.18   4
  -2   5  -5 469827. 3873.65   3
  -2   5  -5 475313. 2606.35   2
  -2   5  -6 3.69964 80.0959   2
  -2   5  -6 183.762 140.015   3
   2  -5   6 275.026 142.256   4
  -2   5  -7 3564.89 263.820   2
  -2   5  -7 3045.32 352.857   3
   2  -5   7 3931.67 376.822   4
  -2   5  -8 13473.6 529.177   2
  -2   5  -8 13299.3 770.860   3
   2  -5   8 13864.0 716.738   4
  -2   5  -9 9981.05 492.408   2
   2  -5   9 11085.7 687.447   4
  -2   5  -9 11379.0 743.826   3
  -2   5 -10 50434.8 1622.08   3
   2  -5  10 48983.9 1457.77   4
  -2   5 -11-302.747 246.678   3
   2  -5  11 387.107 224.245   4
   2  -5  12 97123.6 2206.97   4
  -2   4  16 1707.38 355.939   3
  -2   4  15 17976.3 924.775   3
   2  -4 -15 19352.4 994.630   2
  -2   4  14 102633. 2072.32   3
   2  -4 -14 111446. 2272.97   2
  -2   4  13 105525. 2001.37   3
   2  -4 -13 109037. 2145.27   2
   2  -4 -12 34754.0 1088.48   1
  -2   4  12 35207.0 1107.33   3
   2  -4 -12 33136.0 1127.83   2
   2  -4 -11 3186.37 344.218   1
   2  -4 -11 3418.11 364.753   2
  -2   4  11 3875.93 364.178   3
   2  -4 -10 3829.43 357.032   1
   2  -4 -10 4214.89 365.236   2
  -2   4  10 4314.74 355.552   3
   2  -4  -9 46140.6 1125.49   1
  -2   4   9 47315.2 1104.08   3
  -2   4   8 36732.0 911.304   3
   2  -4  -8 35276.7 936.223   2
   2  -4  -8 34866.6 946.962   1
   2  -4  -7 332891. 2706.18   2
   2  -4  -7 328119. 2778.25   1
  -2   4   6 168828. 1762.54   3
   2  -4  -6 171483. 1846.61   2
  -2   4   5 127587. 1562.06   2
  -2   4   5 127024. 1453.42   3
   2  -4  -5 127336. 1615.38   1
   2  -4  -5 124593. 869.779   4
   2  -4  -5 123256. 727.566   4
   2  -4  -4 395.650 69.8529   4
  -2   4   4 515.661 105.540   3
   2  -4  -4 590.700 124.978   1
  -2   4   3 76014.4 1115.57   2
  -2   4   3 74429.8 1056.00   3
   2  -4  -3 76960.3 894.218   4
   2  -4  -3 78369.6 1147.00   1
  -2   4   2 47950.3 863.912   2
   2  -4  -2 48944.4 784.670   4
  -2   4   2 47218.3 832.885   3
   2  -4  -2 48839.9 862.628   1
  -2   4   1 52320.9 891.765   3
  -2   4   1 49349.1 874.393   2
   2  -4  -1 50782.5 843.509   1
   2  -4  -1 51281.4 877.167   4
  -2   4   0 114867. 1299.19   2
  -2   4   0 116385. 1388.61   3
   2  -4   0 118584. 1392.56   4
   2  -4   0 116444. 1216.28   1
  -2   4  -2 309677. 2037.41   2
   2  -4   2 305206. 2530.52   4
   2  -4   3 107311. 979.090   1
  -2   4  -3 105495. 1188.21   2
   2  -4   4 69338.4 710.008   1
  -2   4  -4 66636.5 1312.71   3
  -2   4  -4 67637.7 959.714   2
   2  -4   4 64850.9 1280.12   4
  -2   4  -5 127427. 1897.69   3
   2  -4   5 123687. 1827.43   4
  -2   4  -6 8270.12 371.585   2
  -2   4  -6 9960.08 564.441   3
   2  -4   6 9659.99 539.644   4
  -2   4  -7 330.120 132.771   2
  -2   4  -7 397.310 165.574   3
   2  -4   7 85.9144 123.107   4
  -2   4  -8 12985.5 515.088   2
   2  -4   8 13336.1 689.803   4
  -2   4  -9 122794. 1662.69   2
   2  -4   9 119491. 2070.53   4
  -2   4 -10 357.757 148.788   2
  -2   4 -10 723.057 256.155   3
   2  -4  10 276.387 177.392   4
  -2   4 -11 8559.80 516.774   2
  -2   4 -11 8502.09 686.293   3
   2  -4  11 9078.65 638.648   4
   2  -4  12-64.0957 214.839   3
   2  -4  12-72.1684 199.302   4
  -2   3  15-20.2671 195.673   3
   2  -3 -15 314.794 299.394   2
  -2   3  14 11831.2 732.444   3
   2  -3 -14 11490.5 750.497   2
   2  -3 -13 13485.2 762.234   2
  -2   3  13 13821.1 746.706   3
   2  -3 -12 138921. 2302.82   2
   2  -3 -12 143296. 2157.08   1
  -2   3  12 135606. 2168.18   3
  -2   3  11 790.977 190.836   3
   2  -3 -11 661.513 188.045   1
   2  -3 -11 575.021 188.577   2
  -2   3  10 7004.71 453.994   3
   2  -3 -10 7055.96 461.735   1
   2  -3 -10 6941.22 478.684   2
   2  -3  -9 4293.49 346.924   1
   2  -3  -9 4524.66 372.371   2
  -2   3   9 4635.17 347.671   3
   2  -3  -8 120580. 1723.25   2
  -2   3   8 123099. 1617.50   3
   2  -3  -8 125122. 1758.05   1
   2  -3  -7 19227.9 658.706   2
   2  -3  -7 19683.9 680.262   1
   2  -3  -6 196733. 2058.99   1
  -2   3   6 213786. 1889.59   3
  -2   3   5 142371. 1467.51   3
   2  -3  -5 143864. 1685.01   1
  -2   3   4 73871.0 611.689   4
  -2   3   4 69547.4 1091.69   2
  -2   3   4 69844.3 960.818   3
   2  -3  -4 72931.0 1144.70   1
   2  -3  -4 67636.0 657.489   4
  -2   3   3 9255.06 342.511   3
  -2   3   3 9779.05 399.171   2
   2  -3  -3 9584.99 293.114   4
   2  -3  -3 9191.59 395.367   1
  -2   3   2 186422. 1502.65   3
  -2   3   2 186840. 1657.07   2
   2  -3  -2 192922. 1413.25   4
   2  -3  -2 193971. 1700.13   1
  -2   3   0 118875. 1289.68   2
   2  -3   0 121145. 1194.95   1
   2  -3   0 120118. 1297.29   4
  -2   3  -1 8410.23 351.929   3
   2  -3   1 8533.29 373.261   4
  -2   3  -1 7728.80 331.989   2
   2  -3   1 7923.22 297.648   1
   2  -3   2 6621.51 355.940   4
  -2   3  -2 6264.30 331.863   3
  -2   3  -2 7063.87 307.212   2
   2  -3   2 6290.10 246.444   1
   2  -3   3 72077.1 1211.53   4
  -2   3  -3 70092.5 1169.28   3
   2  -3   3 71783.2 755.847   1
   2  -3   4 18609.6 641.910   4
  -2   3  -4 18437.5 652.767   3
   2  -3   4 17360.4 329.376   1
  -2   3  -4 17529.6 277.536   1
  -2   3  -4 17723.8 494.990   2
  -2   3  -5 105263. 1638.23   3
  -2   3  -5 104112. 1230.19   2
   2  -3   5 100810. 1549.28   4
  -2   3  -6 33379.4 732.878   2
  -2   3  -6 35342.7 1003.91   3
   2  -3   6 35338.9 966.067   4
  -2   3  -7 11189.8 452.234   2
  -2   3  -7 11834.0 626.246   3
   2  -3   7 10925.1 569.398   4
  -2   3  -8 1718.73 196.591   2
  -2   3  -8 1516.94 257.128   3
   2  -3   8 1703.59 250.470   4
  -2   3  -9 115275. 1582.23   2
  -2   3  -9 116513. 2180.86   3
  -2   3 -10 167957. 2048.92   2
   2  -3  10 167405. 2461.88   4
  -2   3 -10 163491. 2672.08   3
  -2   3 -11 42200.2 1095.01   2
   2  -3  11 44010.7 1327.19   4
  -2   3 -11 45642.7 1497.20   3
  -2   3 -12 4441.88 397.396   2
   2  -3  12 4512.39 503.344   3
   2  -3  12 4158.14 439.240   4
  -2   3 -13 17285.5 782.418   2
   2  -3  13 20002.3 1095.81   3
  -2   2  15 6940.11 601.323   3
   2  -2 -15 6988.49 631.571   2
  -2   2  14 78688.6 1848.37   3
   2  -2 -14 80345.6 1945.47   2
  -2   2  13 3110.19 372.808   3
   2  -2 -13 2613.39 367.736   2
   2  -2 -12 119478. 2157.26   2
  -2   2  12 126075. 2077.91   3
   2  -2 -11 70976.2 1565.59   2
   2  -2 -11 72230.2 1453.14   1
   2  -2 -10 52949.0 1303.44   2
   2  -2 -10 53039.4 1220.98   1
  -2   2   9 1434.81 211.781   3
   2  -2  -9 1388.98 229.407   2
   2  -2  -9 1426.82 209.808   1
  -2   2   8 33928.9 843.092   3
   2  -2  -8 32290.0 894.262   1
   2  -2  -8 32756.3 904.170   2
  -2   2   7 32200.0 767.158   3
   2  -2  -7 31315.2 838.911   1
   2  -2  -7 30533.3 817.654   2
  -2   2   6 100676. 1253.56   3
   2  -2  -6 100037. 1439.06   1
  -2   2   4 205048. 1034.32   4
  -2   2   4 199171. 1515.51   3
  -2   2   4 213656. 1881.73   2
   2  -2  -4 206622. 1911.65   1
   2  -2  -4 207160. 1019.38   4
  -2   2   3 280098. 1650.66   3
  -2   2   3 277733. 2049.17   2
   2  -2  -3 277576. 2105.55   1
   2  -2  -2 46948.5 831.278   1
  -2   2   2 46701.2 653.076   3
  -2   2   2 49033.3 848.389   2
   2  -2  -2 46297.5 643.355   4
   2  -2  -1 197038. 1598.80   1
  -2   2   1 195552. 1342.57   3
   2  -2  -1 197625. 1481.41   4
  -2   2   1 201317. 1673.17   2
  -2   2   0 37663.1 707.325   2
  -2   2   0 36346.7 609.415   3
   2  -2   0 37803.5 668.067   1
   2  -2   0 36624.6 681.388   4
  -2   2  -3 348959. 2432.65   3
  -2   2  -3 349492. 2149.92   2
  -2   2  -4 73607.5 1197.54   3
   2  -2   4 76241.7 1235.12   4
  -2   2  -4 73030.2 581.915   1
   2  -2   4 72878.0 639.687   1
  -2   2  -5 500.701 38.1358   1
  -2   2  -5 429.772 96.7856   2
  -2   2  -5 413.296 117.397   3
   2  -2   5 722.934 149.327   4
  -2   2  -6 18449.1 542.011   2
  -2   2  -6 18386.1 701.234   3
   2  -2   6 18912.3 675.593   4
  -2   2  -7 501.784 119.906   2
  -2   2  -7 493.822 160.662   3
   2  -2   7 78.1550 108.694   4
  -2   2  -8 1620.73 197.627   2
  -2   2  -8 1905.98 283.431   3
   2  -2   8 2093.25 269.016   4
  -2   2  -9 279.933 132.576   2
  -2   2  -9 95.5657 150.859   3
   2  -2   9 194.011 140.872   4
  -2   2 -10 25947.8 803.746   2
   2  -2  10 26173.3 946.810   4
  -2   2 -11 184239. 2285.23   2
   2  -2  11 183134. 2860.93   3
  -2   2 -12 102946. 1773.62   2
   2  -2  12 104939. 2270.17   3
   2  -2  12 106926. 2059.20   4
  -2   2 -13 7737.85 523.145   2
   2  -2  13 8315.98 706.177   3
  -2   2 -14 449.541 202.211   2
   2  -1 -15 5304.01 579.270   2
  -2   1  14 13875.0 798.373   3
   2  -1 -14 14056.5 837.847   2
  -2   1  13 33485.0 1152.55   3
   2  -1 -13 30717.6 1160.43   2
  -2   1  12 137277. 2202.91   3
   2  -1 -12 155840. 2467.04   2
  -2   1  11 29116.9 950.833   3
   2  -1 -11 27387.3 984.477   2
   2  -1 -11 25654.5 861.662   1
   2  -1 -10 31368.5 996.158   2
   2  -1 -10 32474.2 945.923   1
  -2   1  10 32063.0 935.772   3
  -2   1   9 3201.20 296.627   3
   2  -1  -9 3302.68 314.979   2
   2  -1  -9 2522.87 266.043   1
   2  -1  -8 560577. 3703.53   2
   2  -1  -8 588986. 3781.85   1
   2  -1  -7 284148. 2520.71   1
  -2   1   7 281567. 1063.90   4
  -2   1   6 293449. 1227.53   4
   2  -1  -6 298145. 2405.71   2
  -2   1   4 317698. 2258.81   2
   2  -1  -4 311413. 2340.80   1
   2  -1  -2 747.697 127.977   1
   2  -1  -2 527.629 80.9013   4
  -2   1   2 510.086 107.411   2
   2  -1  -1 4161.53 167.194   3
  -2   1   1 4226.89 167.938   3
  -2   1   1 3767.63 229.904   2
   2  -1  -1 4413.31 247.364   1
   2  -1  -1 3605.69 192.825   4
   2  -1   0 128804. 1212.62   4
  -2   1   0 127045. 959.435   3
   2  -1   0 130408. 1237.87   1
  -2   1  -1 23453.4 552.273   2
   2  -1   1 22918.3 552.200   4
  -2   1  -1 21835.2 442.896   3
   2  -1   1 23963.2 499.655   1
  -2   1  -3 306668. 2055.93   3
   2  -1   3 299357. 2261.33   4
  -2   1  -5 5380.53 334.219   3
  -2   1  -5 5644.58 158.405   1
  -2   1  -5 5553.37 142.160   1
   2  -1   5 6013.68 358.442   4
  -2   1  -5 4967.90 277.703   2
   2  -1   6 49.9287 82.0040   4
  -2   1  -6-15.8083 65.9984   2
  -2   1  -6-82.0954 101.343   3
  -2   1  -7 53874.6 960.830   2
   2  -1   7 54586.4 1166.44   4
  -2   1  -8 455762. 2919.85   2
  -2   1  -8 463228. 3712.58   3
  -2   1  -9 79512.5 1308.92   2
  -2   1  -9 82716.3 1673.79   3
   2  -1   9 82079.7 1546.94   4
  -2   1 -10 2800.11 280.642   2
   2  -1  10 2309.41 305.254   4
   2  -1  10 2695.25 342.395   3
  -2   1 -11 118238. 1800.20   2
   2  -1  11 121442. 2035.82   4
  -2   1 -12 20636.0 804.196   2
   2  -1  12 22991.0 1044.34   3
   2  -1  13 337.198 224.861   3
  -2   1 -13 345.488 180.930   2
  -2   1 -14 28064.9 1019.71   2
   2  -1  14 28853.9 1296.74   3
  -2   1 -15 2150.80 342.725   2
   2   0 -14 3168.93 424.064   2
  -2   0  13 276.057 193.911   3
   2   0 -13-148.922 243.279   2
  -2   0  12 188297. 2579.80   3
   2   0 -12 191915. 2747.69   2
  -2   0  11 282509. 2991.74   3
   2   0 -11 294326. 3203.83   2
   2   0 -10 59692.4 1243.48   1
   2   0 -10 62072.6 1393.53   2
   2   0  -9 11978.3 586.471   2
  -2   0   9 13169.4 567.120   3
   2   0  -9 12308.7 561.500   1
   2   0  -8 104674. 1608.53   2
   2   0  -8 106547. 1574.19   1
  -2   0   8 106433. 1482.79   3
   2   0  -7 613884. 3689.27   1
   2   0  -6 63679.9 1109.40   2
  -2   0   6 61891.9 967.205   3
   2   0  -6 64793.6 1152.60   1
   2   0  -5 79741.9 1229.07   1
   2   0  -5 79399.3 666.958   4
  -2   0   3 85027.8 760.799   3
   2   0  -3 81360.6 1143.96   1
  -2   0   3 80976.5 1085.56   2
   2   0  -3 86130.6 758.182   4
   2   0  -1 74715.5 859.696   4
   2   0  -1 76190.4 513.026   3
  -2   0   1 76604.7 519.816   3
  -2   0   1 72903.9 989.001   2
   2   0  -1 75283.8 1004.83   1
   2   0   0 205198. 953.350   3
  -2   0   0 207661. 1640.99   2
   2   0   2 17151.4 399.365   1
  -2   0  -2 17784.7 395.554   3
   2   0   2 18723.2 515.572   4
  -2   0  -2 18345.2 486.946   2
  -2   0  -3 322393. 2018.66   2
   2   0   3 320935. 2251.24   4
  -2   0  -4 302493. 2087.27   3
   2   0   4 297340. 2289.83   4
  -2   0  -4 299993. 1993.67   2
  -2   0  -5 628395. 3389.29   3
  -2   0  -6 6476.09 320.803   2
  -2   0  -6 7655.50 406.162   3
   2   0   6 8087.71 417.278   4
  -2   0  -6 7252.36 158.165   1
  -2   0  -6 7003.12 196.478   1
  -2   0  -7 22057.1 606.861   2
  -2   0  -7 24175.4 755.745   3
   2   0   7 23778.9 747.540   4
  -2   0  -8 83021.5 1518.70   3
   2   0   8 81169.9 1432.93   4
  -2   0  -9 109490. 1519.19   2
   2   0   9 111019. 1731.02   4
   2   0   9 107784. 1828.11   3
   2   0  10 71758.8 1585.62   3
  -2   0 -10 66324.6 1255.49   2
   2   0  10 69478.4 1421.03   4
  -2   0 -11 70564.2 1378.11   2
   2   0  11 67804.3 1651.98   3
   2   0  12 31172.0 1032.53   4
   2   0  12 28567.1 1136.22   3
  -2   0 -12 29392.8 949.834   2
  -2   0 -13 50064.9 1306.33   2
   2   0  13 40945.6 1409.85   3
   2   0  14 683.658 306.452   3
  -2   0 -14 813.891 212.029   2
  -2   0 -15 2714.08 372.872   2
   2   1 -14 5480.83 572.021   2
   2   1 -13 52.9514 219.018   2
  -2  -1  12 2018.12 310.059   3
   2   1 -12 2540.46 354.606   2
  -2  -1  11 89907.9 1708.21   3
   2   1 -11 81397.3 1706.53   2
  -2  -1  10 186836. 2302.78   3
   2   1 -10 191244. 2438.92   2
   2   1  -9 103645. 1702.96   2
   2   1  -9 102226. 1552.09   1
  -2  -1   9 103474. 1596.15   3
   2   1  -8 582.970 143.166   1
   2   1  -8 743.544 164.116   2
   2   1  -7 23974.6 721.811   1
   2   1  -7 24750.7 735.927   2
  -2  -1   7 23852.1 675.146   3
  -2  -1   7 24934.1 488.071   4
   2   1  -6 228253. 2158.69   1
   2   1  -6 224918. 2103.53   2
   2   1  -6 221263. 1361.37   4
   2   1  -5 161196. 1122.89   4
  -2  -1   5 153337. 1626.48   2
   2   1  -5 155804. 1716.11   1
  -2  -1   5 159453. 1412.10   3
  -2  -1   4 295862. 1664.17   3
   2   1  -4 293387. 1505.09   4
   2   1  -4 299399. 2290.03   1
   2   1  -2 60163.5 724.422   4
  -2  -1   2 61781.3 508.230   3
  -2  -1   2 60268.1 490.358   3
  -2  -1   2 58641.2 891.200   2
  -2  -1   1 220622. 1674.83   2
   2   1  -1 221945. 1763.10   1
   2   1  -1 219596. 1470.55   4
  -2  -1   0 236774. 1714.15   2
   2   1   0 235303. 1701.21   1
   2   1   0 241264. 1648.79   4
   2   1   2 151210. 1213.71   1
  -2  -1  -2 159685. 1398.55   2
  -2  -1  -2 160919. 1025.55   3
   2   1   2 154816. 1468.59   4
  -2  -1  -3 9403.95 300.051   3
  -2  -1  -3 9823.23 349.540   2
   2   1   3 10145.2 408.284   4
   2   1   3 9999.47 299.982   1
  -2  -1  -4 28980.2 607.262   3
   2   1   4 30185.0 713.793   4
  -2  -1  -6 552551. 2914.95   2
   2   1   6 568356. 3269.43   3
  -2  -1  -7 204567. 958.594   1
   2   1   7 201801. 2074.73   4
   2   1   7 200017. 2126.48   3
   2   1   8 748.438 161.289   3
  -2  -1  -8 735.539 62.8016   1
  -2  -1  -8 768.454 144.902   2
   2   1   8 934.996 168.530   4
  -2  -1  -9 31412.2 816.170   2
   2   1   9 31444.7 886.371   4
   2   1   9 31048.9 959.632   3
   2   1  10 51359.1 1320.57   3
  -2  -1 -10 52934.3 1117.59   2
   2   1  10 53105.6 1198.92   4
  -2  -1 -11 6111.41 416.218   2
   2   1  11 6760.51 453.016   4
   2   1  11 5647.08 484.128   3
  -2  -1 -12 3760.39 356.645   2
   2   1  12 3542.21 372.205   4
   2   1  12 4069.35 435.786   3
   2   1  13 56665.6 1618.68   3
  -2  -1 -13 57834.3 1382.49   2
   2   1  14 1628.06 335.808   3
  -2  -1 -14 1263.93 264.474   2
   2   1  15 6593.87 654.053   3
  -2  -1 -15 6613.42 539.622   2
   2   2 -12 9858.56 642.754   2
  -2  -2  11 1995.56 292.561   3
   2   2 -11 1436.69 268.720   2
   2   2 -10 27024.1 925.537   2
  -2  -2  10 28207.3 945.080   3
  -2  -2   9 380265. 3151.65   3
   2   2  -9 385250. 3280.95   2
  -2  -2   8 58325.0 1135.64   3
   2   2  -8 59407.8 1136.58   1
  -2  -2   7 102173. 1400.12   3
   2   2  -7 94577.6 1455.54   2
  -2  -2   7 99765.8 1104.89   4
   2   2  -7 96722.0 1408.18   1
   2   2  -6 511734. 3177.91   1
   2   2  -6 508405. 2360.94   4
  -2  -2   5 36321.5 785.558   2
   2   2  -5 35908.5 609.183   4
   2   2  -5 37520.9 839.876   1
  -2  -2   5 35236.6 683.114   3
   2   2  -4 2327.88 154.288   4
  -2  -2   4 2639.23 208.003   2
  -2  -2   4 2278.59 159.132   3
   2   2  -4 2311.29 209.421   1
  -2  -2   1 48199.8 764.613   2
   2   2  -1 49475.3 726.029   4
   2   2   0 76572.2 1006.88   1
   2   2   0 75347.9 925.261   4
   2   2   1 307071. 1903.58   1
   2   2   1 311260. 1954.89   4
   2   2   4 124913. 1418.47   4
  -2  -2  -4 139001. 1097.95   1
  -2  -2  -4 137871. 1309.80   2
   2   2   4 130096. 1221.43   3
  -2  -2  -5 111128. 1210.22   2
   2   2   5 111875. 1285.40   3
  -2  -2  -6 42675.8 800.295   2
   2   2   6 43563.7 912.681   4
  -2  -2  -6 42361.3 552.018   1
  -2  -2  -7 224487. 1934.90   2
   2   2   7 223774. 2175.55   4
  -2  -2  -7 233511. 1225.57   1
   2   2   7 233813. 2236.60   3
   2   2   8 138.666 107.856   3
  -2  -2  -8 60.7847 82.7668   2
  -2  -2  -8 276.395 55.3769   1
   2   2   8 193.215 100.248   4
  -2  -2  -9 404889. 1634.67   1
   2   2   9 404106. 3362.79   3
   2   2  10 40286.4 1131.99   3
  -2  -2 -10 38819.6 954.917   2
   2   2  10 41511.2 1033.74   4
   2   2  11 9930.52 609.808   3
  -2  -2 -11 10510.9 534.511   2
   2   2  11 9397.73 521.673   4
   2   2  12 4289.07 437.083   3
  -2  -2 -12 4642.16 386.986   2
   2   2  12 5290.06 414.159   4
  -2  -2 -13 194713. 2504.87   2
   2   2  13 194011. 2946.29   3
   2   2  14 48805.8 1580.44   3
  -2  -2 -14 48352.6 1302.79   2
   2   2  15 8475.97 706.743   3
  -2  -2 -15 8721.61 595.506   2
  -2  -3  10 63544.0 1420.48   3
   2   3 -10 66762.1 1470.53   2
  -2  -3   9 1940.22 255.125   3
   2   3  -9 2224.08 284.850   2
   2   3  -8 6643.03 415.624   2
  -2  -3   8 6604.97 406.136   3
  -2  -3   7 361918. 2346.75   4
   2   3  -7 367172. 2726.11   1
  -2  -3   6 504483. 3071.80   2
   2   3  -6 499992. 3110.64   1
   2   3  -6 499082. 2632.30   4
  -2  -3   5 4476.75 289.720   2
   2   3  -5 3825.23 277.697   1
   2   3  -5 4499.01 250.209   4
  -2  -3   5 5150.66 283.466   3
   2   3  -4 34826.4 782.764   1
  -2  -3   4 34998.5 723.207   2
   2   3  -4 35967.9 656.496   4
   2   3  -3 4014.69 202.556   3
   2   3  -3 3696.43 259.381   1
  -2  -3   3 3966.29 237.847   2
   2   3  -3 3860.39 218.448   4
   2   3  -2 20973.2 386.619   3
  -2  -3   2 20419.1 507.462   2
   2   3  -2 20648.4 484.185   4
   2   3  -2 20137.9 562.268   1
  -2  -3   1 29070.6 372.340   3
  -2  -3   1 27078.6 568.093   2
   2   3  -1 29244.8 371.156   3
   2   3  -1 28932.9 575.748   4
   2   3  -1 28928.8 654.284   1
   2   3   0 27223.8 295.920   3
   2   3   0 25931.0 601.480   1
  -2  -3   0 27321.9 294.436   3
  -2  -3   0 25429.5 539.705   2
   2   3   0 26636.8 569.365   4
  -2  -3  -1 13370.9 223.831   3
   2   3   1 13496.6 225.609   3
  -2  -3  -1 14755.3 442.392   1
  -2  -3  -1 13571.2 388.130   2
   2   3   1 13063.1 413.113   4
   2   3   5 25242.6 672.610   4
  -2  -3  -5 26555.7 508.206   1
   2   3   5 25721.6 597.074   3
  -2  -3  -5 25817.9 577.817   2
   2   3   6 377676. 2567.54   3
  -2  -3  -6 365607. 2285.47   2
  -2  -3  -7 80437.2 1119.89   2
   2   3   7 79184.6 1253.55   4
  -2  -3  -7 80279.8 828.724   1
  -2  -3  -8 9672.88 290.581   1
  -2  -3  -8 9111.11 408.828   2
   2   3   8 8160.65 446.531   3
   2   3   8 8099.17 417.756   4
   2   3   9 159129. 2084.73   3
   2   3   9 158128. 1875.03   4
  -2  -3  -9 154729. 1145.80   1
   2   3  11 231694. 2850.19   3
  -2  -3 -11 223500. 2381.84   2
   2   3  11 229914. 2411.24   4
   2   3  12 1474.46 284.096   3
  -2  -3 -12 1566.47 232.349   2
   2   3  12 1608.70 243.796   4
  -2  -3 -13 27527.1 943.611   2
   2   3  13 27829.7 1103.23   3
   2   3  14 45140.7 1481.10   3
  -2  -3 -14 42036.9 1226.04   2
  -2  -3 -15 26069.5 1000.89   2
   2   3  15 27289.7 1213.88   3
  -2  -3 -16 2964.34 382.885   2
  -2  -4   9 62616.5 1376.63   3
  -2  -4   8 18422.3 665.811   2
  -2  -4   8 18979.6 715.031   3
  -2  -4   7 5184.38 319.013   4
  -2  -4   7 4916.64 345.604   3
  -2  -4   7 5732.22 360.615   2
  -2  -4   6 35558.1 814.023   1
  -2  -4   6 39084.4 873.587   2
  -2  -4   6 38358.1 855.869   3
   2   4  -6 36760.5 791.729   4
   2   4  -5 255102. 2118.04   3
  -2  -4   5 237917. 2063.31   1
  -2  -4   5 235360. 2008.45   2
   2   4  -5 249038. 1984.96   4
   2   4  -4 327765. 2231.82   3
   2   4  -4 323979. 2168.97   4
  -2  -4   3 51703.2 837.276   2
  -2  -4   3 50470.1 924.312   1
   2   4  -3 49704.4 836.741   4
  -2  -4   2-15.1389 65.5255   1
   2   4  -2 51.9980 55.5461   3
  -2  -4   2 63.5016 57.4470   2
   2   4  -2 109.897 63.6424   4
   2   4  -1 98031.4 1146.49   4
  -2  -4   1 101958. 1079.88   2
   2   4  -1 101040. 876.408   3
  -2  -4   1 101371. 1234.71   1
  -2  -4   0 670329. 3144.01   1
  -2  -4  -1 17018.8 317.828   3
   2   4   1 17755.2 331.208   3
  -2  -4  -1 16599.7 488.577   1
   2   4   1 17497.6 491.993   4
  -2  -4  -1 17026.0 416.879   2
  -2  -4  -2 807.879 121.010   1
   2   4   2 627.025 78.5111   3
   2   4   2 742.977 119.359   4
  -2  -4  -2 580.614 99.2154   2
   2   4   3 9105.53 290.239   3
   2   4   3 9457.06 388.725   4
  -2  -4  -3 9024.78 340.199   1
  -2  -4  -3 8996.16 315.160   2
   2   4   4 148949. 1301.52   3
  -2  -4  -4 152391. 1354.21   1
   2   4   4 150249. 1580.79   4
  -2  -4  -4 150700. 1297.03   2
  -2  -4  -5 93972.1 1076.62   2
   2   4   5 92673.7 1142.38   3
   2   4   5 92516.0 1266.52   4
  -2  -4  -5 94514.7 1026.49   1
  -2  -4  -7 493647. 2763.26   2
   2   4   7 508321. 3124.52   4
   2   4   8 78623.2 1355.98   3
   2   4   8 76112.0 1254.10   4
  -2  -4  -8 79243.0 914.344   1
   2   4   9 90606.5 1557.24   3
  -2  -4  -9 92937.6 1002.49   1
  -2  -4  -9 93716.5 1351.45   2
   2   4   9 90578.4 1424.92   4
   2   4  10 256209. 2454.20   4
  -2  -4 -10 260441. 1687.20   1
   2   4  11 66320.7 1505.86   3
  -2  -4 -11 69582.7 1325.68   2
   2   4  11 66255.8 1286.30   4
   2   4  12 162990. 2505.58   3
  -2  -4 -12 161563. 2133.96   2
  -2  -4 -13 50.0427 138.658   2
   2   4  13 299.559 204.565   3
   2   4  14 1394.10 298.766   3
  -2  -4 -14 1185.69 241.800   2
  -2  -4 -15 7103.16 527.759   2
   2   4  15 7368.11 655.213   3
   2   4  16 36176.3 1436.47   3
  -2  -4 -16 35782.8 1225.74   2
  -2  -5   8 133270. 1963.78   3
  -2  -5   7 56582.7 1177.51   3
  -2  -5   7 54064.5 1038.88   1
  -2  -5   6 22.0585 91.7355   1
   2   5  -6 29.5521 103.943   3
   2   5  -5 1213.96 176.651   3
  -2  -5   5 1399.24 179.894   2
  -2  -5   5 1137.00 166.566   1
   2   5  -5 1042.94 153.631   4
  -2  -5   4 65564.3 1076.44   1
   2   5  -4 69296.2 1102.89   3
  -2  -5   4 66048.3 999.190   2
   2   5  -4 65600.3 1075.64   4
   2   5  -3 113682. 1369.94   4
   2   5  -3 116661. 1318.64   3
  -2  -5   3 111892. 1384.63   1
  -2  -5   3 119205. 1270.80   2
   2   5  -2 7461.38 312.065   3
  -2  -5   2 7107.75 347.293   1
  -2  -5   2 7119.97 296.329   2
   2   5  -2 6804.28 329.344   4
   2   5  -1 21784.5 580.174   4
   2   5  -1 22968.0 494.077   3
  -2  -5   1 22318.5 603.129   1
  -2  -5   1 21830.1 489.151   2
   2   5   0 31625.9 546.489   3
  -2  -5   0 30413.6 697.534   1
  -2  -5   0 30118.8 549.564   2
   2   5   0 29739.8 674.671   4
  -2  -5  -1 2493.21 202.343   1
   2   5   1 2122.10 140.658   3
  -2  -5  -1 2491.28 160.069   2
   2   5   1 2195.96 188.759   4
  -2  -5  -2 96.0878 75.2633   1
  -2  -5  -2-51.7806 60.1039   2
   2   5   2 86.3344 49.5460   3
   2   5   2 142.694 89.6778   4
   2   5   4 275910. 1837.24   3
   2   5   4 275452. 2166.61   4
  -2  -5  -4 274053. 1920.23   1
  -2  -5  -4 269914. 1686.44   2
  -2  -5  -5 1992.60 165.777   2
   2   5   5 1940.23 194.728   4
  -2  -5  -5 1656.47 158.828   1
  -2  -5  -6 123331. 1236.95   1
  -2  -5  -6 122363. 1272.79   2
   2   5   6 120513. 1493.79   4
   2   5   7 39696.3 902.795   3
  -2  -5  -7 37857.5 752.158   2
  -2  -5  -7 38774.8 696.502   1
   2   5   8 196089. 2142.45   3
  -2  -5  -8 203939. 1846.94   2
   2   5   8 198019. 2001.85   4
  -2  -5  -8 206491. 1617.10   1
   2   5   9 72317.6 1397.92   3
  -2  -5  -9 73019.3 963.429   1
  -2  -5  -9 73529.6 1188.37   2
   2   5   9 72698.9 1245.91   4
  -2  -5 -10 621509. 2859.07   1
  -2  -5 -10 611587. 3642.33   2
  -2  -5 -11 106398. 1617.66   2
  -2  -5 -11 109784. 1235.53   1
   2   5  11 110809. 1642.56   4
   2   5  12 638270. 3995.08   4
  -2  -5 -12 626271. 4190.84   2
   2   5  13 11126.4 690.014   3
  -2  -5 -13 12559.3 632.038   2
   2   5  14 1179.58 284.083   3
  -2  -5 -14 1419.50 250.709   2
   2   5  15 28318.7 1221.36   3
  -2  -5 -15 28586.8 1034.89   2
  -2  -5 -16 34.6688 192.883   2
   2   5  16 168.420 217.261   3
   2   6  -7 37794.2 1078.72   3
  -2  -6   7 34996.9 952.882   4
   2   6  -6 7297.48 456.364   3
  -2  -6   6 7623.78 430.853   4
  -2  -6   6 7275.00 391.551   1
   2   6  -5 7620.54 437.972   3
  -2  -6   5 7072.43 379.729   1
   2   6  -5 7091.04 405.772   4
  -2  -6   4 3561.45 273.024   1
   2   6  -4 3224.99 265.957   3
  -2  -6   4 3388.19 232.230   2
   2   6  -4 3301.23 278.455   4
  -2  -6   3 13526.4 424.588   2
  -2  -6   3 13718.1 503.772   1
   2   6  -3 12849.2 499.099   4
   2   6  -2 115312. 1355.44   3
  -2  -6   2 113994. 1424.18   1
  -2  -6   2 104607. 1093.00   2
   2   6  -2 105039. 1380.53   4
   2   6  -1 83624.6 1081.22   3
  -2  -6   1 85606.5 1232.54   1
   2   6  -1 84858.1 1219.62   4
  -2  -6   1 85789.4 927.409   2
   2   6   0 1399.20 169.940   4
   2   6   0 1029.56 126.914   3
  -2  -6   0 1169.19 154.409   1
  -2  -6   0 977.051 100.613   2
   2   6   1 107776. 1135.96   3
  -2  -6  -1 102402. 1310.81   1
   2   6   1 105827. 1347.15   4
  -2  -6  -1 104188. 931.869   2
   2   6   2 6020.93 270.494   3
   2   6   2 5308.50 306.769   4
  -2  -6  -2 5828.42 315.907   1
  -2  -6  -2 6161.47 229.691   2
  -2  -6  -3 52.7063 48.3184   2
  -2  -6  -3 37.0766 60.3293   1
   2   6   3 8.46471 56.7888   3
   2   6   3 40.0938 69.7934   4
  -2  -6  -4 379407. 1928.67   2
  -2  -6  -4 375979. 2389.25   1
   2   6   4 373769. 2574.24   4
  -2  -6  -6 42231.5 735.349   2
   2   6   6 42878.6 898.231   4
   2   6   7 33242.8 833.145   3
  -2  -6  -7 32358.6 692.405   2
  -2  -6  -7 31472.1 674.068   1
   2   6   8 165690. 1984.48   3
  -2  -6  -8 164768. 1662.04   2
   2   6   8 169614. 1848.06   4
  -2  -6  -8 164485. 1560.91   1
  -2  -6  -9 32921.9 704.434   1
   2   6   9 34612.5 968.134   3
  -2  -6  -9 35704.2 819.436   2
   2   6   9 33550.5 843.654   4
   2   6  10 60186.6 1369.13   3
  -2  -6 -10 59389.0 961.803   1
  -2  -6 -10 59110.5 1119.61   2
   2   6  10 59832.1 1147.24   4
   2   6  11 192.998 135.959   3
  -2  -6 -11 355.369 122.105   1
   2   6  11 596.746 150.921   4
   2   6  12 248834. 2438.35   4
  -2  -6 -12 232332. 2541.90   2
   2   6  13 2265.55 332.706   3
  -2  -6 -13 1808.50 263.425   2
   2   6  14 20702.9 994.600   3
  -2  -6 -14 23643.9 900.744   2
   2   6  15 247.614 212.807   3
  -2  -6 -15-92.1098 154.028   2
   2   6  16 28758.9 1286.90   3
  -2  -6 -16 29500.6 1101.89   2
  -2  -7   7 267.189 141.744   4
  -2  -7   6 3383.74 322.587   4
   2   7  -5 29235.1 901.697   3
   2   7  -5 29845.9 890.105   4
   2   7  -4 879.717 182.766   3
  -2  -7   4 1147.16 181.295   1
   2   7  -4 1089.83 187.069   4
  -2  -7   3 129909. 1576.29   1
   2   7  -3 127320. 1648.39   3
   2   7  -3 125852. 1689.52   4
  -2  -7   2 151230. 1680.67   1
   2   7  -2 156676. 1831.52   4
   2   7  -1 75600.6 1139.64   3
  -2  -7   1 74702.3 1176.75   1
   2   7  -1 74117.5 1221.47   4
  -2  -7   1 74473.7 779.989   2
   2   7   0 7494.09 350.514   3
  -2  -7   0 8251.52 243.068   2
  -2  -7   0 7701.80 379.168   1
   2   7   1 30124.4 688.258   3
  -2  -7  -1 31332.9 461.201   2
  -2  -7  -1 30026.5 732.929   1
   2   7   2 167089. 1585.07   3
  -2  -7  -2 166048. 1741.73   1
   2   7   2 168495. 1794.07   4
   2   7   3 4836.18 275.542   3
  -2  -7  -3 4929.28 199.929   2
  -2  -7  -3 4546.25 290.802   1
   2   7   3 4943.65 312.289   4
  -2  -7  -4 16604.7 392.373   2
   2   7   4 14469.2 491.881   3
   2   7   4 15146.4 539.885   4
  -2  -7  -4 15788.6 524.282   1
  -2  -7  -5 264737. 1657.68   2
   2   7   5 256871. 2126.75   3
  -2  -7  -5 260833. 2074.47   1
   2   7   5 258673. 2232.29   4
  -2  -7  -6 208055. 1594.98   2
  -2  -7  -6 205721. 1846.38   1
  -2  -7  -7 1312.74 167.008   1
   2   7   7 1122.45 176.333   3
  -2  -7  -7 1388.89 153.971   2
   2   7   7 1222.04 170.624   4
   2   7   8 597.293 160.363   3
  -2  -7  -8 582.821 112.706   2
  -2  -7  -8 706.824 123.480   1
   2   7   8 792.493 153.188   4
  -2  -7  -9 25387.3 661.208   1
   2   7   9 25636.0 844.484   3
  -2  -7  -9 25294.8 692.333   2
   2   7   9 25514.7 735.607   4
   2   7  10 18796.5 768.267   3
  -2  -7 -10 19779.7 647.083   2
  -2  -7 -10 20016.9 601.305   1
   2   7  10 20342.1 665.240   4
   2   7  11 20621.1 848.142   3
  -2  -7 -11 19165.0 593.383   1
   2   7  11 19763.3 666.058   4
  -2  -7 -12 13111.3 514.998   1
   2   7  12 13401.3 727.716   3
   2   7  12 13934.3 573.493   4
  -2  -7 -12 13970.3 619.156   2
   2   7  13 36085.9 1250.03   3
  -2  -7 -13 36956.0 1054.02   2
   2   7  14 1178.73 290.871   3
  -2  -7 -14 762.888 218.891   2
   2   7  15 12698.8 826.258   3
  -2  -7 -15 13614.4 710.266   2
   2   7  16 7152.02 664.212   3
  -2  -7 -16 7610.42 571.757   2
  -2  -8   7 32013.1 1039.65   4
  -2  -8   6 22255.4 840.872   4
  -2  -8   5 49843.9 1019.95   1
  -2  -8   5 51311.2 1225.58   4
   2   8  -4 49944.0 1168.65   4
   2   8  -4 48486.5 1156.02   3
  -2  -8   4 48317.9 992.405   1
  -2  -8   3 49475.0 1015.34   1
   2   8  -3 50391.0 1158.84   4
   2   8  -2 330591. 2715.93   3
   2   8  -2 326433. 2838.18   4
   2   8  -1 146752. 1728.34   3
   2   8  -1 144106. 1838.63   4
  -2  -8   0 372.163 97.3942   1
   2   8   0 103.424 91.1732   3
   2   8   0 167.066 109.032   4
   2   8   1 52288.6 982.703   3
  -2  -8  -1 51247.8 998.282   1
   2   8   1 50687.1 1043.47   4
  -2  -8  -3 30156.6 446.826   2
  -2  -8  -3 30564.2 767.549   1
   2   8   3 29576.5 738.711   3
   2   8   3 30933.3 802.934   4
  -2  -8  -4 411.369 114.063   1
   2   8   4 667.074 138.341   3
  -2  -8  -4 724.631 88.6088   2
   2   8   4 614.133 133.229   4
  -2  -8  -5 33121.3 571.299   2
   2   8   5 32963.1 813.557   4
  -2  -8  -5 31445.3 775.188   1
   2   8   6 5.55008 70.2107   4
   2   8   6 221.449 113.224   3
  -2  -8  -6 125.536 102.437   1
  -2  -8  -6 195.800 74.2643   2
  -2  -8  -7 51847.8 979.378   1
  -2  -8  -7 49238.6 819.610   2
   2   8   7 51719.2 1040.73   4
   2   8   8 23981.4 800.811   3
  -2  -8  -8 23910.5 618.080   2
  -2  -8  -8 24716.1 692.681   1
   2   8   8 24032.1 715.123   4
  -2  -8  -9 127380. 1565.85   1
   2   8   9 129405. 1658.92   4
   2   8   9 130316. 1948.97   3
  -2  -8  -9 126898. 1529.95   2
   2   8  10 722.004 185.959   3
  -2  -8 -10 894.269 160.433   1
  -2  -8 -10 1425.02 188.997   2
   2   8  10 1126.33 183.531   4
  -2  -8 -11 36080.9 927.403   2
  -2  -8 -11 35323.5 863.653   1
   2   8  11 36657.0 1144.80   3
   2   8  12 264.475 179.549   3
  -2  -8 -12 231.284 128.682   2
   2   8  12 239.797 139.026   4
  -2  -8 -12 296.975 125.498   1
   2   8  13 100470. 2072.67   3
  -2  -8 -13 102479. 1732.04   2
  -2  -8 -13 102798. 1578.79   1
  -2  -8 -14 181976. 2411.83   2
   2   8  14 165532. 2800.40   3
  -2  -8 -15 80334.5 1688.16   2
   2   8  15 85302.1 2102.32   3
   2   8  16 3362.84 458.425   3
  -2  -8 -16 3410.03 406.125   2
  -2  -9   7 1798.50 307.400   4
  -2  -9   6 3692.33 392.713   4
  -2  -9   5 93482.3 1794.66   4
  -2  -9   4 76247.4 1303.46   1
   2   9  -4 80443.9 1616.96   4
   2   9  -3 62930.2 1342.26   3
   2   9  -3 62045.6 1355.24   4
   2   9  -2 123038. 1894.97   4
   2   9  -2 124788. 1807.53   3
  -2  -9   1 435946. 3050.21   1
   2   9  -1 437903. 3397.95   4
   2   9   0 293383. 2567.15   3
  -2  -9   0 292582. 2494.16   1
   2   9   0 290250. 2721.41   4
   2   9   1 311928. 2631.31   3
   2   9   1 319414. 2798.00   4
  -2  -9  -2 379063. 2813.26   1
   2   9   2 375963. 2971.47   4
  -2  -9  -3 101971. 1451.82   1
   2   9   3 105245. 1554.79   4
  -2  -9  -4 87163.0 800.655   2
  -2  -9  -4 88542.1 1369.03   1
   2   9   4 90319.5 1423.65   4
  -2  -9  -5 94445.5 934.812   2
   2   9   5 91422.6 1445.24   3
   2   9   5 90071.9 1403.06   4
  -2  -9  -5 89741.6 1366.46   1
  -2  -9  -6 165462. 1354.29   2
   2   9   6 161050. 1976.16   3
   2   9   6 161363. 1862.41   4
  -2  -9  -6 161120. 1824.48   1
   2   9   7 5445.68 384.935   3
  -2  -9  -7 5404.31 273.797   2
   2   9   7 4877.96 331.855   4
  -2  -9  -7 5039.70 335.906   1
   2   9   8 32352.2 968.678   3
  -2  -9  -8 31859.6 707.962   2
   2   9   8 30781.8 820.273   4
  -2  -9  -8 29586.8 805.308   1
  -2  -9  -9 37174.9 902.501   1
   2   9   9 38862.1 1106.81   3
  -2  -9  -9 39868.5 853.479   2
   2   9   9 37184.4 898.779   4
  -2  -9 -10 2959.77 273.716   1
   2   9  10 3435.18 356.085   3
  -2  -9 -10 3473.56 279.230   2
   2   9  10 3247.91 287.620   4
  -2  -9 -11 179174. 2049.40   1
  -2  -9 -11 178609. 2026.24   2
   2   9  11 181392. 2012.85   4
  -2  -9 -12 22457.5 746.490   1
   2   9  12 23586.8 982.624   3
   2   9  12 22800.9 730.231   4
  -2  -9 -12 23124.3 777.366   2
   2   9  13 23820.3 1040.74   3
  -2  -9 -13 26116.4 833.518   1
  -2  -9 -13 25671.6 863.870   2
   2   9  14 70227.7 1853.37   3
  -2  -9 -14 68564.2 1460.42   2
   2   9  15 133976. 2626.79   3
  -2  -9 -15 133205. 2148.83   2
   2   9  16 60675.3 1854.72   3
  -2  -9 -16 62845.0 1557.91   2
  -2 -10   6 2146.85 327.558   4
  -2 -10   5 46467.7 1345.57   4
  -2 -10   4 70114.6 1580.36   4
  -2 -10   3 14363.1 590.532   1
   2  10  -3 13244.6 677.124   4
  -2 -10   2 66363.3 1237.72   1
   2  10  -2 63848.7 1437.90   4
  -2 -10   1 866.171 177.571   1
   2  10  -1 836.857 206.310   3
   2  10  -1 1016.18 209.437   4
   2  10   0 418752. 3355.89   3
  -2 -10   0 418414. 3076.78   1
   2  10   1 79661.9 1482.84   4
   2  10   1 81380.7 1435.59   3
  -2 -10  -1 82284.0 1376.17   1
  -2 -10  -2 208114. 2195.05   1
   2  10   2 209785. 2349.07   4
  -2 -10  -3 95334.6 1478.26   1
   2  10   3 91822.1 1539.86   4
   2  10   4 48901.9 1108.50   3
   2  10   4 47411.2 1093.76   4
  -2 -10  -4 48666.7 1054.27   1
   2  10   5 15886.0 652.504   3
  -2 -10  -5 15262.8 597.160   1
   2  10   5 14495.7 600.399   4
  -2 -10  -6 227162. 1570.25   2
   2  10   6 225782. 2488.75   3
   2  10   6 221494. 2279.58   4
  -2 -10  -6 225899. 2254.73   1
  -2 -10  -7 316096. 2033.28   2
   2  10   7 316488. 2716.92   4
  -2 -10  -7 315193. 2718.36   1
  -2 -10  -8 276818. 2052.61   2
   2  10   8 276696. 2887.99   3
   2  10   8 270932. 2510.69   4
  -2 -10  -8 274606. 2567.34   1
   2  10   9 36873.5 1102.33   3
  -2 -10  -9 36693.1 808.424   2
   2  10   9 35907.5 911.701   4
  -2 -10 -10 110015. 1658.24   1
  -2 -10 -10 109195. 1487.62   2
   2  10  10 114177. 1610.39   4
  -2 -10 -11 55388.7 1207.81   1
  -2 -10 -11 60018.1 1170.43   2
   2  10  11 57154.6 1503.64   3
   2  10  11 59571.2 1176.33   4
   2  10  12 117917. 2220.51   3
  -2 -10 -12 115269. 1776.88   1
   2  10  13 21955.6 1009.32   3
  -2 -10 -13 22528.1 816.152   1
  -2 -10 -13 20585.3 764.073   2
   2  10  14 44254.4 1480.93   3
  -2 -10 -14 47243.5 1218.91   2
  -2 -10 -14 44458.7 1178.69   1
   2  10  15 493.782 246.296   3
  -2 -10 -15 1163.48 271.838   2
   2  10  16 46147.5 1632.80   3
  -2 -10 -16 50041.1 1387.38   2
  -2 -11   6 6097.03 580.432   4
  -2 -11   5 3585.50 444.279   4
  -2 -11   4 23529.1 999.058   4
   2  11  -3 64091.1 1584.37   4
  -2 -11   2 262.023 121.941   1
   2  11  -2 104.738 127.557   4
   2  11  -1 70092.4 1564.13   4
  -2 -11   1 70156.2 1327.51   1
  -2 -11   0 523.509 164.462   1
   2  11   0 306.993 174.280   3
   2  11   0 302.520 172.507   4
   2  11   1 2123.57 275.863   3
   2  11   1 1567.17 245.432   4
  -2 -11  -1 1851.10 239.116   1
  -2 -11  -2-112.402 119.123   1
   2  11   2-215.905 153.916   3
   2  11   2 46.7508 136.081   4
   2  11   3 227654. 2551.50   3
  -2 -11  -3 219380. 2337.19   1
   2  11   3 221536. 2516.61   4
   2  11   4 301967. 2933.17   3
   2  11   4 295032. 2856.51   4
   2  11   5 108725. 1770.09   3
  -2 -11  -5 110430. 1662.00   1
   2  11   6 21037.1 801.665   3
   2  11   6 22204.6 765.274   4
  -2 -11  -6 21123.2 746.325   1
   2  11   7 33962.5 1054.08   3
   2  11   7 37129.7 982.106   4
  -2 -11  -7 36511.1 985.582   1
  -2 -11  -8 199924. 2313.05   1
   2  11   8 204263. 2248.58   4
  -2 -11  -9 133645. 1894.68   1
   2  11   9 134856. 2179.95   3
  -2 -11  -9 132265. 1497.14   2
  -2 -11 -10 1629.44 246.233   1
  -2 -11 -10 1396.10 191.641   2
   2  11  10 1188.83 260.319   3
   2  11  10 1578.28 221.742   4
  -2 -11 -11 41879.3 1117.16   1
   2  11  11 44073.8 1360.27   3
  -2 -11 -11 42071.4 964.292   2
   2  11  11 43568.5 1034.50   4
  -2 -11 -12 91133.0 1654.99   1
  -2 -11 -12 88751.6 1484.13   2
   2  11  12 93622.4 1517.74   4
   2  11  13 62277.2 1736.03   3
  -2 -11 -13 62758.3 1402.91   1
  -2 -11 -13 61509.0 1310.12   2
   2  11  14 5921.75 592.220   3
  -2 -11 -14 5477.29 461.477   1
  -2 -11 -14 6076.33 447.186   2
   2  11  15 99037.4 2329.29   3
  -2 -11 -15 99446.2 1842.12   2
   2  11  16 149.170 307.722   3
  -2 -11 -16 325.689 230.484   2
  -2 -12   4 856.674 268.973   4
  -2 -12   3 474.057 226.115   4
  -2 -12   2-19.8000 129.385   1
   2  12  -2-16.3250 162.311   4
  -2 -12   1 24456.8 827.516   1
   2  12  -1 23936.1 967.182   4
   2  12   0 94108.3 1865.21   4
  -2 -12   0 90408.5 1576.91   1
  -2 -12  -1 284819. 2785.18   1
   2  12   1 294724. 3221.03   4
   2  12   2 37914.7 1124.58   3
   2  12   2 37478.5 1112.48   4
  -2 -12  -2 39104.6 1041.81   1
  -2 -12  -3 1181.17 218.497   1
   2  12   3 1586.95 243.299   3
   2  12   3 1323.81 233.459   4
   2  12   4 4359.11 388.743   3
   2  12   4 4585.83 387.020   4
  -2 -12  -4 4867.41 380.051   1
  -2 -12  -5 29997.1 923.052   1
   2  12   5 29892.8 999.985   3
   2  12   5 31057.1 967.045   4
   2  12   6 1949.50 285.353   3
   2  12   6 2326.55 275.730   4
  -2 -12  -6 2774.39 295.969   1
   2  12   7 7505.57 519.129   3
   2  12   7 7303.49 468.501   4
  -2 -12  -7 8066.02 499.519   1
  -2 -12  -8 6677.85 455.642   1
   2  12   8 7772.71 557.584   3
   2  12   8 7310.30 457.582   4
  -2 -12  -9 218053. 2536.85   1
   2  12   9 220160. 2935.36   3
  -2 -12 -10 91048.3 1689.28   1
   2  12  10 89394.3 1548.42   4
  -2 -12 -11 12987.1 653.410   1
   2  12  11 12193.1 733.911   3
   2  12  11 11644.6 563.204   4
  -2 -12 -12 9685.42 581.165   1
  -2 -12 -12 11190.1 534.293   2
   2  12  12 10554.5 705.131   3
   2  12  12 10583.3 534.336   4
   2  12  13 811.622 272.610   3
  -2 -12 -13 451.807 181.796   2
  -2 -12 -13 541.771 190.627   1
   2  12  14 13849.4 890.184   3
  -2 -12 -14 15494.4 781.421   1
  -2 -12 -14 16318.8 725.472   2
  -2 -12 -15 82489.5 1688.49   2
  -2 -12 -15 85175.9 1820.24   1
  -2 -12 -16 182642. 2617.78   2
  -2 -13   2 26761.3 1123.08   4
  -2 -13   1 430.198 181.821   1
   2  13  -1 368.493 216.638   4
   2  13   0 65962.5 1639.17   4
  -2 -13   0 64443.9 1401.62   1
   2  13   1 213511. 2896.23   4
  -2 -13  -1 199562. 2449.73   1
  -2 -13  -2 1290.82 243.645   1
   2  13   2 956.723 228.303   4
  -2 -13  -3 405.474 165.225   1
   2  13   3 497.505 206.584   3
   2  13   3 333.398 154.837   4
   2  13   4 250.633 179.561   3
  -2 -13  -4 316.172 165.687   1
   2  13   4 114.778 137.143   4
   2  13   5 28181.6 1021.91   3
  -2 -13  -5 28947.7 949.027   1
   2  13   5 28633.8 975.501   4
   2  13   6 46707.0 1330.05   3
  -2 -13  -6 43894.0 1170.77   1
   2  13   6 44222.2 1188.16   4
   2  13   7 154.208 149.823   4
   2  13   7 89.5971 145.754   3
  -2 -13  -7 78.5359 133.579   1
  -2 -13  -8 10798.3 598.373   1
   2  13   8 11870.9 695.401   3
   2  13   8 10643.5 579.971   4
  -2 -13  -9 36406.1 1091.50   1
   2  13   9 34204.3 1212.31   3
   2  13   9 36310.1 1044.98   4
  -2 -13 -10 4080.90 403.146   1
   2  13  10 4529.29 490.717   3
   2  13  10 4032.36 367.653   4
   2  13  11 32.3359 191.148   3
  -2 -13 -11-290.272 183.559   1
   2  13  11 87.6868 127.108   4
  -2 -13 -12 74577.3 1637.22   1
   2  13  12 75296.6 1935.02   3
   2  13  12 73593.5 1450.55   4
  -2 -13 -13 190397. 2667.98   1
   2  13  13 189336. 3126.39   3
   2  13  14 18308.5 1023.36   3
  -2 -13 -14 19822.5 901.613   1
   2  13  15 851.597 335.010   3
  -2 -13 -15 524.858 235.881   2
  -2 -13 -15 733.014 249.121   1
  -2 -14   0 1270.89 257.999   1
   2  14   0 1198.82 272.737   4
   2  14   1 23948.3 1020.68   4
  -2 -14  -1 23008.2 882.696   1
   2  14   2 25124.7 1033.90   4
  -2 -14  -2 23453.9 891.660   1
  -2 -14  -3 37796.1 1123.51   1
   2  14   3 38218.6 1234.62   4
  -2 -14  -4 6305.24 481.956   1
   2  14   4 6258.76 504.308   4
  -2 -14  -5 7117.38 516.429   1
   2  14   5 6876.72 565.613   3
   2  14   5 8397.60 566.526   4
   2  14   6 286.106 205.020   3
  -2 -14  -6 388.708 172.323   1
   2  14   6 244.385 135.112   4
  -2 -14  -7 4817.54 437.131   1
   2  14   7 4570.23 466.986   3
   2  14   7 4257.52 393.430   4
  -2 -14  -8 9641.53 595.074   1
   2  14   8 9426.10 573.779   4
  -2 -14  -9 17900.3 813.516   1
   2  14   9 18201.8 919.871   3
   2  14   9 18422.5 783.185   4
  -2 -14 -10 29438.8 1063.96   1
   2  14  10 28425.5 959.254   4
   2  14  10 30075.9 1203.84   3
  -2 -14 -11 28580.8 1047.42   1
   2  14  11 28073.0 1189.95   3
   2  14  11 29350.0 957.628   4
  -2 -14 -12 2697.23 359.010   1
   2  14  12 3689.16 490.874   3
   2  14  12 3033.81 333.711   4
   2  14  13 74126.2 2037.08   3
  -2 -14 -13 69155.3 1686.16   1
   2  14  14 39424.9 1525.46   3
  -2 -14 -14 41893.1 1358.41   1
  -2 -14 -15 1585.49 326.395   1
  -2 -15  -1 14484.0 754.514   1
  -2 -15  -2 2251.91 328.386   1
  -2 -15  -3 3190.29 384.341   1
   2  15   3 3455.89 431.322   4
  -2 -15  -4 23640.2 937.708   1
   2  15   4 24474.5 1044.77   4
  -2 -15  -5 2949.98 373.678   1
   2  15   5 3485.38 399.726   4
  -2 -15  -6 23987.1 958.866   1
   2  15   6 27168.9 1031.84   4
  -2 -15  -7 66663.7 1588.28   1
   2  15   7 63921.9 1741.22   3
   2  15   7 65436.4 1569.08   4
  -2 -15  -8 2297.38 347.727   1
   2  15   8 1711.61 337.275   3
   2  15   8 1760.84 307.047   4
  -2 -15  -9 9779.19 645.205   1
   2  15   9 9811.86 715.908   3
   2  15   9 9761.88 605.926   4
  -2 -15 -10 202230. 2851.80   1
   2  15  10 208501. 2677.97   4
  -2 -15 -11 67785.4 1672.81   1
   2  15  11 66500.7 1883.19   3
   2  15  11 68376.0 1525.61   4
  -2 -15 -12 161.249 180.295   1
   2  15  12 608.996 267.539   3
   2  15  12 377.800 173.597   4
   2  15  13 1699.13 396.140   3
   2  16   7 14567.1 799.926   4
   2  16   8 2307.55 352.502   4
   2  16   9 25120.3 1184.72   3
   2  16   9 24622.2 988.423   4
   2  16  10 8862.08 713.855   3
   2  16  10 9341.57 617.042   4
   2  16  11 4061.62 544.465   3
   2  16  11 4193.01 436.720   4
   2  16  12 35686.3 1476.65   3
   3 -15  -8 48139.2 1669.44   1
  -3  15   7 8852.15 778.178   3
   3 -15  -7 9801.95 758.386   1
  -3  15   6 16261.3 1020.42   3
   3 -15  -6 12996.1 843.872   1
   3 -15  -5 8565.72 694.485   4
   3 -15  -5 7458.86 642.714   1
   3 -15  -4 12424.0 846.624   4
   3 -15  -4 13109.3 824.475   1
   3 -15  -3 0.78227 266.818   4
  -3  14  11 24109.0 1227.72   3
  -3  14  10 16434.2 1002.32   3
   3 -14 -10 17452.0 1038.85   1
  -3  14   9 5088.69 599.804   3
   3 -14  -9 4175.93 531.199   1
  -3  14   8 586.412 272.126   3
   3 -14  -8 361.122 258.357   1
  -3  14   7 27594.3 1267.96   3
   3 -14  -7 28451.9 1223.20   1
  -3  14   6 199.950 208.051   3
   3 -14  -6 400.068 259.499   1
  -3  14   5 3978.92 513.491   3
   3 -14  -5 3665.41 465.080   4
   3 -14  -5 3718.63 470.690   1
  -3  14   4 499.040 302.684   3
   3 -14  -4-60.2911 202.289   1
   3 -14  -4 170.628 205.085   4
  -3  14   3 228.611 234.993   3
   3 -14  -3 402.956 238.857   1
   3 -14  -3 155.010 222.749   4
   3 -14  -2 26546.6 1217.75   4
  -3  14   2 27238.1 1295.20   3
  -3  14   1 41147.3 1585.67   3
   3 -14  -1 43301.8 1609.19   4
  -3  13  13 44803.8 1566.28   2
  -3  13  12 6297.52 630.784   3
   3 -13 -12 5609.36 636.658   1
  -3  13  12 4557.27 533.103   2
  -3  13  11 4204.92 533.117   3
   3 -13 -11 4288.71 536.995   1
  -3  13  11 3943.96 476.190   2
  -3  13  10 168873. 3066.60   3
   3 -13 -10 167401. 3040.50   1
  -3  13   9 146626. 2803.30   3
   3 -13  -9 154707. 2834.50   1
  -3  13   8 36735.4 1399.92   3
   3 -13  -8 36126.2 1345.86   1
  -3  13   7 27759.1 1214.79   3
   3 -13  -7 25409.4 1121.27   1
  -3  13   6-74.6759 202.174   3
   3 -13  -6 5.54963 172.402   1
   3 -13  -6-126.855 160.576   4
  -3  13   5 97214.8 2252.69   3
   3 -13  -5 95759.1 2015.72   4
   3 -13  -5 97681.4 2072.70   1
  -3  13   4 3144.12 455.554   3
   3 -13  -4 2945.16 394.788   4
   3 -13  -4 2922.66 373.671   1
  -3  13   3 23157.2 1113.06   3
   3 -13  -3 22977.2 971.671   1
   3 -13  -3 21991.1 1036.34   4
   3 -13  -2 2273.82 337.673   1
  -3  13   2 1642.44 355.166   3
   3 -13  -2 1357.82 311.545   4
  -3  13   1 7363.04 664.081   3
   3 -13  -1 6666.43 643.089   4
  -3  13   0 142.561 229.491   3
   3 -13   0 64.8371 193.208   4
   3 -13   1 11382.4 852.634   4
  -3  13  -1 8453.01 752.841   3
  -3  12  14 83941.7 2168.43   2
  -3  12  13 13621.5 903.777   3
  -3  12  13 12550.1 852.352   2
   3 -12 -13 13214.0 920.250   1
  -3  12  12 61767.0 1848.47   3
  -3  12  12 61144.8 1735.55   2
   3 -12 -12 62478.0 1903.37   1
  -3  12  11 24.2526 198.757   3
   3 -12 -11 601.913 309.576   1
  -3  12  11-97.1621 208.369   2
  -3  12  10 25715.2 1143.49   3
  -3  12  10 26136.0 1088.21   2
   3 -12 -10 24936.8 1146.80   1
  -3  12   9 105292. 2291.46   3
   3 -12  -9 100523. 2227.34   1
  -3  12   8 50073.4 1411.23   2
  -3  12   8 51840.9 1576.07   3
   3 -12  -8 51754.0 1560.45   1
  -3  12   7 1920.93 344.715   3
   3 -12  -7 1771.13 334.163   1
  -3  12   6 54712.5 1591.91   3
   3 -12  -6 50012.8 1290.57   4
   3 -12  -6 53032.2 1509.46   1
  -3  12   5 659.019 253.232   3
   3 -12  -5 794.972 223.142   4
   3 -12  -5 398.439 181.402   1
   3 -12  -4 2118.15 315.070   4
  -3  12   4 2158.15 357.422   3
   3 -12  -4 1999.02 310.615   1
  -3  12   3 919.838 273.167   3
   3 -12  -3 355.914 203.713   1
   3 -12  -3 662.998 243.950   4
  -3  12   2 24383.4 1114.13   3
   3 -12  -2 27086.7 1104.52   4
   3 -12  -2 26290.5 986.308   1
  -3  12   1 64602.0 1817.73   3
   3 -12  -1 60613.7 1462.77   1
   3 -12  -1 65950.3 1769.95   4
  -3  12   0 39293.1 1430.23   3
   3 -12   0 37138.5 1385.30   4
  -3  12  -1 47051.4 1609.61   3
   3 -12   1 45295.5 1605.32   4
  -3  12  -2 26840.1 1246.83   3
   3 -12   2 25251.8 1220.94   4
  -3  12  -3 89972.9 2309.27   3
   3 -12   3 92597.2 2391.36   4
  -3  11  14 26359.2 1231.26   3
  -3  11  14 25168.1 1189.34   2
  -3  11  13 31051.9 1307.69   3
  -3  11  13 29512.0 1247.26   2
   3 -11 -13 31624.6 1352.66   1
  -3  11  12 142507. 2681.95   3
  -3  11  12 142944. 2625.91   2
   3 -11 -12 150698. 2869.42   1
  -3  11  11 20964.5 1035.59   3
   3 -11 -11 21696.9 1071.51   1
  -3  11  11 20815.6 994.289   2
  -3  11  10 35324.2 1292.35   3
  -3  11  10 36325.5 1269.36   2
   3 -11 -10 34282.5 1293.19   1
  -3  11   9 19400.2 948.260   3
   3 -11  -9 18320.5 934.975   1
  -3  11   9 20063.2 916.193   2
  -3  11   8 425.840 164.357   3
  -3  11   8 980.006 267.711   2
   3 -11  -8 355.305 234.707   1
  -3  11   7 37796.5 1292.15   3
  -3  11   7 39204.4 1193.10   2
   3 -11  -7 38097.4 1259.88   1
  -3  11   6 1094.26 283.433   3
   3 -11  -6 1513.03 244.389   4
  -3  11   6 1341.36 245.995   2
   3 -11  -6 1751.42 313.412   1
  -3  11   5 80905.9 1845.21   3
   3 -11  -5 78429.1 1562.08   4
   3 -11  -5 80895.3 1752.50   1
  -3  11   5 80113.5 1575.05   2
  -3  11   4 45945.4 1408.53   3
   3 -11  -4 48819.5 1305.35   4
   3 -11  -4 45518.3 1278.15   1
  -3  11   3 1956.49 326.420   3
   3 -11  -3 1913.33 306.412   4
   3 -11  -3 2394.23 320.539   1
  -3  11   2 6079.67 533.485   3
   3 -11  -2 7072.18 549.424   4
   3 -11  -2 5993.34 465.854   1
  -3  11   1 161701. 2706.59   3
   3 -11  -1 167478. 2609.83   4
   3 -11  -1 167325. 2292.48   1
  -3  11   0 165938. 2901.10   3
   3 -11   0 159934. 2222.11   1
   3 -11   0 168854. 2741.88   4
  -3  11  -1 51255.7 1616.11   3
   3 -11   1 42136.1 1471.40   4
  -3  11  -2 62805.2 1786.16   3
   3 -11   2 61569.2 1778.30   4
   3 -11   3 298.063 272.634   4
  -3  11  -3 182.082 222.998   3
  -3  11  -4 17162.3 1009.98   3
   3 -11   4 20885.5 1122.47   4
   3 -10 -15 147832. 2983.30   1
  -3  10  15 153852. 2931.62   3
  -3  10  14 6977.48 633.353   3
  -3  10  14 6785.82 640.172   2
   3 -10 -14 7476.96 699.667   1
   3 -10 -13 1608.25 353.623   1
  -3  10  13 1561.32 325.447   3
  -3  10  13 1446.44 340.249   2
  -3  10  12 532.715 241.657   3
  -3  10  12 508.646 240.302   2
   3 -10 -12 240.958 252.229   1
  -3  10  11 175.565 198.958   3
  -3  10  11 417.422 228.041   2
   3 -10 -11 145.814 243.002   1
  -3  10  10 16105.4 842.858   3
  -3  10  10 15277.6 820.316   2
   3 -10 -10 16359.3 875.150   1
  -3  10   9 131760. 2340.29   3
  -3  10   9 129158. 2266.34   2
   3 -10  -9 129268. 2392.89   1
  -3  10   8 129342. 2275.18   3
  -3  10   8 126376. 2172.96   2
   3 -10  -8 133680. 2364.81   1
  -3  10   7 61.2984 161.635   3
  -3  10   7 170.172 150.339   2
   3 -10  -7-160.282 195.638   1
   3 -10  -6 41294.0 1037.80   4
   3 -10  -6 44068.7 1284.85   1
  -3  10   6 44516.6 1325.06   3
  -3  10   6 41411.6 1178.99   2
   3 -10  -5 5.77954 108.122   4
  -3  10   5-87.7112 135.060   3
   3 -10  -5 45.7029 142.717   1
  -3  10   5 76.8261 142.270   2
  -3  10   4 128582. 2215.60   3
   3 -10  -4 126373. 1942.07   4
   3 -10  -4 129548. 2087.80   1
  -3  10   3 49150.3 1396.47   3
   3 -10  -3 47609.1 1232.87   1
   3 -10  -3 48170.2 1249.80   4
   3 -10  -2 7236.81 480.873   1
  -3  10   2 7896.60 571.539   3
   3 -10  -2 6868.90 504.608   4
  -3  10   2 6648.07 401.283   2
  -3  10   1 82957.4 1847.07   3
   3 -10  -1 84584.7 1774.61   4
   3 -10  -1 84867.8 1568.81   1
   3 -10   0 386456. 3924.48   4
  -3  10   0 389716. 4159.65   3
   3 -10   0 398782. 3332.40   1
  -3  10  -1 413789. 4355.41   3
   3 -10   1 368421. 3999.03   4
  -3  10  -2 211.429 190.387   3
   3 -10   2 531.829 263.958   4
   3 -10   3 35425.9 1342.91   4
  -3  10  -3 32017.4 1255.24   3
   3 -10   4 387.944 216.375   4
  -3  10  -4 300.337 238.390   3
  -3  10  -5 828.846 277.590   3
   3 -10   5 846.019 288.588   4
   3 -10   6 18112.5 1045.06   4
  -3  10  -6 17798.2 1049.70   3
  -3   9  15 3903.81 488.573   3
   3  -9 -15 3156.57 502.192   1
   3  -9 -14 5271.64 589.894   1
  -3   9  14 4618.41 511.754   3
  -3   9  14 5084.31 571.815   2
  -3   9  13 8241.43 631.698   3
  -3   9  13 8377.54 665.710   2
   3  -9 -13 8610.25 701.233   1
  -3   9  12 41766.8 1372.00   3
  -3   9  12 39040.4 1352.40   2
   3  -9 -12 42008.0 1455.15   1
  -3   9  11 20400.8 934.210   3
  -3   9  11 19566.4 935.432   2
   3  -9 -11 18675.2 947.443   1
  -3   9  10 7706.49 571.561   3
  -3   9  10 7552.64 573.397   2
   3  -9 -10 7301.20 588.692   1
   3  -9  -9 3047.11 383.127   1
  -3   9   9 3485.71 375.668   3
  -3   9   9 3531.35 398.914   2
  -3   9   8 125348. 2142.92   3
  -3   9   8 126903. 2157.72   2
  -3   9   7 421514. 3830.63   3
  -3   9   7 417948. 3794.37   2
   3  -9  -7 412400. 3944.73   1
  -3   9   6 63634.1 1486.33   3
   3  -9  -6 64108.2 1204.90   4
  -3   9   6 60656.7 1387.92   2
   3  -9  -6 65989.5 1536.25   1
  -3   9   5 77681.9 1539.70   2
  -3   9   5 79537.8 1651.33   3
   3  -9  -5 81228.7 1642.45   1
   3  -9  -5 79043.7 1423.58   4
   3  -9  -4 72558.8 1386.30   4
  -3   9   4 75007.2 1599.51   3
   3  -9  -4 72208.0 1508.44   1
  -3   9   4 73893.1 1444.24   2
  -3   9   3 192384. 2584.91   3
   3  -9  -3 191536. 2367.30   4
   3  -9  -3 199081. 2423.19   1
  -3   9   2 26938.2 990.279   3
   3  -9  -2 26246.8 863.985   1
   3  -9  -2 25635.2 903.573   4
  -3   9   2 23668.9 765.229   2
  -3   9   1 27394.8 1013.46   3
   3  -9  -1 28087.7 980.993   4
   3  -9  -1 27014.3 849.633   1
  -3   9   1 27131.7 778.695   2
  -3   9   0 273572. 3215.20   3
   3  -9   0 278191. 3171.47   4
   3  -9   0 279229. 2650.74   1
   3  -9   1 676.634 226.462   4
  -3   9  -1 824.679 229.759   3
   3  -9   1 839.294 176.287   1
  -3   9  -2 3493.61 408.134   3
   3  -9   2 4193.15 441.913   4
  -3   9  -3 2758.83 367.748   3
   3  -9   3 2661.57 381.154   4
  -3   9  -4 58114.0 1674.04   3
   3  -9   4 46391.0 1496.91   4
   3  -9   5 639.823 277.385   4
  -3   9  -5 437.370 264.810   3
   3  -9   6 6550.23 606.972   4
  -3   9  -6 5970.28 598.353   3
  -3   9  -7 287.272 241.577   3
   3  -9   7 360.301 241.771   4
  -3   8  15 207479. 3288.52   3
   3  -8 -15 222296. 3492.73   1
   3  -8 -14 2290.87 433.597   1
  -3   8  14 1368.41 292.776   3
  -3   8  14 1929.36 366.557   2
   3  -8 -13 31798.9 1275.00   1
  -3   8  13 30415.8 1167.56   3
  -3   8  13 29275.1 1221.78   2
   3  -8 -12 12537.5 800.099   1
  -3   8  12 12296.1 722.558   3
  -3   8  12 11210.4 736.815   2
  -3   8  11 37587.3 1208.71   3
  -3   8  11 36965.6 1258.33   2
   3  -8 -11 36887.1 1300.23   1
  -3   8  10 18835.0 841.679   3
  -3   8  10 16884.9 829.058   2
   3  -8 -10 18235.7 887.939   1
  -3   8   9 137.983 155.291   2
  -3   8   9 137.145 145.178   3
   3  -8  -9 104.241 169.021   1
  -3   8   8 107638. 1887.52   3
  -3   8   8 106813. 1921.50   2
   3  -8  -8 101409. 1983.51   1
   3  -8  -7 17614.2 804.812   1
  -3   8   7 18988.6 799.796   2
  -3   8   6 132887. 2055.50   3
   3  -8  -6 138110. 2161.86   1
   3  -8  -6 135722. 1584.34   4
  -3   8   6 135980. 2059.32   2
   3  -8  -5 140022. 1720.70   4
  -3   8   5 136390. 2035.91   3
   3  -8  -5 140729. 2118.22   1
   3  -8  -4 22412.7 819.237   1
  -3   8   4 22366.9 786.861   2
  -3   8   4 20302.6 794.326   3
   3  -8  -4 21949.8 727.876   4
  -3   8   3 84711.3 1594.63   3
   3  -8  -3 83007.8 1493.22   4
  -3   8   3 82972.5 1494.89   2
   3  -8  -3 80950.2 1504.23   1
  -3   8   2 27305.7 927.354   3
   3  -8  -2 25730.0 862.173   4
   3  -8  -2 25907.5 830.091   1
  -3   8   2 25964.7 806.656   2
   3  -8  -1 387.799 138.439   1
  -3   8   1 674.110 199.852   3
   3  -8  -1 404.994 157.158   4
  -3   8   1 654.371 159.632   2
  -3   8   0 74703.5 1581.77   3
   3  -8   0 69873.9 1524.41   4
   3  -8   0 72681.9 1297.08   1
  -3   8  -1 16197.3 756.884   3
   3  -8   1 17047.2 811.481   4
  -3   8  -1 15676.2 572.592   2
   3  -8   1 16433.1 610.535   1
  -3   8  -2 55450.0 1434.97   3
   3  -8   2 53602.6 1459.30   4
   3  -8   2 52841.7 1043.01   1
  -3   8  -2 50673.5 1000.92   2
   3  -8   3 40066.6 1308.77   4
  -3   8  -3 40282.0 858.529   2
  -3   8  -4 47475.8 1439.50   3
   3  -8   4 30957.4 1165.73   4
  -3   8  -5 110617. 2275.52   3
   3  -8   5 109932. 2254.98   4
  -3   8  -6 54043.3 1646.00   3
   3  -8   6 51823.0 1588.04   4
  -3   8  -7 14260.9 885.996   3
   3  -8   7 13456.9 858.222   4
  -3   8  -8 31837.2 1379.22   3
   3  -8   8 36196.6 1423.04   4
  -3   7  15 25551.1 1146.45   3
  -3   7  14 22580.3 1030.79   3
   3  -7 -14 21415.8 1051.18   1
  -3   7  14 24174.9 1122.27   2
  -3   7  13 56540.8 1573.68   3
   3  -7 -13 61658.5 1725.96   1
  -3   7  13 57587.3 1671.15   2
   3  -7 -12 17473.4 906.918   1
  -3   7  12 18112.3 859.465   3
  -3   7  12 17770.6 899.302   2
  -3   7  11 6604.90 498.526   3
  -3   7  11 5543.12 496.409   2
   3  -7 -11 5964.12 524.734   1
  -3   7  10 74.7307 120.313   3
  -3   7  10 3.70427 146.048   2
   3  -7 -10 115.998 177.288   1
  -3   7   9 57936.2 1371.09   3
  -3   7   9 57030.9 1426.41   2
   3  -7  -9 56118.3 1484.04   1
  -3   7   8 1550.44 237.066   3
  -3   7   8 1886.86 265.153   2
   3  -7  -8 1403.19 258.591   1
  -3   7   7 184565. 2317.99   3
   3  -7  -7 180147. 2475.80   1
  -3   7   7 181014. 2387.98   2
  -3   7   6 169780. 2166.63   3
  -3   7   6 166434. 2240.14   2
   3  -7  -6 173477. 2385.40   1
   3  -7  -6 173334. 1626.69   4
  -3   7   5 222348. 2480.55   3
   3  -7  -5 226575. 2635.37   1
  -3   7   5 221066. 2505.14   2
   3  -7  -5 229828. 2024.91   4
  -3   7   4 60886.6 1290.03   2
  -3   7   4 59912.5 1279.37   3
   3  -7  -4 61847.0 1322.98   1
   3  -7  -4 64915.6 1141.53   4
  -3   7   3 62935.9 1301.77   3
  -3   7   3 61631.3 1258.19   2
   3  -7  -3 63290.5 1209.07   4
  -3   7   2 2371.25 258.012   2
  -3   7   2 2747.01 292.021   3
   3  -7  -2 2449.40 265.517   4
   3  -7  -2 2861.94 281.650   1
  -3   7   1 17998.3 717.114   3
  -3   7   1 19148.0 672.344   2
   3  -7  -1 19062.6 739.058   4
   3  -7  -1 20665.5 694.200   1
  -3   7   0-119.640 145.089   3
   3  -7   0 41.2205 118.107   4
   3  -7   0 79.1961 105.777   1
  -3   7   0 87.4493 116.318   2
  -3   7  -2 265010. 2957.36   3
   3  -7   2 258535. 3036.13   4
   3  -7   2 245421. 2144.58   1
  -3   7  -2 250701. 2200.06   2
  -3   7  -3 54.0831 109.472   2
  -3   7  -3 215.187 177.874   3
   3  -7   3 177.293 164.251   4
  -3   7  -4 30869.8 1100.90   3
  -3   7  -4 32605.9 783.986   2
  -3   7  -5 10317.5 460.565   2
  -3   7  -5 10020.9 660.459   3
   3  -7   5 10999.8 687.612   4
   3  -7   6 812.581 226.500   4
  -3   7  -6 861.188 262.672   3
  -3   7  -7 1770.14 340.666   3
   3  -7   7 1760.26 331.487   4
   3  -7   8 100123. 2246.52   4
  -3   7  -8 115637. 2511.40   3
  -3   7  -9 25336.3 1220.49   3
   3  -7   9 22955.8 1130.78   4
  -3   6  15-228.395 244.022   3
  -3   6  14 16648.9 883.071   3
   3  -6 -14 16597.7 918.270   1
  -3   6  14 16806.3 943.996   2
  -3   6  13 96683.2 1984.03   3
   3  -6 -13 97522.3 2146.15   1
  -3   6  13 95480.8 2118.73   2
  -3   6  12 114437. 2081.53   3
   3  -6 -12 114745. 2253.64   1
  -3   6  11 352.597 201.525   3
  -3   6  11-67.0064 156.264   2
   3  -6 -11 146.739 163.097   1
   3  -6 -10 11258.8 681.283   1
  -3   6  10 11952.8 624.284   3
  -3   6  10 12864.5 718.007   2
   3  -6  -9 8045.49 563.220   1
  -3   6   9 6632.85 450.325   3
  -3   6   9 7924.51 544.328   2
  -3   6   8 24176.4 820.796   3
  -3   6   8 23194.8 884.135   2
   3  -6  -8 24213.5 923.764   1
  -3   6   7 119358. 1768.81   3
  -3   6   7 116980. 1916.97   2
   3  -6  -7 120780. 2008.66   1
  -3   6   6 14098.8 599.044   3
  -3   6   6 13703.3 646.011   2
   3  -6  -6 13133.4 410.188   4
   3  -6  -6 12849.6 646.429   1
  -3   6   5 26809.8 800.199   3
  -3   6   5 23845.3 818.468   2
   3  -6  -5 25289.1 621.328   4
   3  -6  -5 25416.7 870.565   1
   3  -6  -4 19427.5 584.704   4
   3  -6  -4 18671.2 717.523   1
  -3   6   4 18975.9 709.531   2
  -3   6   3 1429.96 211.458   3
  -3   6   3 1843.90 236.661   2
   3  -6  -3 1214.43 185.045   1
   3  -6  -3 1709.02 197.501   4
  -3   6   2 66053.6 1251.42   3
   3  -6  -2 68211.4 1222.03   4
  -3   6   2 68005.6 1279.78   2
   3  -6  -1 65963.7 1269.74   4
   3  -6  -1 67581.4 1217.90   1
   3  -6   0 242039. 2221.84   1
  -3   6   0 239760. 2493.52   3
   3  -6   0 236137. 2506.54   4
  -3   6   0 244998. 2291.84   2
  -3   6  -1 8986.80 504.406   3
  -3   6  -1 8056.77 430.144   2
   3  -6   1 7586.28 479.910   4
   3  -6   1 8398.84 397.897   1
   3  -6   2 192393. 2468.76   4
  -3   6  -2 204784. 2443.73   3
  -3   6  -2 194302. 1989.24   2
   3  -6   2 201630. 1881.97   1
   3  -6   3 243980. 1965.79   1
  -3   6  -3 246602. 2787.09   3
   3  -6   3 248052. 2884.24   4
  -3   6  -3 246493. 2198.65   2
  -3   6  -4 16766.7 765.940   3
  -3   6  -4 16933.8 581.421   2
  -3   6  -5 3.73882 94.7916   2
  -3   6  -5-226.753 136.932   3
   3  -6   5 189.306 141.075   4
  -3   6  -6 7665.04 409.170   2
   3  -6   6 7855.14 579.800   4
  -3   6  -6 8825.72 608.930   3
  -3   6  -7 39095.9 932.712   2
  -3   6  -7 40900.6 1354.46   3
   3  -6   7 39072.7 1310.40   4
  -3   6  -8 15505.4 895.179   3
   3  -6   8 13986.3 825.932   4
  -3   6  -9 10480.5 766.744   3
   3  -6   9 10259.2 739.599   4
  -3   6 -10 77239.8 2176.97   3
   3  -6  10 71286.1 1967.45   4
   3  -6  11 7739.56 715.764   4
  -3   5  14 14464.1 806.173   3
  -3   5  14 14355.4 861.752   2
   3  -5 -13 7143.26 592.798   1
  -3   5  13 6546.15 578.757   2
  -3   5  13 8227.18 594.596   3
  -3   5  12 79562.7 1695.75   3
   3  -5 -12 80445.1 1875.18   1
  -3   5  11 231898. 2778.53   3
   3  -5 -11 232372. 3077.34   1
  -3   5  11 231468. 3060.28   2
  -3   5  10 60945.5 1361.45   3
   3  -5 -10 58805.8 1508.44   1
  -3   5  10 61230.1 1520.77   2
  -3   5   9 46999.1 1152.79   3
   3  -5  -9 43518.7 1259.08   1
  -3   5   9 43806.2 1235.32   2
   3  -5  -8 8095.99 537.630   1
  -3   5   8 8686.54 477.993   3
  -3   5   8 8318.03 523.089   2
  -3   5   7 64853.5 1228.43   3
  -3   5   7 63141.5 1375.13   2
  -3   5   6 54944.6 1106.02   3
   3  -5  -6 55470.5 725.963   4
   3  -5  -6 53696.2 1279.54   1
  -3   5   5 268815. 2371.76   3
  -3   5   5 274080. 2731.28   2
  -3   5   4 593264. 3913.57   2
   3  -5  -4 593243. 3970.15   1
  -3   5   3 17763.2 599.673   3
   3  -5  -3 18952.4 580.217   4
  -3   5   3 18059.6 678.613   2
   3  -5  -3 18568.1 676.381   1
  -3   5   2 2548.49 236.509   3
   3  -5  -2 2494.32 227.594   4
  -3   5   2 2376.41 252.320   2
   3  -5  -2 2774.33 262.761   1
  -3   5   1 119576. 1604.26   3
   3  -5  -1 121599. 1625.01   4
  -3   5   1 135250. 1729.52   2
   3  -5  -1 132510. 1658.90   1
  -3   5   0 173377. 1975.64   3
  -3   5   0 177615. 1961.27   2
   3  -5   0 173987. 1838.90   1
   3  -5   1 263441. 2157.43   1
  -3   5  -1 269143. 2511.74   3
  -3   5  -1 269659. 2371.84   2
   3  -5   1 266990. 2654.74   4
  -3   5  -2 964.001 166.470   2
   3  -5   2 742.126 120.847   1
  -3   5  -2 800.280 165.227   3
   3  -5   2 681.776 163.711   4
   3  -5   3 70167.1 1017.59   1
   3  -5   3 69784.6 1460.29   4
  -3   5  -3 70858.5 1399.81   3
  -3   5  -3 72949.8 1195.37   2
   3  -5   4 76418.8 994.782   1
  -3   5  -4 75419.5 1542.02   3
   3  -5   4 72686.6 1561.80   4
  -3   5  -4 76640.4 1225.11   2
   3  -5   5 1663.45 258.340   4
  -3   5  -5 1001.18 209.460   3
  -3   5  -5 1427.34 192.467   2
  -3   5  -6 2069.07 227.991   2
  -3   5  -6 2862.53 349.542   3
   3  -5   6 2340.26 316.459   4
   3  -5   7 428.645 170.548   4
  -3   5  -7 809.778 174.901   2
  -3   5  -7 1119.90 248.363   3
   3  -5   8 41.0379 145.245   4
  -3   5  -8 83.6165 111.136   2
  -3   5  -8-5.02562 163.852   3
  -3   5  -9 7619.10 456.286   2
  -3   5  -9 6906.41 617.701   3
   3  -5   9 6739.03 573.354   4
  -3   5 -10 67924.1 1951.00   3
   3  -5  10 59938.2 1736.34   4
  -3   5 -11 36366.2 1452.26   3
   3  -5  11 33926.6 1370.43   4
   3  -5  12 22087.3 1162.40   4
  -3   4  14 18906.5 981.981   2
  -3   4  13 2821.07 373.770   3
   3  -4 -13 2788.60 407.919   1
  -3   4  13 2409.89 363.069   2
  -3   4  12 1363.70 275.354   3
  -3   4  12 983.660 280.534   2
   3  -4 -12 791.636 237.622   1
  -3   4  11 9223.70 560.970   3
   3  -4 -11 8297.64 604.592   1
  -3   4  11 8478.24 597.182   2
  -3   4  10 132733. 1935.35   3
   3  -4 -10 131631. 2228.66   1
  -3   4  10 133021. 2210.12   2
  -3   4   9 7352.05 449.915   3
   3  -4  -9 7168.70 520.552   1
   3  -4  -8 501458. 4035.53   1
  -3   4   8 525441. 4057.37   2
  -3   4   7 35953.5 877.063   3
   3  -4  -7 35134.1 1050.18   1
  -3   4   7 34430.0 1012.34   2
   3  -4  -6 3890.62 351.981   1
  -3   4   6 3898.17 287.852   3
   3  -4  -6 3592.33 162.746   4
  -3   4   6 4208.49 357.390   2
  -3   4   5 7054.59 365.510   3
   3  -4  -5 6444.82 434.036   1
   3  -4  -5 6758.58 268.581   4
  -3   4   5 7076.49 449.505   2
   3  -4  -4 594725. 3895.81   1
  -3   4   4 586657. 3831.58   2
  -3   4   3 189257. 1776.80   3
   3  -4  -3 190940. 1734.89   4
  -3   4   3 191401. 2160.45   2
   3  -4  -2 14150.1 555.739   1
  -3   4   2 13592.9 484.137   3
  -3   4   2 14390.5 590.333   2
   3  -4  -1 9653.11 452.628   1
  -3   4   1 9718.18 419.175   3
   3  -4  -1 9290.06 428.148   4
  -3   4   1 9291.18 464.093   2
   3  -4   0 205223. 1945.31   1
  -3   4   0 209391. 1983.86   3
   3  -4   0 201810. 2103.75   4
  -3   4   0 204140. 2094.79   2
   3  -4   1 23645.4 635.775   1
  -3   4  -1 22834.6 681.336   3
   3  -4   1 22564.4 740.405   4
  -3   4  -1 22734.2 686.023   2
   3  -4   2 30978.4 691.669   1
  -3   4  -2 28794.1 802.786   3
  -3   4  -2 31946.5 812.434   2
   3  -4   2 28415.6 859.829   4
   3  -4   3 3107.82 219.970   1
  -3   4  -3 2842.80 280.494   3
  -3   4  -3 2831.80 246.577   2
  -3   4  -4 994.284 156.153   2
  -3   4  -4 1348.72 219.483   3
   3  -4   4 1246.57 137.728   1
   3  -4   4 1099.09 215.957   4
  -3   4  -5 1007.60 163.173   2
  -3   4  -5 966.159 190.970   3
   3  -4   5 861.656 195.684   4
  -3   4  -6 78654.2 1288.07   2
  -3   4  -6 82510.6 1667.15   3
   3  -4   6 78461.3 1651.45   4
  -3   4  -7 2117.88 229.605   2
  -3   4  -7 2004.84 305.621   3
   3  -4   7 2227.84 318.560   4
  -3   4  -8 53790.7 1118.23   2
  -3   4  -8 56653.3 1534.25   3
   3  -4   8 54009.5 1484.52   4
  -3   4  -9 33517.7 931.269   2
  -3   4  -9 35491.7 1283.03   3
   3  -4   9 33710.8 1209.11   4
  -3   4 -10 1456.74 256.677   2
  -3   4 -10 1599.49 321.586   3
   3  -4  10 2165.61 361.319   4
  -3   4 -11 47983.4 1232.00   2
  -3   4 -11 47848.1 1593.15   3
   3  -4  11 48010.0 1555.76   4
   3  -4  12 82982.2 2101.45   4
  -3   3  14 26658.2 1159.42   2
  -3   3  13 15074.7 852.050   2
  -3   3  12 47422.0 1275.41   3
  -3   3  12 48616.3 1447.49   2
   3  -3 -12 46260.3 1379.92   1
  -3   3  11 328726. 3150.77   3
  -3   3  11 325659. 3544.79   2
   3  -3 -11 333123. 3653.09   1
  -3   3  10 2008.80 254.042   3
   3  -3 -10 2356.77 323.541   1
  -3   3  10 1738.11 271.325   2
  -3   3   9 1336.99 212.517   3
   3  -3  -9 1617.34 260.946   1
  -3   3   9 1361.50 252.369   2
  -3   3   8 165862. 1902.16   3
   3  -3  -8 165928. 2328.99   1
  -3   3   8 170644. 2310.18   2
   3  -3  -7 868739. 5124.51   1
  -3   3   6 274498. 2188.19   3
   3  -3  -6 275009. 2787.60   1
   3  -3  -6 268238. 1194.69   4
  -3   3   5 19721.6 561.837   3
   3  -3  -5 17631.6 682.453   1
  -3   3   5 17968.4 697.896   2
   3  -3  -4 72098.4 1341.11   1
  -3   3   4 73950.3 1365.52   2
   3  -3  -4 73835.5 918.436   4
  -3   3   2 537182. 3480.03   2
  -3   3   1 472170. 3204.22   2
   3  -3   0 18567.3 583.350   1
  -3   3   0 18718.9 538.097   3
  -3   3   0 17879.7 620.035   2
   3  -3   0 19757.5 640.304   4
   3  -3   1 198366. 2100.77   4
   3  -3   1 194710. 1797.99   1
  -3   3  -1 192071. 1819.50   3
  -3   3  -2 136806. 1623.10   3
   3  -3   2 134191. 1429.45   1
  -3   3  -3 7846.83 402.890   2
  -3   3  -3 6987.18 394.823   3
   3  -3   3 8389.96 347.483   1
   3  -3   3 7217.05 443.714   4
  -3   3  -4 246860. 2476.37   3
   3  -3   4 252555. 2683.60   4
   3  -3   4 251866. 1733.95   1
  -3   3  -4 251826. 2227.25   2
  -3   3  -5 352745. 3121.78   3
   3  -3   5 361251. 3310.65   4
  -3   3  -6 16225.3 712.250   3
   3  -3   6 15924.1 730.029   4
  -3   3  -6 15640.2 579.304   2
  -3   3  -7 2105.16 237.961   2
   3  -3   7 2018.56 298.122   4
  -3   3  -7 2319.82 306.153   3
  -3   3  -8 144368. 1808.35   2
   3  -3   8 147445. 2368.39   4
  -3   3  -9 128726. 1814.01   2
  -3   3  -9 129490. 2373.90   3
  -3   3 -10 22641.5 800.315   2
   3  -3  10 22933.2 1019.38   4
  -3   3 -10 22413.9 1027.94   3
  -3   3 -11 3089.79 340.322   2
  -3   3 -11 2683.40 414.948   3
   3  -3  11 3028.52 410.693   4
   3  -3  12 1986.83 385.110   3
  -3   3 -12 2170.12 319.727   2
   3  -3  12 1655.60 335.029   4
  -3   3 -13 2503.96 341.102   2
   3  -3  13 2763.39 422.922   4
  -3   2  14 967.690 289.596   2
  -3   2  13 5233.20 517.098   2
   3  -2 -12 1054.98 241.297   1
  -3   2  12 1354.76 285.466   2
  -3   2  11 119012. 1884.61   3
  -3   2  11 119031. 2163.36   2
   3  -2 -11 124439. 2190.94   1
   3  -2 -10 297398. 3278.21   1
  -3   2  10 306070. 2838.89   3
  -3   2  10 299350. 3275.31   2
  -3   2   9 2280.71 244.908   3
  -3   2   9 2480.10 320.533   2
   3  -2  -9 2252.07 312.416   1
  -3   2   8 53872.9 1045.17   3
   3  -2  -8 51368.0 1295.95   1
  -3   2   8 50742.6 1261.24   2
  -3   2   6 65564.1 1022.89   3
   3  -2  -6 63501.9 1343.23   1
  -3   2   6 65493.7 1329.28   2
   3  -2  -6 62488.6 568.343   4
  -3   2   5 231615. 1783.45   3
   3  -2  -5 225145. 2444.78   1
  -3   2   5 231056. 2450.16   2
   3  -2  -5 227747. 1315.96   4
  -3   2   4 48729.7 777.931   3
   3  -2  -4 50476.9 1123.81   1
  -3   2   3 60559.8 822.798   3
   3  -2  -3 61613.0 1203.55   1
  -3   2   3 61859.2 1209.32   2
   3  -2  -3 61995.8 886.709   4
  -3   2   2 1479.80 134.903   3
   3  -2  -2 1503.84 198.869   1
  -3   2   2 1464.11 197.938   2
   3  -2  -2 1461.33 163.515   4
  -3   2   1 7381.31 297.471   3
  -3   2   1 7477.17 412.402   2
   3  -2  -1 8058.34 370.070   4
  -3   2  -1 39365.9 745.491   3
   3  -2   1 40233.7 821.718   1
   3  -2   1 40628.9 923.406   4
  -3   2  -1 42126.8 922.979   2
  -3   2  -2 33606.2 827.108   2
   3  -2   2 33184.2 707.384   1
   3  -2   2 34036.8 900.308   4
  -3   2  -3 34485.2 806.919   3
   3  -2   3 33810.5 926.807   4
   3  -2   3 32787.6 668.225   1
   3  -2   4 1393.70 139.751   1
  -3   2  -4 1282.02 182.797   3
   3  -2   4 1022.85 196.975   4
  -3   2  -4 1545.25 193.722   2
  -3   2  -5 209140. 2251.19   3
   3  -2   5 213132. 2497.59   4
  -3   2  -5 211356. 2040.33   2
  -3   2  -6 142063. 1997.70   3
   3  -2   6 143714. 2109.92   4
  -3   2  -7 29336.2 802.216   2
  -3   2  -7 30141.5 964.661   3
   3  -2   7 31860.5 1032.99   4
  -3   2  -8 3461.37 301.831   2
  -3   2  -8 3373.34 366.196   3
   3  -2   8 3818.79 389.725   4
  -3   2  -9 87273.2 1487.56   2
  -3   2  -9 86285.2 1824.97   3
   3  -2   9 89343.4 1832.52   4
  -3   2 -10 258623. 2645.40   2
  -3   2 -10 259726. 3326.32   3
  -3   2 -11 16513.3 711.662   2
   3  -2  11 16668.0 865.837   4
   3  -2  12 1828.60 351.036   3
  -3   2 -12 1901.57 310.307   2
   3  -2  12 1648.47 326.946   4
   3  -2  13 1349.97 348.065   3
   3  -2  13 1264.04 329.134   4
  -3   2 -13 730.901 240.671   2
  -3   2 -14 7165.79 579.394   2
  -3   1  14 34891.8 1346.29   2
  -3   1  13 43540.7 1426.19   2
  -3   1  12 23657.7 1000.76   2
   3  -1 -11 1297.99 259.194   1
  -3   1  11 1099.14 224.713   2
  -3   1  10 108541. 1682.85   3
  -3   1  10 108915. 1984.12   2
   3  -1 -10 103543. 1926.91   1
  -3   1   9 320468. 2709.39   3
   3  -1  -9 329594. 3335.25   1
  -3   1   9 331930. 3304.10   2
  -3   1   8 435209. 2969.26   3
  -3   1   8 433456. 3623.40   2
   3  -1  -8 438650. 3720.50   1
  -3   1   7 468129. 2868.64   3
   3  -1  -7 469204. 3724.07   1
   3  -1  -6 49024.2 554.864   4
  -3   1   6 48588.7 840.528   3
  -3   1   6 49549.5 1145.76   2
   3  -1  -5 188857. 1201.48   4
  -3   1   5 188353. 1519.13   3
  -3   1   4 22956.2 485.081   3
   3  -1  -4 22771.1 763.354   1
  -3   1   4 23511.1 748.428   2
   3  -1  -4 24883.1 490.198   4
   3  -1  -3 557989. 3651.78   1
  -3   1   3 587238. 3617.11   2
  -3   1   2 219028. 1317.47   3
  -3   1   2 221988. 2185.04   2
   3  -1  -2 224511. 2235.00   1
   3  -1  -2 220339. 1774.10   4
  -3   1   1 3122.59 163.443   3
   3  -1  -1 2824.17 248.733   1
  -3   1   1 3637.84 285.228   2
   3  -1  -1 3461.21 242.080   4
  -3   1   0 160906. 1819.83   2
   3  -1   0 163325. 1708.73   1
  -3   1  -1 39671.5 654.957   3
   3  -1   1 40579.0 896.017   4
   3  -1   1 41115.2 829.965   1
   3  -1   3 260307. 1880.72   1
   3  -1   3 255874. 2423.13   4
  -3   1  -3 260182. 2030.24   3
  -3   1  -4 204927. 1945.91   3
   3  -1   4 201056. 1553.01   1
   3  -1   4 201825. 2272.98   4
  -3   1  -5 34247.4 867.060   3
   3  -1   5 36001.7 599.199   1
   3  -1   5 34229.4 971.701   4
  -3   1  -5 32556.3 804.414   2
   3  -1   6 430867. 3566.22   4
  -3   1  -6 407939. 3185.75   3
  -3   1  -6 417234. 1755.46   1
  -3   1  -6 435965. 2967.80   2
  -3   1  -7 305412. 2540.92   2
   3  -1   7 309199. 3123.21   4
  -3   1  -8 10196.9 484.587   2
  -3   1  -8 9766.46 562.070   3
   3  -1   8 10405.3 597.941   4
  -3   1  -9 88.4493 125.035   2
  -3   1  -9 29.7723 164.663   3
   3  -1   9 63.2966 159.633   4
  -3   1 -10 42961.8 1071.88   2
   3  -1  10 41872.5 1249.45   4
  -3   1 -11 10276.2 566.880   2
   3  -1  11 9276.76 622.718   4
   3  -1  11 10139.0 689.931   3
  -3   1 -12 12858.1 660.190   2
   3  -1  12 13505.8 777.231   4
   3  -1  12 14708.9 871.520   3
  -3   1 -13 61259.5 1490.91   2
   3  -1  13 63103.3 1710.09   4
   3  -1  13 59330.0 1826.20   3
  -3   1 -14 32406.1 1142.87   2
  -3   0  13 66946.8 1775.12   2
  -3   0  12 176423. 2733.00   2
  -3   0  11 5066.20 465.471   2
   3   0 -10 21859.7 875.881   1
  -3   0  10 22972.1 913.134   2
  -3   0   9 17351.5 633.414   3
   3   0  -9 17755.0 772.171   1
  -3   0   9 16441.9 737.367   2
   3   0  -8 85375.2 1627.88   1
  -3   0   8 89450.0 1333.51   3
  -3   0   8 87062.2 1603.12   2
  -3   0   7 94746.5 1255.08   3
  -3   0   7 93236.0 1604.14   2
   3   0  -7 92342.8 1655.21   1
  -3   0   6 180212. 1575.29   3
  -3   0   6 179609. 2158.28   2
   3   0  -6 178370. 1199.08   4
   3   0  -6 177881. 2235.94   1
  -3   0   5 27860.8 560.932   3
   3   0  -5 27585.0 494.633   4
   3   0  -5 26965.7 851.585   1
  -3   0   4 8313.19 440.850   2
   3   0  -4 9049.57 304.069   4
   3   0  -4 8269.44 464.713   1
  -3   0   3 158658. 1025.97   3
  -3   0   3 158394. 1846.32   2
   3   0  -3 161494. 1367.04   4
   3   0  -3 156977. 1927.31   1
   3   0  -2 170426. 946.800   3
   3   0  -2 167722. 1525.99   4
  -3   0   2 169090. 925.401   3
  -3   0   2 165739. 1866.36   2
   3   0  -2 163332. 1906.35   1
   3   0  -1 201473. 973.619   3
  -3   0   1 199272. 965.379   3
  -3   0   1 200611. 2044.44   2
   3   0  -1 199130. 2031.33   1
   3   0   0 51175.9 974.386   1
   3   0   0 51926.9 565.415   3
  -3   0   0 50229.1 547.224   3
   3   0   0 49825.4 927.088   4
  -3   0   0 50804.3 1006.76   2
   3   0   1 80785.5 1170.20   1
  -3   0  -1 83943.9 817.931   3
   3   0   1 82112.4 1262.86   4
  -3   0  -2 999.209 157.585   2
   3   0   2 1034.45 162.169   4
   3   0   2 1006.39 137.813   1
  -3   0  -2 1099.14 119.017   3
   3   0   4 512191. 3566.95   4
  -3   0  -4 504724. 3073.14   2
  -3   0  -5 6069.76 357.180   3
   3   0   5 7079.99 278.888   1
   3   0   5 7052.66 433.968   4
  -3   0  -5 6315.08 360.589   2
   3   0   6 122969. 1834.07   4
  -3   0  -6 121638. 1650.27   3
  -3   0  -6 119566. 1558.97   2
  -3   0  -7 41176.3 938.458   2
   3   0   7 42125.9 1115.68   4
  -3   0  -7 41745.5 1028.14   3
  -3   0  -7 42320.0 529.501   1
  -3   0  -8 188004. 2055.99   2
  -3   0  -8 192736. 2388.17   3
   3   0   8 194523. 2451.57   4
  -3   0  -9 279731. 2578.38   2
   3   0   9 282222. 3047.94   4
   3   0   9 284147. 3044.19   3
  -3   0 -10 472367. 3537.99   2
   3   0  10 472710. 4065.43   4
   3   0  10 481680. 4249.42   3
   3   0  11 2972.38 364.225   4
  -3   0 -11 2489.67 294.183   2
   3   0  11 3584.24 415.544   3
   3   0  12 2961.73 385.037   4
  -3   0 -12 2296.51 294.169   2
   3   0  12 2459.54 367.229   3
   3   0  13 2271.00 378.480   3
  -3   0 -13 2354.41 315.342   2
   3   0  13 2660.52 370.757   4
  -3   0 -14 31464.0 1127.15   2
   3   0  14 32987.8 1378.45   3
  -3  -1  13 92.0315 263.421   2
  -3  -1  12 23264.9 1006.94   2
  -3  -1  11 50990.6 1410.89   2
  -3  -1  10 21841.7 888.437   2
   3   1 -10 22121.0 863.961   1
   3   1  -9 2744.16 324.923   1
  -3  -1   9 1934.09 266.014   2
   3   1  -8 9389.85 541.934   1
  -3  -1   8 8772.86 524.747   2
  -3  -1   7 11631.7 452.000   3
   3   1  -7 11900.2 592.988   1
  -3  -1   7 12331.0 588.067   2
  -3  -1   6 19754.4 528.415   3
   3   1  -6 20121.9 753.489   1
  -3  -1   6 21030.0 738.190   2
   3   1  -6 22111.4 474.957   4
  -3  -1   5 68650.3 865.553   3
   3   1  -5 67049.9 1329.24   1
  -3  -1   5 69072.3 1301.82   2
  -3  -1   4 150109. 1092.03   3
   3   1  -4 151629. 1283.14   4
  -3  -1   3 3463.74 136.337   3
   3   1  -3 3420.71 292.200   1
  -3  -1   3 3818.32 149.044   3
   3   1  -3 3520.05 213.598   4
  -3  -1   3 3129.94 270.513   2
   3   1  -2 1117.13 173.535   1
  -3  -1   2 1233.31 175.191   2
   3   1  -2 1255.73 139.472   4
   3   1  -1 1762.58 207.718   1
  -3  -1   1 1931.68 204.194   2
   3   1   0 429868. 2822.70   1
  -3  -1   0 436309. 2890.44   2
   3   1   1 59905.7 569.394   3
  -3  -1  -1 60136.8 537.536   3
   3   1   1 58759.7 1013.95   1
   3   1   1 57688.5 1051.25   4
  -3  -1  -1 61496.3 1085.09   2
  -3  -1  -2 11596.1 302.436   3
   3   1   2 9953.68 402.246   1
  -3  -1  -2 11043.2 462.471   2
   3   1   2 11300.8 477.446   4
   3   1   3 27987.0 645.113   1
  -3  -1  -3 27900.0 545.178   3
  -3  -1  -3 27710.1 718.302   2
   3   1   3 28856.1 802.665   4
  -3  -1  -4 659622. 3530.17   2
  -3  -1  -5 36932.5 652.205   1
   3   1   5 35094.7 934.167   4
  -3  -1  -5 35821.5 831.114   2
  -3  -1  -6 233181. 1536.15   1
   3   1   6 236839. 2502.74   4
  -3  -1  -7 151898. 1771.75   2
  -3  -1  -7 155317. 1145.04   1
   3   1   7 150885. 2039.29   4
   3   1   7 153751. 1925.23   3
  -3  -1  -8 9713.33 474.449   2
   3   1   8 9560.11 540.534   4
   3   1   8 8797.53 500.998   3
   3   1   9 80227.6 1594.36   3
  -3  -1  -9 75869.4 1343.96   2
   3   1   9 77489.0 1574.89   4
  -3  -1 -10 101887. 1631.74   2
   3   1  10 103189. 1844.24   4
   3   1  10 101183. 1910.90   3
  -3  -1 -11 209393. 2432.29   2
   3   1  11 201440. 2689.68   4
   3   1  11 207170. 2905.76   3
  -3  -1 -12 38277.4 1098.74   2
   3   1  12 37426.5 1290.63   3
   3   1  12 41165.2 1263.73   4
   3   1  13 12010.0 785.370   3
  -3  -1 -13 11030.9 628.012   2
   3   1  13 12611.9 749.507   4
   3   1  14 251.110 225.184   3
  -3  -1 -14 930.206 241.020   2
  -3  -1 -15 36773.0 1249.74   2
  -3  -2  11 4721.56 463.771   2
  -3  -2  10 54406.9 1396.94   2
   3   2  -9 34349.7 1045.03   1
  -3  -2   9 30876.4 1009.38   2
  -3  -2   8 325902. 3113.64   2
   3   2  -8 336115. 3170.24   1
  -3  -2   7 76649.5 1450.17   2
   3   2  -7 76900.4 1484.46   1
  -3  -2   6 4369.56 254.879   3
  -3  -2   6 4305.70 342.851   2
   3   2  -6 3515.04 318.332   1
   3   2  -6 3989.04 230.457   4
  -3  -2   5 18100.9 458.180   3
  -3  -2   5 17767.2 651.682   2
   3   2  -5 16848.8 672.872   1
   3   2  -5 17662.5 470.665   4
   3   2  -4 283922. 2672.70   1
   3   2  -4 287896. 1878.42   4
  -3  -2   4 283284. 2503.17   2
  -3  -2   3 512749. 1644.99   3
   3   2  -3 524150. 3533.23   1
   3   2  -2 6069.66 374.461   1
  -3  -2   2 5609.98 341.147   2
   3   2  -2 6679.03 312.812   4
  -3  -2   1 45648.4 943.264   2
   3   2  -1 44224.5 964.590   1
   3   2   0 12534.7 465.036   4
  -3  -2   0 13065.3 500.737   2
   3   2   0 12496.9 499.891   1
   3   2   1 2321.38 223.993   1
   3   2   1 2416.48 218.936   4
  -3  -2  -1 2781.76 237.379   2
   3   2   2 44360.6 523.306   3
   3   2   2 43891.4 534.447   3
   3   2   2 41879.4 827.452   1
   3   2   2 41196.9 899.358   4
  -3  -2  -2 40957.9 861.360   2
   3   2   3 361348. 2359.03   1
  -3  -2  -3 366005. 2548.40   2
  -3  -2  -4 280276. 1981.14   1
   3   2   4 283735. 1891.28   3
  -3  -2  -5 32874.5 647.281   1
   3   2   5 29947.1 847.499   4
  -3  -2  -5 30799.3 766.307   2
   3   2   5 32118.9 716.447   3
   3   2   6 7391.16 447.529   4
  -3  -2  -6 7132.91 296.229   1
  -3  -2  -6 6934.40 373.773   2
   3   2   6 8080.52 401.056   3
  -3  -2  -7 41504.3 927.973   2
  -3  -2  -7 41199.3 649.640   1
   3   2   7 39980.4 1064.36   4
   3   2   7 39032.9 945.395   3
   3   2   8 560.763 152.737   3
  -3  -2  -8 515.942 88.4421   1
  -3  -2  -8 691.087 147.378   2
   3   2   8 484.371 138.550   4
  -3  -2  -9 50677.6 1076.59   2
   3   2   9 53560.1 1284.74   4
   3   2   9 52972.5 1261.59   3
  -3  -2 -10 18485.1 695.241   2
   3   2  10 18707.5 786.067   4
   3   2  10 19063.9 816.865   3
   3   2  11 31549.6 1105.37   3
  -3  -2 -11 30692.4 935.213   2
   3   2  11 32581.2 1062.66   4
   3   2  12 128889. 2354.14   3
  -3  -2 -12 129424. 1985.76   2
   3   2  12 132459. 2196.90   4
   3   2  13 78435.2 1932.06   3
  -3  -2 -13 79741.9 1648.87   2
   3   2  14 26.4918 193.607   3
  -3  -2 -14-40.6751 185.057   2
   3   2  15 4139.24 544.748   3
  -3  -2 -15 3396.29 412.736   2
  -3  -3  10 15803.3 766.537   2
  -3  -3   9 6096.62 458.783   2
  -3  -3   8 23892.3 850.133   2
   3   3  -8 23643.5 842.339   1
   3   3  -7 24190.4 836.949   1
  -3  -3   7 25744.8 839.677   2
   3   3  -6 42038.6 1082.51   1
  -3  -3   6 42455.5 1040.22   2
   3   3  -6 40652.6 780.344   4
   3   3  -5 15479.2 651.698   1
  -3  -3   5 15179.0 596.113   2
   3   3  -5 14019.6 451.845   4
  -3  -3   4 2858.71 167.653   3
   3   3  -4 2313.69 252.767   1
  -3  -3   4 2629.61 248.986   2
   3   3  -4 2525.07 200.362   4
  -3  -3   3 22340.2 367.028   3
   3   3  -3 22271.9 736.923   1
   3   3  -3 23624.0 595.242   4
  -3  -3   3 24145.2 704.400   2
   3   3  -2 168726. 1976.30   1
  -3  -3   2 172773. 1824.38   2
   3   3  -2 169460. 1591.37   4
  -3  -3   1 118920. 1482.99   2
   3   3  -1 123303. 1405.86   4
  -3  -3   0 129293. 1531.19   2
   3   3   0 125598. 1478.51   4
   3   3   0 128310. 1616.42   1
   3   3   1 122987. 1534.17   1
   3   3   1 123798. 1517.76   4
   3   3   2 98785.3 685.813   3
   3   3   2 100541. 1410.13   4
   3   3   2 100409. 715.635   3
   3   3   2 101017. 1332.93   1
  -3  -3  -2 102378. 1348.18   2
   3   3   3 61976.7 717.455   3
  -3  -3  -3 60928.5 998.846   1
  -3  -3  -3 60264.8 1023.44   2
   3   3   3 59427.0 1146.82   4
  -3  -3  -4 407920. 2474.38   1
   3   3   4 407102. 3030.93   4
  -3  -3  -4 411305. 2661.90   2
   3   3   5 339292. 2256.54   3
   3   3   5 337339. 2875.18   4
  -3  -3  -5 335268. 2181.61   1
  -3  -3  -5 330444. 2445.12   2
   3   3   6 20430.5 609.447   3
  -3  -3  -6 20349.4 521.295   1
   3   3   6 19741.9 717.341   4
  -3  -3  -6 19793.5 610.853   2
  -3  -3  -7 186428. 1931.25   2
   3   3   7 195541. 2047.25   3
  -3  -3  -7 197154. 1552.20   1
   3   3   7 184836. 2226.46   4
   3   3   9 319701. 3028.52   3
  -3  -3  -9 321536. 1789.72   1
   3   3  10 46545.3 1230.91   3
  -3  -3 -10 47011.3 1094.03   2
   3   3  10 47275.0 1208.98   4
   3   3  11 7010.24 522.666   3
  -3  -3 -11 5926.05 419.911   2
   3   3  11 5939.12 457.110   4
   3   3  12 6922.65 555.100   3
  -3  -3 -12 8524.60 520.581   2
   3   3  12 8053.70 543.288   4
   3   3  13 15913.7 876.987   3
  -3  -3 -13 15516.4 725.633   2
   3   3  13 14211.5 731.034   4
   3   3  14 5286.33 545.819   3
  -3  -3 -14 3599.87 396.321   2
   3   3  15 29816.8 1305.51   3
  -3  -3 -15 29997.3 1112.60   2
  -3  -4   8 3386.21 331.505   1
  -3  -4   8 3833.68 363.100   2
  -3  -4   7 21740.4 782.648   2
  -3  -4   6 33603.7 925.374   2
   3   4  -6 33835.1 975.582   1
   3   4  -6 33653.1 791.556   4
   3   4  -5 91208.8 1559.54   1
   3   4  -5 90920.0 1255.25   4
  -3  -4   5 92291.2 1469.70   2
   3   4  -4 19828.8 720.430   1
  -3  -4   4 20911.5 684.966   2
   3   4  -4 20913.9 597.557   4
   3   4  -3 7123.79 425.643   1
  -3  -4   3 7263.21 389.974   2
   3   4  -3 7854.78 364.302   4
  -3  -4   3 7168.39 240.688   3
  -3  -4   2 6461.47 175.605   3
   3   4  -2 6779.15 410.092   1
   3   4  -2 7104.45 352.039   4
  -3  -4   2 6570.47 356.442   2
   3   4  -1 100920. 1495.25   1
   3   4  -1 102530. 1314.06   4
  -3  -4   0 647301. 3356.72   2
  -3  -4  -1 65792.7 1144.93   1
  -3  -4  -1 63474.6 1033.30   2
   3   4   1 62222.8 1086.27   4
  -3  -4  -2 687713. 3398.44   2
   3   4   3 27411.5 469.309   3
  -3  -4  -3 26671.0 687.347   1
   3   4   4 227806. 1590.92   3
   3   4   4 233573. 2320.56   4
  -3  -4  -4 233394. 1991.22   2
   3   4   6 206321. 1875.08   3
  -3  -4  -6 199754. 1729.66   1
   3   4   6 202263. 2273.16   4
  -3  -4  -7 165681. 1770.70   2
   3   4   7 156153. 1810.63   3
   3   4   7 158702. 2035.04   4
  -3  -4  -7 167712. 1523.64   1
   3   4   8 88901.1 1485.90   3
  -3  -4  -8 91440.6 1369.82   2
   3   4   8 87540.5 1574.01   4
  -3  -4  -8 93529.7 1103.87   1
   3   4   9 553651. 4062.69   4
   3   4   9 565211. 3973.14   3
   3   4  10 79.9122 149.792   3
  -3  -4 -10 171.622 142.867   2
   3   4  10-126.967 132.270   4
   3   4  11 23274.0 922.989   3
  -3  -4 -11 23582.2 804.530   2
   3   4  11 24544.6 899.762   4
   3   4  12-87.1805 172.663   3
  -3  -4 -12-110.949 153.354   2
   3   4  12 161.624 137.042   4
   3   4  13 23150.4 1031.27   3
  -3  -4 -13 23558.1 881.372   2
   3   4  13 24149.9 938.434   4
   3   4  14 1516.01 319.723   3
  -3  -4 -14 1589.10 283.534   2
   3   4  15 13064.5 859.599   3
  -3  -4 -15 12831.2 733.826   2
  -3  -5   7 55.7355 118.743   1
  -3  -5   6 22824.5 773.315   1
   3   5  -6 19617.0 654.032   4
  -3  -5   5 16034.6 639.669   1
  -3  -5   5 15001.6 604.124   2
   3   5  -5 15814.6 569.792   4
  -3  -5   4 121917. 1716.60   1
   3   5  -4 118448. 1511.22   4
   3   5  -3 38349.9 852.676   4
  -3  -5   3 40203.8 970.431   1
  -3  -5   3 38547.6 877.953   2
  -3  -5   2 432023. 3106.50   1
  -3  -5   2 435380. 2823.41   2
  -3  -5   1 39663.8 834.902   2
   3   5  -1 37519.0 462.928   3
  -3  -5   1 37818.3 909.527   1
   3   5  -1 37580.3 841.508   4
   3   5   0 68007.2 1132.40   4
   3   5   0 70298.9 554.234   3
  -3  -5   0 73721.1 1250.74   1
  -3  -5   0 75744.0 1120.04   2
   3   5   1 237278. 1055.04   3
  -3  -5  -1 246437. 2263.18   1
  -3  -5  -1 246686. 1972.91   2
   3   5   1 239428. 2178.09   4
   3   5   2 292970. 1368.16   3
  -3  -5  -2 290526. 2401.66   1
  -3  -5  -2 290151. 2138.72   2
   3   5   3 120620. 1018.05   3
  -3  -5  -3 112880. 1455.34   1
   3   5   3 112156. 1567.66   4
  -3  -5  -3 117898. 1370.25   2
   3   5   4 35770.7 632.277   3
   3   5   4 36360.1 911.852   4
  -3  -5  -4 34902.0 750.296   2
  -3  -5  -5 324.336 92.2830   1
  -3  -5  -5 634.648 121.461   2
   3   5   5 785.248 119.841   3
   3   5   5 533.962 139.272   4
   3   5   6 27460.8 692.789   3
  -3  -5  -6 26562.3 658.853   1
   3   5   6 26727.8 825.464   4
  -3  -5  -6 26239.3 676.989   2
  -3  -5  -7 363700. 2575.99   2
   3   5   7 361790. 2719.64   3
   3   5   7 360298. 3074.38   4
  -3  -5  -7 363117. 2390.32   1
  -3  -5  -8 15047.2 550.946   2
   3   5   8 15601.7 619.988   3
   3   5   8 15366.3 657.407   4
  -3  -5  -8 14759.1 472.579   1
  -3  -5  -9 75478.8 1278.91   2
   3   5   9 71905.3 1397.82   3
   3   5   9 74914.3 1497.24   4
  -3  -5  -9 74634.5 1044.53   1
   3   5  10 47421.5 1205.87   3
  -3  -5 -10 48751.3 1088.57   2
   3   5  10 46157.2 1181.38   4
  -3  -5 -10 47422.6 832.597   1
   3   5  11 47975.9 1293.07   3
  -3  -5 -11 47586.4 1130.14   2
   3   5  11 48626.6 1228.96   4
   3   5  12 23154.1 961.348   3
  -3  -5 -12 22798.2 832.821   2
   3   5  12 24857.1 901.264   4
   3   5  13 62961.1 1648.65   3
  -3  -5 -13 64896.8 1451.49   2
   3   5  13 67600.1 1513.88   4
   3   5  14 124954. 2438.05   3
  -3  -5 -14 129850. 2164.77   2
   3   5  15 15845.2 929.045   3
  -3  -5 -15 17269.6 848.314   2
  -3  -6   6 9167.32 511.597   1
   3   6  -6 8823.61 471.013   4
  -3  -6   5 9125.56 493.634   1
   3   6  -5 9148.26 479.146   4
  -3  -6   4 2657.14 282.048   1
   3   6  -4 2821.35 267.877   4
  -3  -6   3 5799.36 388.426   1
  -3  -6   3 6177.89 359.063   2
   3   6  -3 6147.26 373.847   4
  -3  -6   2 307799. 2674.65   1
  -3  -6   2 309050. 2318.26   2
   3   6  -2 308469. 2571.14   4
   3   6   0 336920. 1644.87   3
  -3  -6   0 339422. 2769.60   1
  -3  -6  -1 62297.7 1158.92   1
   3   6   1 61977.8 696.081   3
  -3  -6  -1 63558.0 981.133   2
   3   6   2 2689.37 158.903   3
  -3  -6  -2 2467.97 244.073   1
  -3  -6  -2 2924.59 213.743   2
   3   6   2 2738.54 251.205   4
   3   6   3 138079. 1190.06   3
   3   6   3 133022. 1724.34   4
  -3  -6  -3 136284. 1411.55   2
  -3  -6  -3 134822. 1668.12   1
   3   6   4 129939. 1263.99   3
  -3  -6  -4 128696. 1589.69   1
   3   6   4 131436. 1754.47   4
  -3  -6  -5 2892.61 244.174   1
   3   6   5 2382.16 193.620   3
   3   6   5 2271.07 250.637   4
  -3  -6  -5 2193.54 194.084   2
   3   6   6 88061.5 1240.00   3
  -3  -6  -6 83449.5 1227.71   1
   3   6   6 86489.7 1466.93   4
  -3  -6  -6 85344.2 1197.86   2
  -3  -6  -7 33558.4 778.693   2
   3   6   7 30398.0 795.298   3
   3   6   7 31089.1 902.099   4
  -3  -6  -7 31763.1 750.796   1
  -3  -6  -8 181629. 1889.18   2
  -3  -6  -8 179964. 1754.52   1
   3   6   8 184905. 2228.60   4
   3   6   9 69287.9 1387.23   3
  -3  -6  -9 67380.3 1198.32   2
   3   6   9 63760.0 1344.87   4
  -3  -6  -9 65843.8 1047.89   1
   3   6  10 133677. 2053.28   3
  -3  -6 -10 134700. 1778.28   2
   3   6  10 130318. 1948.85   4
  -3  -6 -10 132758. 1498.34   1
  -3  -6 -11 29624.5 709.487   1
   3   6  11 30294.9 1039.74   3
  -3  -6 -11 29580.5 888.913   2
   3   6  11 31435.0 983.183   4
   3   6  12 45062.1 1342.06   3
   3   6  12 43217.8 1168.35   4
   3   6  13 1982.74 319.799   3
  -3  -6 -13 1727.87 280.330   2
   3   6  13 1948.69 282.264   4
   3   6  14 141172. 2603.23   3
  -3  -6 -14 143031. 2259.24   2
   3   6  15 101870. 2328.77   3
  -3  -6 -15 101536. 1979.59   2
   3   6  16 61636.9 1899.61   3
  -3  -7   6 309.876 143.925   1
   3   7  -6 74.9132 125.524   4
  -3  -7   5 23490.3 805.724   1
   3   7  -5 21668.7 776.235   4
  -3  -7   4 226705. 2427.59   1
   3   7  -4 219827. 2378.10   4
  -3  -7   3 63140.9 1263.74   1
   3   7  -3 63237.4 1251.38   4
  -3  -7   2 20654.8 720.466   1
   3   7  -2 19574.0 687.801   4
  -3  -7   1 51888.6 1119.90   1
   3   7  -1 52191.8 1113.00   4
  -3  -7   0 553817. 3627.45   1
  -3  -7   0 554046. 2808.11   2
   3   7   1 517137. 2343.73   3
  -3  -7  -1 523098. 3470.98   1
  -3  -7  -1 523807. 2663.06   2
   3   7   1 521360. 3460.69   4
   3   7   2 41213.5 689.501   3
  -3  -7  -2 40502.9 955.836   1
  -3  -7  -2 41650.6 740.368   2
  -3  -7  -3 21101.3 686.144   1
   3   7   3 22158.4 522.102   3
   3   7   3 21785.5 711.252   4
  -3  -7  -3 22694.5 561.825   2
   3   7   4 142202. 1412.00   3
   3   7   4 143854. 1869.67   4
  -3  -7  -4 138638. 1710.87   1
  -3  -7  -4 140101. 1399.33   2
   3   7   5 22028.4 596.611   3
   3   7   5 22167.0 744.857   4
  -3  -7  -5 20728.0 666.696   1
  -3  -7  -5 20473.0 549.415   2
  -3  -7  -6 27931.2 668.565   2
   3   7   6 30307.2 752.428   3
   3   7   6 29845.3 865.872   4
  -3  -7  -6 27156.2 739.257   1
  -3  -7  -7 204122. 1858.65   2
   3   7   7 206920. 2096.61   3
  -3  -7  -7 202276. 1984.44   1
   3   7   8 157162. 1970.75   3
   3   7   8 161008. 2059.30   4
  -3  -7  -8 157857. 1748.69   1
   3   7   9 479.483 142.995   3
  -3  -7  -9 757.738 139.688   2
   3   7   9 893.081 195.983   4
   3   7  10 91.8088 127.769   3
  -3  -7 -10 112.420 110.228   2
   3   7  10 153.306 109.676   4
  -3  -7 -11 56839.8 1041.69   1
   3   7  11 54135.7 1395.54   3
  -3  -7 -11 54162.8 1178.85   2
   3   7  11 57680.3 1316.54   4
   3   7  12 87434.0 1859.93   3
  -3  -7 -12 88388.6 1585.51   2
   3   7  12 88244.6 1650.84   4
   3   7  13 36109.8 1262.89   3
  -3  -7 -13 34506.0 1043.68   2
   3   7  13 34663.8 1060.01   4
   3   7  14 193.307 187.626   3
  -3  -7 -14-27.3042 164.550   2
   3   7  15 53018.7 1694.50   3
  -3  -7 -15 57594.0 1479.82   2
   3   7  16 168657. 3132.52   3
   3   8  -5 6987.65 475.660   4
  -3  -8   5 6634.06 447.081   1
  -3  -8   4 42517.1 1074.48   1
   3   8  -4 41917.5 1136.77   4
  -3  -8   3 256796. 2608.16   1
   3   8  -3 252489. 2649.48   4
  -3  -8   2 29450.2 877.102   1
   3   8  -2 28477.0 881.480   4
  -3  -8   1 44424.8 1062.92   1
   3   8  -1 43639.0 1069.32   4
  -3  -8   0 759773. 4318.55   1
   3   8   0 739671. 4345.17   4
  -3  -8  -1 148254. 1890.09   1
   3   8   1 140326. 1874.42   4
   3   8   2 3152.95 222.882   3
  -3  -8  -2 2962.33 284.413   1
   3   8   2 2738.65 274.429   4
  -3  -8  -2 3119.00 204.318   2
   3   8   3 161514. 1561.28   3
  -3  -8  -3 160723. 1939.36   1
   3   8   3 152845. 1956.36   4
  -3  -8  -3 153549. 1371.43   2
   3   8   4 57201.6 965.741   3
  -3  -8  -4 55355.6 1121.47   1
   3   8   4 57345.9 1196.16   4
  -3  -8  -4 55727.0 851.494   2
  -3  -8  -5 27423.3 615.205   2
   3   8   5 28520.9 727.343   3
   3   8   5 26626.8 826.772   4
  -3  -8  -5 28032.9 796.736   1
  -3  -8  -6 53974.6 901.035   2
   3   8   6 55089.7 1043.80   3
  -3  -8  -6 52644.3 1088.47   1
   3   8   6 53670.0 1178.86   4
  -3  -8  -7 497981. 2834.16   2
   3   8   7 493515. 3606.06   4
  -3  -8  -7 499401. 3260.71   1
  -3  -8  -8 217713. 2002.68   2
   3   8   8 220941. 2357.48   3
  -3  -8  -8 217947. 2147.79   1
  -3  -8  -9 141761. 1695.20   2
   3   8   9 141446. 2010.16   3
   3   8   9 142504. 1978.12   4
  -3  -8  -9 143418. 1743.49   1
   3   8  10 9877.33 578.447   3
  -3  -8 -10 9783.03 481.908   2
   3   8  10 11080.4 569.505   4
  -3  -8 -10 10090.4 471.767   1
  -3  -8 -11 1689.86 215.065   1
  -3  -8 -11 2115.55 243.186   2
   3   8  11 1409.50 246.564   3
   3   8  11 1874.87 262.816   4
   3   8  12 163663. 2542.77   3
  -3  -8 -12 155381. 1868.85   1
  -3  -8 -12 157933. 2090.80   2
   3   8  12 158098. 2176.04   4
   3   8  13 161791. 2674.38   3
  -3  -8 -13 162516. 2252.70   2
   3   8  14 117.057 223.017   3
  -3  -8 -14 220.602 181.320   2
   3   8  15 50728.9 1646.52   3
  -3  -8 -15 49771.9 1375.31   2
   3   8  16 3528.68 498.035   3
   3   9  -5 36642.2 1137.99   4
  -3  -9   4 5393.46 408.516   1
   3   9  -4 5970.94 463.930   4
  -3  -9   3 24542.8 832.945   1
   3   9  -3 27084.4 938.533   4
  -3  -9   2 1534.71 245.102   1
   3   9  -2 1515.65 244.002   4
  -3  -9   1 27813.4 860.518   1
   3   9  -1 26675.3 896.701   4
  -3  -9   0 511561. 3624.17   1
   3   9   0 510673. 3813.30   4
  -3  -9  -1 352179. 3011.07   1
   3   9   1 352789. 3154.81   4
  -3  -9  -2 22799.8 764.213   1
   3   9   2 23429.6 807.514   4
  -3  -9  -3 6035.44 404.056   1
   3   9   3 6391.60 421.960   4
  -3  -9  -4 27262.6 570.666   2
   3   9   4 26828.9 716.441   3
   3   9   4 25653.9 831.067   4
  -3  -9  -5 59193.6 877.367   2
   3   9   5 60192.6 1095.83   3
  -3  -9  -5 60653.2 1227.58   1
   3   9   5 61690.1 1280.91   4
  -3  -9  -6 5493.67 289.931   2
   3   9   6 5523.05 360.431   3
   3   9   6 4849.66 374.766   4
  -3  -9  -6 4855.02 355.371   1
  -3  -9  -7 72554.3 1087.97   2
   3   9   7 71056.8 1299.72   3
   3   9   7 69381.1 1365.34   4
  -3  -9  -7 70079.1 1296.31   1
   3   9   8 271.822 145.761   3
  -3  -9  -8 127.821 105.550   1
  -3  -9  -8-5.81613 103.139   2
   3   9   8-137.991 113.636   4
  -3  -9  -9 530301. 3250.31   2
   3   9   9 522671. 3991.22   3
   3   9   9 544678. 3919.76   4
  -3  -9  -9 537598. 3537.85   1
  -3  -9 -10 131060. 1710.96   2
   3   9  10 134437. 1971.73   4
  -3  -9 -10 132207. 1785.63   1
  -3  -9 -11 11360.3 533.963   1
   3   9  11 13340.6 714.042   3
  -3  -9 -11 11851.7 549.402   2
   3   9  11 12652.9 634.329   4
  -3  -9 -12 4123.76 347.834   1
   3   9  12 4757.57 459.459   3
  -3  -9 -12 3791.20 346.221   2
   3   9  12 4033.43 370.810   4
   3   9  13 74434.4 1845.06   3
  -3  -9 -13 77584.6 1548.25   2
   3   9  13 78231.9 1562.32   4
   3   9  14 549.336 254.516   3
  -3  -9 -14 816.453 211.327   2
   3   9  15 124584. 2552.88   3
  -3  -9 -15 124067. 2144.69   2
   3   9  16 13834.4 901.777   3
  -3 -10   4 1831.30 265.087   1
   3  10  -4 1859.67 299.395   4
  -3 -10   3 32894.5 986.256   1
   3  10  -3 31027.0 1067.52   4
  -3 -10   2 6955.46 468.059   1
   3  10  -2 8176.19 548.874   4
  -3 -10   1-16.0749 126.359   1
   3  10  -1 177.046 147.140   4
  -3 -10   0 41271.1 1080.77   1
   3  10   0 41017.7 1135.14   4
  -3 -10  -1 23218.7 801.968   1
   3  10   1 22555.4 841.404   4
  -3 -10  -2 47202.5 1136.29   1
   3  10   2 45165.1 1170.96   4
  -3 -10  -3 24567.0 814.373   1
   3  10   3 22523.4 822.788   4
   3  10   4 708.676 186.971   4
  -3 -10  -4 608.474 151.210   1
   3  10   5 59969.9 1318.13   4
  -3 -10  -5 62146.1 1286.42   1
   3  10   6 173470. 2051.84   3
   3  10   6 171410. 2211.48   4
  -3 -10  -6 170074. 2111.66   1
  -3 -10  -7 11099.6 422.849   2
   3  10   7 12099.4 576.467   3
   3  10   7 11908.9 583.576   4
  -3 -10  -7 11198.6 551.286   1
  -3 -10  -8 47885.2 920.605   2
   3  10   8 46790.1 1157.63   3
   3  10   8 46302.0 1157.75   4
  -3 -10  -8 47722.2 1122.91   1
  -3 -10  -9 15714.8 564.399   2
   3  10   9 16365.7 725.578   3
   3  10   9 17039.7 710.593   4
  -3 -10  -9 15719.4 649.284   1
   3  10  10 66745.3 1532.27   3
  -3 -10 -10 65960.7 1205.84   2
   3  10  10 62467.9 1364.94   4
  -3 -10 -10 66491.3 1336.15   1
  -3 -10 -11 9661.30 525.975   1
   3  10  11 10208.1 638.214   3
  -3 -10 -11 9173.67 494.446   2
   3  10  11 10640.9 580.905   4
   3  10  12 42050.8 1322.33   3
  -3 -10 -12 39201.1 1048.82   2
   3  10  12 39938.1 1110.16   4
   3  10  13 118478. 2332.43   3
  -3 -10 -13 111367. 1792.39   1
  -3 -10 -13 116360. 1891.97   2
   3  10  14 65885.7 1815.39   3
  -3 -10 -14 68094.4 1508.45   2
   3  10  15 11615.8 813.190   3
  -3 -10 -15 11590.8 673.066   2
   3  10  16 81647.4 2172.59   3
  -3 -11   5 68.1647 214.482   4
   3  11  -4 28070.9 1095.58   4
  -3 -11   3 6514.97 471.467   1
   3  11  -3 6088.61 506.533   4
  -3 -11   2 29371.1 954.948   1
   3  11  -2 29337.6 1074.66   4
  -3 -11   1 80.4909 150.604   1
   3  11  -1 323.092 187.886   4
  -3 -11   0 2238.68 296.386   1
   3  11   0 2925.06 339.622   4
  -3 -11  -1 45572.3 1171.63   1
   3  11   1 47863.2 1275.47   4
  -3 -11  -2 129906. 1937.82   1
   3  11   2 132305. 2085.19   4
  -3 -11  -3 84136.6 1543.99   1
   3  11   3 83429.4 1637.21   4
  -3 -11  -4 7272.99 472.067   1
   3  11   4 6936.30 480.214   4
  -3 -11  -5 10052.0 545.673   1
   3  11   5 10151.7 579.397   4
  -3 -11  -6 561.529 170.800   1
   3  11   6 459.427 182.997   4
   3  11   7 5607.84 413.300   3
   3  11   7 5332.41 418.703   4
  -3 -11  -7 5452.70 407.548   1
   3  11   8 2334.93 311.674   3
   3  11   8 1397.10 239.361   4
  -3 -11  -8 2104.39 275.741   1
   3  11   9 59783.4 1424.63   3
   3  11   9 56128.2 1309.14   4
  -3 -11  -9 58832.8 1313.11   1
   3  11  10 38155.8 1189.65   3
  -3 -11 -10 37259.1 910.421   2
   3  11  10 37866.6 1075.37   4
  -3 -11 -10 40294.8 1088.54   1
  -3 -11 -11 2633.66 296.329   1
   3  11  11 2783.96 365.017   3
  -3 -11 -11 3407.55 318.645   2
   3  11  11 3794.09 361.931   4
  -3 -11 -12 3072.14 337.158   1
   3  11  12 3537.78 424.499   3
  -3 -11 -12 4082.16 357.862   2
   3  11  12 3340.01 338.356   4
   3  11  13 86039.5 2029.03   3
  -3 -11 -13 83659.4 1629.71   1
  -3 -11 -13 85781.1 1602.79   2
   3  11  13 84681.0 1629.83   4
   3  11  14 35719.1 1364.22   3
  -3 -11 -14 35805.8 1097.85   2
   3  11  15-152.053 246.287   3
  -3 -11 -15 130.670 202.384   2
   3  12  -3 4629.39 484.038   4
  -3 -12   2 1069.80 248.812   1
   3  12  -2 1025.71 271.447   4
  -3 -12   1 118785. 1961.75   1
   3  12  -1 115110. 2197.49   4
  -3 -12   0 53547.2 1307.88   1
   3  12   0 52399.6 1432.60   4
  -3 -12  -1 1611.01 255.254   1
   3  12   1 1070.59 237.054   4
  -3 -12  -2 39.3630 153.378   1
   3  12   2-133.393 137.197   4
  -3 -12  -3 151.843 143.720   1
   3  12   3 461.557 188.833   4
  -3 -12  -4 65893.2 1419.03   1
   3  12   4 64366.5 1487.29   4
   3  12   5 50555.4 1319.49   4
  -3 -12  -5 52639.7 1272.41   1
  -3 -12  -6 471.541 163.493   1
   3  12   6 1043.85 213.103   4
  -3 -12  -7 682.931 198.465   1
   3  12   7 684.547 176.907   4
   3  12   8 20809.6 846.965   3
   3  12   8 21202.9 837.409   4
  -3 -12  -8 21892.1 840.882   1
   3  12   9 17822.3 818.014   3
   3  12   9 19430.1 802.443   4
  -3 -12  -9 17523.3 763.426   1
  -3 -12 -10 59280.4 1380.93   1
   3  12  10 57328.1 1527.94   3
   3  12  10 57071.4 1358.84   4
  -3 -12 -11 61003.2 1418.44   1
   3  12  11 62206.6 1615.04   3
   3  12  11 62321.4 1413.77   4
  -3 -12 -12 18092.5 797.416   1
   3  12  12 18219.4 911.088   3
   3  12  12 19574.4 806.554   4
  -3 -12 -13 18876.5 822.447   1
   3  12  13 19950.7 1006.95   3
  -3 -12 -13 18822.0 759.406   2
   3  12  13 18970.3 793.397   4
  -3 -12 -14 60851.1 1483.62   1
  -3 -12 -14 59821.2 1385.42   2
   3  12  15 3559.47 511.402   3
  -3 -12 -15 2795.81 376.861   2
  -3 -13   1 15018.0 739.602   1
  -3 -13   0 1759.80 291.257   1
   3  13   0 2157.40 362.801   4
  -3 -13  -1 54196.4 1356.11   1
   3  13   1 53038.8 1493.20   4
  -3 -13  -2 702.141 202.886   1
   3  13   2 839.167 247.528   4
  -3 -13  -3 13030.7 676.802   1
   3  13   3 12568.7 706.127   4
   3  13   4 9106.59 587.526   4
  -3 -13  -4 7620.20 525.090   1
   3  13   5 82156.5 1735.27   4
  -3 -13  -5 79906.1 1636.71   1
   3  13   6 2318.53 316.127   4
  -3 -13  -6 2809.25 330.511   1
   3  13   7 148425. 2311.25   4
  -3 -13  -7 150261. 2258.93   1
   3  13   8 7097.40 512.836   4
  -3 -13  -8 8066.17 548.426   1
  -3 -13  -9-393.663 196.138   1
   3  13   9-38.8636 140.993   4
  -3 -13 -10 7136.67 526.577   1
   3  13  10 7238.30 570.894   3
   3  13  10 6945.49 499.095   4
  -3 -13 -11 96540.5 1860.34   1
   3  13  11 91330.6 1758.81   4
  -3 -13 -12 53693.5 1421.05   1
   3  13  12 54132.9 1625.15   3
   3  13  12 54648.8 1366.11   4
  -3 -13 -13 11521.3 676.540   1
   3  13  13 12025.1 802.950   3
   3  13  13 11835.6 652.411   4
   3  13  14 46142.4 1598.12   3
  -3 -13 -14 49718.1 1400.97   1
  -3 -14   0 295.951 224.050   1
  -3 -14  -1 41870.7 1228.93   1
  -3 -14  -2 27692.0 1014.77   1
   3  14   2 29866.7 1155.57   4
   3  14   3 2205.82 351.393   4
  -3 -14  -3 2021.96 319.589   1
  -3 -14  -4 656.539 224.459   1
   3  14   4 1274.93 299.721   4
  -3 -14  -5 339.131 184.337   1
   3  14   5-5.46154 151.274   4
   3  14   6 31731.9 1121.34   4
  -3 -14  -6 32161.8 1097.63   1
  -3 -14  -7 97.8411 177.908   1
   3  14   7 140.283 167.576   4
   3  14   8 39806.6 1225.02   4
  -3 -14  -8 41407.8 1255.80   1
  -3 -14  -9 215460. 2861.82   1
   3  14   9 220170. 2857.88   4
  -3 -14 -10 53560.0 1434.76   1
   3  14  10 52759.0 1394.86   4
  -3 -14 -11 7820.04 578.827   1
   3  14  11 7631.71 543.838   4
  -3 -14 -12 29173.2 1106.19   1
   3  14  12 28936.3 1029.24   4
  -3 -14 -13 4651.59 460.727   1
   3  14  13 5954.75 597.456   3
   3  14  13 5914.06 491.099   4
   3  15   6 106580. 2135.14   4
  -3 -15  -6 103284. 2027.77   1
  -3 -15  -7 2659.06 381.826   1
   3  15   7 2816.83 367.196   4
  -3 -15  -8 52274.8 1470.40   1
   3  15   8 54176.8 1493.32   4
   3  15   9 142532. 2402.35   4
   3  15  10 67899.2 1636.11   4
   3  15  11 10917.4 674.455   4
   3  15  12 25464.7 1005.31   4
  -4  14   7 17621.5 1069.68   3
   4 -14  -7 16370.2 1012.17   1
  -4  14   6 18852.5 1107.96   3
   4 -14  -6 20257.8 1091.39   1
  -4  14   5-202.024 282.479   3
   4 -14  -5 540.941 312.748   1
   4 -14  -4 1174.41 333.761   4
   4 -14  -4 1086.30 320.372   1
   4 -14  -3 3763.77 512.206   4
   4 -14  -2 7413.20 709.044   4
  -4  13  11 8735.76 764.083   2
  -4  13  10 4109.98 515.956   3
  -4  13   9 77313.8 2117.65   3
   4 -13  -9 77788.4 2182.46   1
  -4  13   8 62013.2 1883.44   3
   4 -13  -8 63157.1 1923.01   1
  -4  13   7 23341.8 1151.56   3
   4 -13  -7 26203.8 1232.00   1
  -4  13   6 31663.4 1349.19   3
   4 -13  -6 31449.2 1307.79   1
  -4  13   5 824.628 276.385   3
   4 -13  -5 754.386 267.581   1
  -4  13   4 49365.0 1679.34   3
   4 -13  -4 45559.3 1514.39   4
   4 -13  -4 48661.2 1556.95   1
  -4  13   3 5869.03 611.747   3
   4 -13  -3 4458.56 524.619   4
   4 -13  -3 4645.38 515.490   1
  -4  13   2 3685.99 502.143   3
   4 -13  -2 3015.33 453.947   4
  -4  13   1 54784.8 1808.36   3
   4 -13  -1 53669.2 1790.21   4
   4 -13   0 65807.8 2028.45   4
  -4  12  12 472.633 288.306   3
  -4  12  12 674.051 322.854   2
  -4  12  11 1001.50 348.142   3
  -4  12  11 427.269 305.277   2
   4 -12 -10 1244.14 355.992   1
  -4  12  10 1529.01 335.809   3
  -4  12  10 1520.24 360.818   2
  -4  12   9 14613.4 893.699   3
  -4  12   9 13207.6 850.641   2
   4 -12  -9 14074.4 916.184   1
  -4  12   8 15704.4 915.131   3
  -4  12   8 16516.0 913.712   2
   4 -12  -8 15496.1 936.761   1
  -4  12   7 58515.3 1724.99   3
   4 -12  -7 57383.0 1747.01   1
  -4  12   6 7846.32 652.613   3
   4 -12  -6 7357.54 630.408   1
  -4  12   5 6882.44 612.388   3
   4 -12  -5 6016.47 581.848   1
  -4  12   4 43914.3 1505.25   3
   4 -12  -4 42086.1 1370.44   4
   4 -12  -4 40194.3 1368.19   1
  -4  12   3 91201.0 2201.68   3
   4 -12  -3 87771.3 1980.33   1
   4 -12  -3 85302.0 2016.63   4
  -4  12   2 58948.0 1763.50   3
   4 -12  -2 57211.0 1707.14   4
   4 -12  -2 55728.6 1538.13   1
  -4  12   1 40086.4 1470.62   3
   4 -12  -1 39765.6 1469.74   4
  -4  12   0 10001.1 780.162   3
   4 -12   0 8521.46 723.038   4
  -4  12  -1 67058.5 1966.28   3
   4 -12   1 65983.7 1983.15   4
  -4  11  13 42719.7 1572.25   3
   4 -11 -12 328.484 307.361   1
  -4  11  12 61.3260 230.872   3
  -4  11  12 194.401 272.551   2
  -4  11  11 10679.3 766.224   3
  -4  11  11 9989.55 767.074   2
   4 -11 -11 10380.5 817.797   1
  -4  11  10 12517.4 815.962   3
  -4  11  10 11829.6 812.152   2
   4 -11 -10 11769.0 842.078   1
   4 -11  -9 366.905 246.333   1
  -4  11   9 326.515 209.677   3
  -4  11   9 498.634 277.078   2
  -4  11   8 27051.4 1136.19   3
   4 -11  -8 26747.9 1200.11   1
  -4  11   8 26009.2 1127.57   2
  -4  11   7 79145.5 1939.99   3
  -4  11   7 80121.5 1902.83   2
   4 -11  -7 75913.3 1953.29   1
  -4  11   6 127800. 2419.61   3
   4 -11  -6 133410. 2504.90   1
  -4  11   6 132445. 2398.71   2
  -4  11   5 38235.9 1333.30   3
  -4  11   5 36406.0 1212.75   2
   4 -11  -5 38930.3 1326.37   1
  -4  11   4 2400.23 374.835   3
   4 -11  -4 2352.30 328.178   4
   4 -11  -4 2256.18 356.507   1
  -4  11   3 3590.75 438.044   3
   4 -11  -3 3443.01 413.101   4
   4 -11  -3 3672.09 417.946   1
  -4  11   2 1171.37 283.788   3
   4 -11  -2 1550.35 332.351   4
   4 -11  -2 734.407 229.900   1
  -4  11   1 8026.91 637.214   3
   4 -11  -1 7683.74 627.219   4
   4 -11  -1 7515.23 556.242   1
  -4  11   0-51.8390 188.126   3
   4 -11   0 84.9340 239.353   4
  -4  11  -1 78811.5 2036.70   3
   4 -11   1 79520.3 2068.46   4
  -4  11  -2 5761.11 601.057   3
   4 -11   2 4896.83 549.141   4
  -4  11  -3 14348.0 932.762   3
   4 -11   3 12668.9 898.847   4
  -4  10  13 4491.14 519.539   3
  -4  10  12 606.010 256.254   3
   4 -10 -12 403.646 281.032   1
  -4  10  12 363.842 267.017   2
   4 -10 -11 6852.23 661.820   1
  -4  10  11 7110.81 597.841   3
  -4  10  11 5708.66 586.230   2
   4 -10 -10 1635.91 376.953   1
  -4  10  10 1368.63 300.594   3
  -4  10  10 1927.33 384.518   2
   4 -10  -9 2505.79 388.461   1
  -4  10   9 2808.45 390.120   3
  -4  10   9 2935.78 414.592   2
   4 -10  -8-76.2869 211.065   1
  -4  10   8 242.306 183.322   3
  -4  10   8 133.577 205.330   2
  -4  10   7 7595.06 586.900   3
   4 -10  -7 8363.35 657.450   1
  -4  10   6 8747.05 626.149   3
  -4  10   6 8108.99 611.063   2
   4 -10  -6 9048.91 654.136   1
  -4  10   5 161931. 2588.06   3
   4 -10  -5 160408. 2279.12   4
  -4  10   5 168258. 2603.39   2
   4 -10  -5 168347. 2681.96   1
  -4  10   4 73297.7 1758.82   3
   4 -10  -4 72514.5 1615.31   4
  -4  10   4 72796.1 1651.11   2
   4 -10  -4 73450.3 1727.57   1
  -4  10   3 4901.92 481.121   3
   4 -10  -3 5448.98 479.457   4
  -4  10   3 4710.97 432.586   2
   4 -10  -3 5418.31 478.511   1
  -4  10   2 24627.3 1041.34   3
   4 -10  -2 23940.2 995.166   4
  -4  10   2 24270.5 906.635   2
   4 -10  -2 23382.8 933.665   1
  -4  10   1 62428.0 1664.76   3
   4 -10  -1 62713.7 1660.42   4
   4 -10  -1 61795.6 1467.21   1
  -4  10   0 10587.0 719.826   3
   4 -10   0 9982.43 697.552   4
   4 -10   0 8771.27 567.552   1
  -4  10  -1 213721. 3170.57   3
   4 -10   1 209031. 3198.25   4
  -4  10  -2 89523.5 2116.51   3
   4 -10   2 81114.5 2073.00   4
  -4  10  -3 15763.0 930.535   3
   4 -10   3 14341.6 911.747   4
  -4  10  -4 17408.7 1019.65   3
   4 -10   4 17036.2 1021.42   4
  -4  10  -5 26596.4 1272.80   3
  -4   9  13 29317.8 1232.35   3
   4  -9 -13 28910.5 1349.10   1
  -4   9  13 29111.4 1334.92   2
   4  -9 -12 61910.9 1910.39   1
  -4   9  12 63534.4 1721.64   3
  -4   9  12 61102.6 1865.52   2
  -4   9  11 666.028 265.685   3
   4  -9 -11 1303.14 342.824   1
  -4   9  11 529.679 282.873   2
   4  -9 -10 21585.5 1087.82   1
  -4   9  10 20411.9 941.329   3
  -4   9  10 21496.2 1052.54   2
  -4   9   9 49604.8 1414.91   3
  -4   9   9 51306.4 1588.10   2
   4  -9  -9 53165.5 1647.15   1
  -4   9   8 48730.3 1389.46   3
  -4   9   8 47434.4 1475.09   2
   4  -9  -8 47322.0 1528.46   1
  -4   9   7 35720.7 1173.30   3
  -4   9   7 34023.1 1223.16   2
   4  -9  -7 35048.6 1268.57   1
   4  -9  -6 532.008 209.054   1
  -4   9   6 729.588 205.009   3
  -4   9   6 680.679 222.190   2
  -4   9   5 81543.0 1737.47   3
  -4   9   5 82697.8 1815.03   2
   4  -9  -5 79406.6 1795.42   1
  -4   9   4 66204.2 1570.48   3
   4  -9  -4 68653.7 1475.66   4
  -4   9   4 68283.8 1601.26   2
   4  -9  -4 70379.9 1643.06   1
  -4   9   3 7656.67 559.849   3
   4  -9  -3 7899.11 535.312   4
  -4   9   3 8378.31 558.344   2
   4  -9  -3 8516.47 563.295   1
   4  -9  -2 290709. 3318.03   4
   4  -9  -2 289217. 3165.30   1
  -4   9   1 1816.49 291.733   3
   4  -9  -1 1407.02 266.008   4
  -4   9   1 2048.47 288.225   2
   4  -9  -1 2161.53 305.999   1
  -4   9   0 21232.8 933.971   3
   4  -9   0 22061.6 977.683   4
  -4   9   0 24670.4 858.622   2
   4  -9   0 23289.3 872.937   1
   4  -9   1 37187.5 1314.88   4
  -4   9  -1 38576.5 1046.87   2
  -4   9  -2 24020.9 1047.38   3
   4  -9   2 25574.3 1128.22   4
  -4   9  -3 2466.77 387.197   3
   4  -9   3 2185.14 395.229   4
  -4   9  -4 421.533 257.355   3
   4  -9   4 404.560 261.035   4
  -4   9  -5 31775.0 1335.49   3
   4  -9   5 31541.8 1354.44   4
  -4   9  -6 171.970 259.108   3
   4  -9   6 439.827 264.986   4
   4  -8 -13 5722.48 630.549   1
  -4   8  13 5393.54 590.864   2
   4  -8 -12 121090. 2606.21   1
  -4   8  12 118262. 2568.34   2
   4  -8 -11 97081.7 2283.98   1
  -4   8  11 103320. 2070.64   3
  -4   8  11 95950.7 2261.58   2
   4  -8 -10 152623. 2812.40   1
  -4   8  10 159480. 2524.99   3
  -4   8  10 156582. 2779.24   2
  -4   8   9 1474.37 253.879   3
   4  -8  -9 1864.32 324.357   1
  -4   8   9 1552.37 333.322   2
   4  -8  -8 24542.8 1064.84   1
  -4   8   8 22791.9 906.817   3
  -4   8   8 22593.6 1013.09   2
  -4   8   7 97725.3 1840.13   3
  -4   8   7 95122.7 2024.41   2
  -4   8   6 6009.35 461.611   3
  -4   8   6 6378.67 530.361   2
   4  -8  -6 6214.93 523.929   1
  -4   8   5 124804. 2039.15   3
  -4   8   5 128066. 2223.72   2
   4  -8  -5 129897. 2268.59   1
  -4   8   4 58882.4 1393.23   3
  -4   8   4 55258.9 1420.24   2
   4  -8  -4 56256.4 1267.66   4
   4  -8  -4 58718.8 1469.47   1
  -4   8   3 38798.5 1148.41   3
   4  -8  -3 35334.6 1054.48   4
  -4   8   3 38084.6 1154.34   2
   4  -8  -3 37078.9 1134.94   1
  -4   8   2 102287. 1870.64   3
   4  -8  -2 102020. 1864.20   4
  -4   8   2 102968. 1842.75   2
   4  -8  -2 105171. 1859.27   1
  -4   8   1 33361.7 1076.60   3
  -4   8   1 35900.5 1053.60   2
   4  -8  -1 32616.5 1097.89   4
   4  -8  -1 35051.8 1048.92   1
   4  -8   0 284360. 2889.12   1
   4  -8   0 286423. 3333.75   4
  -4   8   0 286084. 2913.48   2
   4  -8   1 13257.7 609.913   1
  -4   8  -1 13710.8 739.176   3
  -4   8  -1 12691.5 610.664   2
   4  -8   1 12200.8 735.087   4
  -4   8  -2 8324.47 586.061   3
   4  -8   2 7725.47 598.463   4
   4  -8   3 17059.0 897.633   4
  -4   8  -3 18226.3 695.883   2
  -4   8  -4 141465. 2559.55   3
   4  -8   4 142812. 2675.78   4
  -4   8  -5 78900.3 1991.91   3
   4  -8   5 74831.9 1991.91   4
  -4   8  -6 42295.9 1500.41   3
   4  -8   6 39852.2 1493.68   4
  -4   8  -7 15385.8 964.684   3
   4  -8   7 15191.0 959.145   4
   4  -7 -14 24221.3 1226.05   1
   4  -7 -13 8377.40 737.420   1
  -4   7  13 7135.57 675.401   2
   4  -7 -12 12710.0 856.050   1
  -4   7  12 12800.9 851.597   2
  -4   7  11 124500. 2205.26   3
   4  -7 -11 126636. 2562.87   1
  -4   7  11 122847. 2507.21   2
   4  -7 -10 89307.7 2110.63   1
  -4   7  10 91150.3 2107.97   2
  -4   7   9 1109.20 226.177   3
   4  -7  -9 1302.60 300.870   1
  -4   7   9 1055.07 251.267   2
  -4   7   8-14.1961 132.094   3
   4  -7  -8 51.5803 178.938   1
  -4   7   8 273.057 184.416   2
   4  -7  -7 13660.8 783.380   1
  -4   7   7 14337.6 683.454   3
  -4   7   7 14266.3 775.007   2
   4  -7  -6 26163.5 1040.43   1
  -4   7   6 25343.9 878.028   3
  -4   7   6 23530.3 967.574   2
   4  -7  -5 17621.3 824.291   1
  -4   7   5 18043.2 738.698   3
  -4   7   5 16809.1 794.849   2
   4  -7  -5 16828.9 626.954   4
   4  -7  -4 257921. 3031.26   1
  -4   7   4 251717. 2705.54   3
   4  -7  -4 263072. 2602.06   4
  -4   7   4 257790. 3047.90   2
   4  -7  -3 109398. 1906.91   1
  -4   7   3 108943. 1797.16   3
   4  -7  -3 108285. 1745.25   4
  -4   7   3 114378. 1989.26   2
   4  -7  -2 124745. 1972.95   1
   4  -7  -2 122436. 1940.79   4
   4  -7  -1 432136. 3576.52   1
   4  -7  -1 437081. 3806.61   4
   4  -7   0 95612.0 1623.39   1
  -4   7   0 86552.7 1647.76   3
   4  -7   0 89054.3 1792.30   4
  -4   7   0 96749.8 1690.60   2
   4  -7   1 10884.9 537.571   1
  -4   7  -1 10560.8 605.202   3
   4  -7   1 9075.03 608.756   4
  -4   7  -1 11344.1 579.038   2
  -4   7  -2 1505.06 231.521   2
  -4   7  -2 1439.93 262.465   3
   4  -7   2 1089.54 236.326   4
   4  -7   2 1177.82 193.139   1
  -4   7  -3 8906.89 588.442   3
   4  -7   3 7450.94 584.571   4
  -4   7  -3 8645.37 495.979   2
  -4   7  -4 3631.34 409.260   3
   4  -7   4 3694.44 437.230   4
  -4   7  -4 3544.28 317.087   2
  -4   7  -5 9207.21 658.876   3
   4  -7   5 10051.1 722.931   4
  -4   7  -5 9616.08 511.901   2
  -4   7  -6 4989.84 512.164   3
   4  -7   6 5712.89 587.467   4
  -4   7  -7 465.106 260.889   3
   4  -7   7 330.192 226.115   4
  -4   7  -8 4749.69 564.104   3
   4  -7   8 4440.56 535.704   4
   4  -6 -14 24880.7 1248.94   1
   4  -6 -13 23855.3 1181.56   1
  -4   6  13 22240.0 1148.52   2
   4  -6 -12 18252.6 1003.80   1
  -4   6  12 12539.1 840.621   2
   4  -6 -11 67176.1 1857.34   1
  -4   6  11 61577.1 1749.51   2
  -4   6  10 2824.44 337.449   3
   4  -6 -10 2413.81 375.510   1
  -4   6  10 2508.19 374.184   2
  -4   6   9 192814. 2486.04   3
   4  -6  -9 189589. 2958.33   1
  -4   6   9 195990. 2966.10   2
   4  -6  -8 4151.32 448.556   1
  -4   6   8 4791.08 395.972   3
  -4   6   8 4746.39 474.476   2
   4  -6  -7 307491. 3544.02   1
  -4   6   7 304221. 2920.87   3
  -4   6   7 310137. 3532.50   2
   4  -6  -6 41780.9 1278.72   1
  -4   6   6 41362.1 1061.43   3
   4  -6  -5 7226.80 531.506   1
  -4   6   5 8062.47 469.321   3
   4  -6  -5 8230.79 409.721   4
  -4   6   5 7058.39 524.023   2
   4  -6  -4 87579.8 1728.84   1
  -4   6   4 85551.7 1474.66   3
   4  -6  -4 85092.3 1389.87   4
   4  -6  -3 325091. 3229.98   1
  -4   6   3 311641. 2830.56   3
  -4   6   3 332386. 3354.07   2
   4  -6  -3 302043. 2838.26   4
  -4   6   2 491396. 3633.20   3
   4  -6  -2 498597. 3751.13   4
  -4   6   2 489799. 3972.36   2
   4  -6  -1 45683.3 1142.17   1
  -4   6   1 47171.1 1139.72   3
   4  -6  -1 44384.9 1170.58   4
  -4   6   1 43414.7 1178.64   2
   4  -6   0 66897.2 1324.73   1
  -4   6   0 63632.7 1323.37   3
   4  -6   0 67160.5 1507.43   4
  -4   6   0 67796.0 1422.80   2
   4  -6   1 35852.2 940.346   1
  -4   6  -1 36129.4 1054.03   3
   4  -6   1 35847.1 1140.61   4
  -4   6  -1 34719.2 1007.13   2
   4  -6   2 54117.0 1128.24   1
  -4   6  -2 53926.9 1327.10   3
   4  -6   2 53214.8 1421.79   4
  -4   6  -2 52192.6 1201.83   2
  -4   6  -3 102625. 1883.76   3
   4  -6   3 96539.8 1981.95   4
  -4   6  -3 100327. 1633.06   2
  -4   6  -4 18136.9 847.059   3
   4  -6   4 18001.7 890.355   4
  -4   6  -4 18541.5 701.950   2
  -4   6  -5 16640.2 831.937   3
   4  -6   5 15813.7 856.596   4
  -4   6  -5 16958.1 673.567   2
   4  -6   6 5667.28 556.654   4
  -4   6  -6 6870.55 574.944   3
  -4   6  -6 6968.10 451.419   2
  -4   6  -7 93111.5 1609.54   2
  -4   6  -7 87549.7 2035.55   3
   4  -6   7 86645.3 2121.05   4
  -4   6  -8 72551.1 1948.53   3
   4  -6   8 66888.9 1943.77   4
  -4   6  -9 102427. 2378.56   3
   4  -6   9 103423. 2468.59   4
  -4   5  13 51552.6 1705.56   2
   4  -5 -13 51635.9 1707.81   1
   4  -5 -12 4457.36 523.238   1
  -4   5  12 4337.46 506.388   2
   4  -5 -11 4642.47 525.164   1
  -4   5  11 5856.20 561.598   2
   4  -5 -10 221086. 3236.10   1
  -4   5  10 216217. 3175.36   2
   4  -5  -9 1219.67 277.846   1
  -4   5   9 1192.80 230.363   3
  -4   5   9 1475.65 294.397   2
  -4   5   8 5609.25 411.862   3
   4  -5  -8 5850.82 509.223   1
  -4   5   8 5117.74 477.736   2
  -4   5   7 260414. 2578.34   3
  -4   5   7 261961. 3228.19   2
   4  -5  -6 625319. 4811.08   1
  -4   5   6 633594. 4864.35   2
   4  -5  -5 134664. 2184.51   1
  -4   5   5 138112. 1759.03   3
  -4   5   5 136690. 2222.43   2
   4  -5  -5 136410. 1544.55   4
  -4   5   4 25334.9 754.517   3
  -4   5   4 26255.0 963.824   2
   4  -5  -4 26209.8 734.849   4
  -4   5   3 811.247 152.822   3
   4  -5  -3 1086.86 220.556   1
   4  -5  -3 654.567 150.993   4
  -4   5   3 555.280 161.287   2
   4  -5  -2 111691. 1794.54   1
  -4   5   2 111196. 1599.71   3
   4  -5  -2 106354. 1664.39   4
  -4   5   2 105808. 1837.05   2
   4  -5  -1 21683.8 770.562   1
  -4   5   1 21096.9 710.502   3
   4  -5  -1 21152.9 787.702   4
  -4   5   1 18886.5 767.198   2
   4  -5   0 3105.89 289.452   1
  -4   5   0 2665.84 271.618   3
   4  -5   0 2725.17 307.518   4
  -4   5   0 2881.95 314.715   2
   4  -5   1 125586. 1731.49   1
  -4   5  -1 120162. 1792.86   3
   4  -5   1 125792. 2048.64   4
  -4   5  -1 126525. 1891.80   2
  -4   5  -2 219.072 131.040   2
   4  -5   2 321.283 127.551   1
  -4   5  -2 310.017 166.754   3
   4  -5   2 114.072 143.010   4
  -4   5  -3 22450.6 841.093   3
   4  -5   3 23363.8 698.248   1
   4  -5   3 21400.3 914.386   4
  -4   5  -3 23350.4 805.353   2
  -4   5  -4 139.058 115.004   2
  -4   5  -4 164.679 161.300   3
   4  -5   4-31.1052 139.306   4
  -4   5  -5 173789. 2516.78   3
  -4   5  -5 173326. 2145.26   2
  -4   5  -6 66924.9 1633.70   3
   4  -5   6 65164.0 1727.08   4
  -4   5  -6 66755.1 1347.17   2
  -4   5  -7 3536.60 338.041   2
  -4   5  -7 3814.66 433.794   3
   4  -5   7 3545.94 443.759   4
  -4   5  -8 3375.76 331.457   2
  -4   5  -8 3773.56 451.481   3
   4  -5   8 2777.18 424.539   4
  -4   5  -9 55254.8 1300.14   2
  -4   5  -9 55475.5 1700.98   3
   4  -5   9 56713.5 1791.70   4
  -4   5 -10 72013.9 2036.21   3
   4  -5  10 74750.1 2132.46   4
  -4   4  13 11305.6 813.169   2
   4  -4 -13 13693.0 889.640   1
  -4   4  12 9615.38 723.081   2
   4  -4 -12 10811.2 769.866   1
   4  -4 -11 100223. 2241.85   1
  -4   4  11 94624.8 2151.77   2
   4  -4 -10 294904. 3740.16   1
  -4   4  10 270411. 3500.69   2
   4  -4  -9 59123.3 1628.07   1
  -4   4   9 57033.7 1584.63   2
   4  -4  -8 160509. 2592.86   1
  -4   4   8 161171. 2569.55   2
   4  -4  -7 214.448 177.242   1
  -4   4   7-59.3812 92.0646   3
  -4   4   7 113.943 166.523   2
   4  -4  -6 14572.4 757.195   1
  -4   4   6 15730.0 768.531   2
  -4   4   5 85028.9 1301.32   3
  -4   4   5 80354.0 1682.13   2
   4  -4  -5 81584.5 1127.18   4
   4  -4  -4-79.5985 136.055   1
  -4   4   4 231.909 105.435   3
   4  -4  -4-12.2102 103.295   4
  -4   4   4-91.6871 120.759   2
  -4   4   3 277761. 2277.90   3
   4  -4  -3 279302. 2929.73   1
  -4   4   2 1664.77 205.671   3
   4  -4  -2 1913.60 219.555   4
  -4   4   2 2255.94 285.656   2
  -4   4   1 10704.6 465.005   3
   4  -4  -1 9983.75 531.544   1
  -4   4   1 9310.19 545.583   2
   4  -4  -1 10032.7 519.948   4
  -4   4   0 15130.5 565.485   3
   4  -4   0 15561.8 627.729   1
   4  -4   0 15122.6 667.382   4
  -4   4   0 15857.2 692.255   2
  -4   4  -1 19287.3 658.629   3
   4  -4   1 19998.7 687.665   1
   4  -4   1 19246.7 775.614   4
  -4   4  -1 19114.6 737.741   2
  -4   4  -2 76735.3 1378.07   3
   4  -4   2 83051.7 1358.19   1
   4  -4   2 78669.4 1640.25   4
  -4   4  -2 83035.1 1514.86   2
  -4   4  -3 18008.7 714.065   3
   4  -4   3 17213.4 593.132   1
  -4   4  -3 17354.1 694.037   2
   4  -4   3 16718.4 788.414   4
  -4   4  -4-88.3318 108.745   2
   4  -4   4-68.7957 102.379   1
  -4   4  -4 39.5882 123.354   3
  -4   4  -5 17384.7 764.258   3
  -4   4  -5 17058.6 687.001   2
   4  -4   5 16912.0 840.253   4
   4  -4   6 200957. 2939.78   4
  -4   4  -6 195954. 2299.20   2
  -4   4  -7 236487. 2556.50   2
  -4   4  -7 242391. 3147.92   3
   4  -4   7 238370. 3318.80   4
  -4   4  -8 25976.4 875.114   2
  -4   4  -8 23508.0 1017.13   3
   4  -4   8 22955.5 1090.14   4
  -4   4  -9 6968.09 467.334   2
   4  -4   9 6383.14 607.404   4
  -4   4  -9 6441.02 583.414   3
  -4   4 -10 41156.5 1165.44   2
  -4   4 -10 43838.8 1531.85   3
   4  -4  10 44037.8 1561.77   4
  -4   4 -11 80080.9 1660.85   2
  -4   4 -11 78933.0 2099.26   3
   4  -4  11 75218.3 2094.59   4
  -4   3  13 62544.2 1856.87   2
  -4   3  12 152267. 2804.91   2
   4  -3 -12 164140. 2877.54   1
  -4   3  11 77549.6 1946.13   2
   4  -3 -11 85405.7 2027.56   1
  -4   3  10 310601. 3708.85   2
   4  -3 -10 308674. 3746.28   1
  -4   3   9 169289. 2693.86   2
   4  -3  -9 178704. 2794.04   1
   4  -3  -8 281521. 3445.20   1
  -4   3   8 292815. 3413.86   2
  -4   3   7 3884.12 292.201   3
   4  -3  -7 5011.00 461.879   1
  -4   3   7 4807.55 448.346   2
   4  -3  -6 168373. 2513.25   1
  -4   3   6 172611. 2491.12   2
  -4   3   5 11703.4 453.994   3
   4  -3  -5 11478.4 641.511   1
  -4   3   5 13631.9 695.901   2
   4  -3  -5 12805.8 428.836   4
  -4   3   4 86851.1 1185.28   3
   4  -3  -4 84507.2 1653.21   1
   4  -3  -4 86741.1 1215.30   4
  -4   3   4 84021.7 1681.54   2
  -4   3   3 95445.5 1204.53   3
   4  -3  -3 99452.0 1739.21   1
  -4   3   3 96472.2 1755.48   2
  -4   3   2 142225. 1520.83   3
   4  -3  -2 143000. 2014.69   1
  -4   3   2 140208. 2062.21   2
   4  -3  -2 136362. 1729.15   4
  -4   3   1 215723. 1866.81   3
  -4   3   1 212480. 2503.34   2
   4  -3  -1 214519. 2310.65   4
  -4   3   0 3067.95 244.197   3
   4  -3   0 2577.24 265.601   1
   4  -3   0 2895.29 286.707   4
  -4   3   0 2621.58 294.586   2
  -4   3  -1 36169.7 830.489   3
   4  -3   1 34442.1 994.809   4
   4  -3   1 37471.2 939.366   1
  -4   3  -1 36504.5 1005.13   2
  -4   3  -2 112939. 1554.73   3
   4  -3   2 114413. 1894.56   4
   4  -3   2 113388. 1555.69   1
  -4   3  -2 116141. 1799.91   2
  -4   3  -3 592688. 3781.39   3
  -4   3  -3 600603. 3986.58   2
   4  -3   4 391668. 2618.55   1
  -4   3  -4 387807. 3181.49   2
  -4   3  -5 13964.6 651.354   3
   4  -3   5 14846.1 761.160   4
  -4   3  -5 16212.8 670.211   2
  -4   3  -6 11462.9 633.120   3
   4  -3   6 11891.9 711.374   4
  -4   3  -6 11071.3 553.196   2
  -4   3  -7 26302.3 985.838   3
   4  -3   7 27954.4 1098.91   4
  -4   3  -7 27364.3 873.567   2
  -4   3  -8 71027.0 1429.70   2
  -4   3  -8 67115.1 1649.18   3
   4  -3   8 66284.1 1746.09   4
  -4   3  -9 71998.1 1471.44   2
  -4   3  -9 73375.6 1825.51   3
   4  -3   9 74108.3 1895.83   4
  -4   3 -10 110646. 1893.96   2
  -4   3 -10 110205. 2288.55   3
   4  -3  10 106557. 2316.49   4
  -4   3 -11 13370.0 691.330   2
   4  -3  11 13607.2 880.660   4
  -4   3 -11 12576.2 835.366   3
  -4   3 -12 640.741 231.208   2
   4  -3  12 30.1198 228.957   4
  -4   2  13-147.136 236.020   2
   4  -2 -12 124461. 2463.85   1
  -4   2  12 119470. 2483.26   2
  -4   2  11 15494.3 874.181   2
   4  -2 -11 15264.8 867.109   1
  -4   2  10 5083.94 506.501   2
   4  -2 -10 5099.18 509.696   1
  -4   2   9 71864.2 1750.26   2
   4  -2  -9 69756.7 1744.97   1
   4  -2  -8 1158.28 250.741   1
  -4   2   8 1734.82 309.388   2
  -4   2   7 7607.47 548.169   2
   4  -2  -7 7406.12 550.456   1
  -4   2   6 66248.8 1535.60   2
   4  -2  -6 60740.6 1501.13   1
  -4   2   5 35876.1 715.651   3
   4  -2  -5 34170.8 1092.75   1
   4  -2  -5 34111.9 659.103   4
  -4   2   4 39896.9 723.800   3
   4  -2  -4 39374.3 1151.14   1
  -4   2   4 37874.1 1113.42   2
   4  -2  -4 40943.0 798.957   4
  -4   2   3 19429.5 487.215   3
   4  -2  -3 20461.0 811.701   1
  -4   2   3 21425.9 820.855   2
   4  -2  -3 20874.8 625.725   4
  -4   2   2 148298. 1349.90   3
   4  -2  -2 150286. 2068.93   1
   4  -2  -2 151519. 1765.13   4
  -4   2   1 23864.1 553.902   3
   4  -2  -1 23725.7 799.132   1
   4  -2  -1 23605.4 741.873   4
  -4   2   1 22064.6 802.872   2
  -4   2   0 135524. 1385.56   3
   4  -2   0 130603. 1811.18   4
   4  -2   0 138023. 1853.71   1
  -4   2   0 132287. 1939.62   2
  -4   2  -1 24592.7 626.655   3
   4  -2   1 23694.3 811.554   4
  -4   2  -1 23646.3 808.026   2
   4  -2   1 24422.7 754.869   1
  -4   2  -2 17274.2 569.527   3
   4  -2   2 16692.7 704.820   4
  -4   2  -2 17032.3 686.629   2
   4  -2   2 16943.4 611.186   1
   4  -2   3 20949.5 639.685   1
  -4   2  -3 22146.8 674.375   3
   4  -2   3 19390.9 789.499   4
  -4   2  -3 19930.5 726.204   2
   4  -2   4 330045. 2382.01   1
   4  -2   4 325108. 3275.40   4
  -4   2  -4 333936. 2965.80   2
  -4   2  -5 151248. 2024.46   3
   4  -2   5 151896. 1537.69   1
  -4   2  -5 151787. 2014.63   2
  -4   2  -6 201970. 2458.73   3
   4  -2   6 204342. 2756.77   4
  -4   2  -6 202427. 2324.80   2
  -4   2  -7 4021.14 380.751   3
   4  -2   7 4026.85 417.319   4
  -4   2  -7 3778.37 346.033   2
  -4   2  -8 89033.5 1580.62   2
  -4   2  -8 89311.2 1850.26   3
   4  -2   8 85326.6 1896.81   4
  -4   2  -9 312.678 163.035   2
  -4   2  -9 214.864 158.390   3
   4  -2   9 405.270 190.068   4
  -4   2 -10 95204.6 1725.84   2
   4  -2  10 92313.3 2101.41   4
  -4   2 -11 56208.7 1384.34   2
   4  -2  11 55066.4 1660.12   3
  -4   2 -12 11268.9 654.223   2
   4  -2  12 10233.9 771.262   4
   4  -2  12 12444.1 854.783   3
  -4   2 -13 23522.8 968.267   2
   4  -2  13 24052.3 1189.71   4
  -4   1  12 3895.62 501.516   2
   4  -1 -11 41843.2 1398.42   1
  -4   1  11 41518.3 1390.51   2
   4  -1 -10 202481. 2991.58   1
  -4   1  10 192999. 2936.65   2
   4  -1  -9 1046.76 262.309   1
  -4   1   9 1284.72 268.393   2
  -4   1   8 32690.0 1135.55   2
   4  -1  -8 32784.3 1162.67   1
  -4   1   7 34670.7 1134.76   2
   4  -1  -7 33517.7 1144.13   1
  -4   1   6 10862.7 624.430   2
   4  -1  -6 10637.5 638.452   1
  -4   1   5 3356.79 362.175   2
   4  -1  -5 2840.90 196.534   4
   4  -1  -5 3000.15 351.648   1
  -4   1   4 108258. 1853.57   2
   4  -1  -4 106563. 1270.56   4
   4  -1  -4 106984. 1870.03   1
  -4   1   3 328506. 1700.22   3
  -4   1   3 326987. 3145.49   2
   4  -1  -3 334996. 2417.20   4
   4  -1  -2 46.3218 105.616   1
  -4   1   2 161.434 64.2277   3
   4  -1  -2 109.360 91.9650   4
  -4   1   2 123.223 139.693   2
  -4   1   1 4547.23 210.150   3
  -4   1   1 4858.34 382.186   2
   4  -1  -1 4416.66 323.079   4
   4  -1  -1 5285.91 390.351   1
  -4   1   0 108091. 1068.27   3
  -4   1   0 108503. 1756.20   2
   4  -1   0 104219. 1580.51   4
   4  -1   0 107856. 1649.65   1
   4  -1   1 170526. 1993.61   1
  -4   1  -1 172104. 1488.70   3
   4  -1   2 15016.1 569.800   1
  -4   1  -2 13971.6 462.812   3
   4  -1   2 13965.7 636.705   4
  -4   1  -2 14740.6 632.559   2
   4  -1   3 29541.3 758.334   1
  -4   1  -3 30741.3 738.024   3
   4  -1   3 30789.4 975.743   4
  -4   1  -3 29639.5 881.846   2
  -4   1  -4 26025.2 737.548   3
   4  -1   4 25136.5 678.240   1
   4  -1   4 23688.3 879.566   4
  -4   1  -4 25671.3 825.025   2
   4  -1   5 5794.36 320.036   1
  -4   1  -5 4763.44 350.131   3
   4  -1   5 4786.19 429.467   4
  -4   1  -5 5068.44 381.241   2
  -4   1  -6 230.421 133.147   2
  -4   1  -6 280.128 129.162   3
   4  -1   6 150.197 126.935   4
   4  -1   6 84.5038 81.5745   1
  -4   1  -7 5704.45 433.731   3
   4  -1   7 6426.37 503.531   4
  -4   1  -7 6440.42 425.213   2
  -4   1  -8 110278. 1758.43   2
  -4   1  -8 114062. 1945.55   3
   4  -1   8 111134. 2109.73   4
  -4   1  -9 19837.8 779.504   2
  -4   1  -9 19573.8 866.880   3
   4  -1   9 19471.5 918.934   4
  -4   1 -10 29796.8 950.727   2
   4  -1  10 27831.5 1142.48   4
   4  -1  10 30008.5 1129.28   3
  -4   1 -11 41484.3 1183.55   2
   4  -1  11 40492.8 1407.46   4
   4  -1  11 42511.7 1438.43   3
  -4   1 -12 95735.2 1853.99   2
   4  -1  12 90885.0 2157.69   4
   4  -1  12 93824.3 2220.45   3
  -4   1 -13 17338.1 827.489   2
   4  -1  13 18305.3 990.041   4
   4  -1  13 18685.6 1065.66   3
  -4   0  12 2191.77 423.660   2
   4   0 -11 124012. 2368.07   1
  -4   0  11 124969. 2439.23   2
  -4   0  10 869.200 287.384   2
   4   0 -10 1121.78 281.575   1
   4   0  -9 33943.1 1188.05   1
  -4   0   9 33176.4 1180.78   2
   4   0  -8 6525.15 535.541   1
  -4   0   8 6322.86 523.252   2
   4   0  -7 113007. 2070.92   1
  -4   0   7 112190. 2035.86   2
   4   0  -6 43119.6 1247.45   1
  -4   0   6 46550.0 1265.70   2
   4   0  -5 2047.39 276.910   1
  -4   0   5 2545.13 312.047   2
   4   0  -5 2373.93 181.907   4
   4   0  -4 17354.6 769.058   1
  -4   0   4 17547.5 743.679   2
   4   0  -4 19524.0 547.894   4
   4   0  -3 184767. 2394.61   1
  -4   0   3 188869. 2373.60   2
   4   0  -3 185182. 1780.28   4
   4   0  -2 186613. 2313.79   1
  -4   0   2 186015. 2328.70   2
   4   0  -2 188803. 1912.71   4
   4   0  -1 70726.8 1379.60   1
  -4   0   1 68169.7 1369.16   2
   4   0  -1 67394.1 1210.60   4
  -4   0   0 204.599 56.4622   3
   4   0   0 208.647 100.887   4
  -4   0  -1 838.010 99.7852   3
   4   0   1 839.044 159.040   1
   4   0   1 811.414 168.426   4
  -4   0  -1 835.135 187.128   2
   4   0   2 27665.9 774.584   1
  -4   0  -2 28985.3 592.765   3
   4   0   2 26580.4 855.710   4
  -4   0  -2 26699.1 833.953   2
  -4   0  -3 23647.2 591.712   3
   4   0   3 22580.8 816.467   4
   4   0   3 22624.2 672.159   1
   4   0   4 121028. 1490.06   1
   4   0   4 116569. 1929.65   4
  -4   0  -4 120405. 1782.73   2
  -4   0  -5 103096. 1486.17   3
   4   0   5 101152. 1837.99   4
  -4   0  -5 110281. 1688.17   2
   4   0   5 110390. 1345.61   1
  -4   0  -6 29595.7 846.531   3
  -4   0  -6 30261.1 671.311   1
   4   0   6 29062.4 997.837   4
  -4   0  -7 559.165 172.705   2
  -4   0  -7 686.915 185.156   3
   4   0   7 396.814 166.348   4
  -4   0  -8 99337.7 1751.51   3
   4   0   8 100010. 1977.78   4
  -4   0  -8 97303.7 1636.26   2
   4   0   9 47193.3 1406.29   4
   4   0   9 47806.7 1325.99   3
   4   0  10 755.037 217.002   3
  -4   0 -10 979.882 204.666   2
   4   0  10 1049.36 270.161   4
  -4   0 -11 6309.67 480.346   2
   4   0  11 6192.34 556.362   4
   4   0  11 7134.37 583.984   3
   4   0  12 14861.5 867.313   4
  -4   0 -12 14977.8 737.861   2
   4   0  12 14401.2 867.327   3
  -4   0 -13 67542.4 1616.74   2
   4   0  13 66173.2 1861.77   4
   4   0  13 68802.4 1949.02   3
   4   0  14 1304.32 365.169   4
  -4  -1  12 2493.76 444.197   2
  -4  -1  11 47198.8 1507.87   2
  -4  -1  10 109590. 2206.70   2
   4   1 -10 110835. 2164.35   1
  -4  -1   9 58542.5 1547.00   2
   4   1  -9 59370.6 1571.18   1
   4   1  -8 2427.62 340.714   1
  -4  -1   8 2434.22 323.234   2
   4   1  -7 9005.42 600.524   1
  -4  -1   7 9002.52 586.018   2
   4   1  -6 34278.5 1104.13   1
  -4  -1   6 33900.4 1074.98   2
   4   1  -5 44454.5 1221.53   1
  -4  -1   5 42598.1 1180.69   2
   4   1  -5 44515.9 795.699   4
  -4  -1   4 15134.5 685.688   2
   4   1  -4 15437.7 491.892   4
   4   1  -3 2539.73 287.232   1
   4   1  -3 2479.88 213.577   4
   4   1  -2 190494. 2340.12   1
   4   1  -2 190372. 1906.74   4
   4   1  -1 527004. 3777.35   1
   4   1  -1 523355. 3328.85   4
   4   1   0 538684. 3710.28   1
  -4  -1   0 537966. 3800.58   2
   4   1   1 6021.27 388.861   1
   4   1   1 4990.45 362.267   4
  -4  -1  -1 5614.07 397.404   2
   4   1   1 5647.20 184.434   3
  -4  -1  -2-49.2949 108.568   2
   4   1   2 84.6659 104.754   1
   4   1   2 221.522 120.358   4
   4   1   3 15985.1 578.668   1
   4   1   3 14476.1 644.485   4
  -4  -1  -3 15464.6 637.109   2
   4   1   4 16550.7 709.179   4
   4   1   4 17836.2 580.364   1
  -4  -1  -4 18790.8 702.604   2
  -4  -1  -6 310682. 2201.90   1
   4   1   6 306393. 3216.89   4
  -4  -1  -6 298322. 2764.32   2
   4   1   6 292294. 2545.60   3
  -4  -1  -7 31367.4 663.748   1
   4   1   7 33128.3 1088.78   4
  -4  -1  -7 30819.2 896.472   2
   4   1   7 31703.8 913.940   3
   4   1   8 10164.7 633.640   4
   4   1   8 10882.0 574.210   3
  -4  -1  -8 10250.5 531.355   2
  -4  -1  -9 23085.3 811.003   2
   4   1   9 22836.1 963.036   4
   4   1   9 24301.9 912.277   3
  -4  -1 -10 4705.31 389.283   2
   4   1  10 4665.60 465.723   4
   4   1  10 4621.60 429.890   3
   4   1  11 646.610 198.714   3
  -4  -1 -11 699.309 195.028   2
   4   1  11 808.814 230.618   4
  -4  -1 -12 10103.0 601.727   2
   4   1  12 10600.2 716.603   4
   4   1  12 8960.84 672.189   3
   4   1  13 3094.60 430.585   3
  -4  -1 -13 3254.22 386.363   2
   4   1  13 3955.82 480.787   4
   4   1  14 4833.80 584.698   3
  -4  -1 -14 4232.77 459.219   2
   4   1  14 5770.94 585.883   4
  -4  -2  10 261541. 3406.69   2
   4   2  -9 207272. 2902.74   1
  -4  -2   9 203262. 2899.49   2
   4   2  -8 94552.7 1926.83   1
  -4  -2   8 104628. 2005.71   2
  -4  -2   7 7155.94 516.381   2
   4   2  -7 6208.61 502.566   1
   4   2  -6 1.97739 128.442   1
  -4  -2   6 4.57423 138.628   2
  -4  -2   5 128877. 2018.05   2
   4   2  -5 132543. 2126.87   1
   4   2  -5 129912. 1430.80   4
  -4  -2   4 144662. 2072.79   2
   4   2  -4 139491. 2125.21   1
   4   2  -4 143738. 1537.66   4
  -4  -2   3 67986.7 1406.66   2
   4   2  -3 71288.4 1131.29   4
  -4  -2   2 278083. 2761.62   2
   4   2  -2 277374. 2847.67   1
   4   2  -2 274306. 2331.48   4
   4   2  -1 19629.0 746.267   1
  -4  -2   1 18588.6 711.532   2
  -4  -2   0 141340. 1908.96   2
   4   2   0 138330. 1777.71   4
   4   2   0 140640. 1907.26   1
   4   2   1 9141.31 477.837   1
   4   2   1 9243.39 485.285   4
  -4  -2  -1 9974.99 506.187   2
   4   2   2 567190. 3594.80   1
  -4  -2  -2 557055. 3706.53   2
   4   2   3 107856. 1749.42   4
  -4  -2  -3 112098. 1683.48   2
   4   2   3 108047. 1529.07   1
   4   2   4 80117.1 1252.34   1
   4   2   4 77626.6 1521.61   4
  -4  -2  -4 78763.8 1401.95   2
  -4  -2  -5 1933.77 211.827   1
  -4  -2  -5 1578.16 223.799   2
   4   2   5 2040.73 202.537   3
  -4  -2  -6 41372.6 846.685   1
   4   2   6 42265.6 1189.44   4
  -4  -2  -6 42498.1 1034.63   2
   4   2   6 38930.6 897.510   3
   4   2   7 354216. 3470.52   4
  -4  -2  -7 328877. 2267.82   1
  -4  -2  -7 350121. 2984.50   2
   4   2   7 337584. 2858.30   3
   4   2   8 28733.3 1016.40   4
  -4  -2  -8 28525.6 628.436   1
   4   2   8 29126.3 904.025   3
   4   2   9 1291.80 236.598   3
  -4  -2  -9 1276.97 223.010   2
   4   2   9 1529.56 267.543   4
   4   2  10 943.646 224.085   3
  -4  -2 -10 435.629 160.537   2
   4   2  10 704.229 200.468   4
   4   2  11 48765.5 1416.52   3
  -4  -2 -11 47197.3 1215.99   2
   4   2  11 50014.3 1449.78   4
   4   2  12 65990.6 1735.07   3
  -4  -2 -12 64094.5 1475.79   2
   4   2  12 63410.1 1669.23   4
   4   2  13 20376.8 1023.17   3
  -4  -2 -13 19346.4 858.960   2
   4   2  13 17782.6 913.216   4
   4   2  14 79261.7 2099.79   3
  -4  -2 -14 76891.0 1760.46   2
   4   2  14 79488.6 1972.57   4
   4   3  -9 12098.8 712.362   1
  -4  -3   9 11769.9 725.324   2
  -4  -3   8 216919. 2878.27   2
   4   3  -8 209159. 2825.69   1
   4   3  -7 83725.1 1774.27   1
  -4  -3   7 86855.3 1747.54   2
   4   3  -6 3849.08 394.324   1
  -4  -3   6 3855.19 374.345   2
   4   3  -5 20536.6 857.544   1
  -4  -3   5 18248.6 764.145   2
   4   3  -5 20105.3 602.056   4
   4   3  -4 112411. 1931.33   1
  -4  -3   4 110052. 1809.59   2
   4   3  -4 114192. 1435.64   4
  -4  -3   3 2483.31 289.203   2
   4   3  -3 1752.20 263.466   1
   4   3  -3 2327.85 226.331   4
   4   3  -2 634453. 4398.64   1
  -4  -3   2 634601. 4109.05   2
  -4  -3   1 166962. 2075.33   2
   4   3  -1 168906. 2238.70   1
   4   3  -1 174188. 1952.08   4
  -4  -3   0 55969.5 1188.09   2
   4   3   0 54220.6 1115.60   4
   4   3   1 10716.9 514.166   4
  -4  -3  -1 10503.0 516.408   2
   4   3   1 11790.0 548.373   1
   4   3   2 26115.1 795.524   1
   4   3   2 24622.1 804.467   4
  -4  -3  -2 25194.8 789.015   2
   4   3   3 177050. 1973.64   1
   4   3   3 174828. 1172.55   3
   4   3   3 172927. 2190.18   4
  -4  -3  -3 177800. 2044.56   2
   4   3   4 196648. 1508.74   3
  -4  -3  -4 191496. 1996.04   1
   4   3   4 191691. 2370.01   4
  -4  -3  -4 198328. 2185.95   2
   4   3   5 241711. 1915.98   3
  -4  -3  -5 235706. 2142.25   1
  -4  -3  -5 240936. 2412.36   2
   4   3   6 442574. 2891.45   3
  -4  -3  -6 435690. 2856.37   1
   4   3   6 453827. 3872.46   4
  -4  -3  -6 446219. 3277.71   2
   4   3   7 324869. 2697.65   3
  -4  -3  -7 337739. 2388.12   1
   4   3   7 318764. 3337.69   4
  -4  -3  -7 335271. 2887.83   2
   4   3   8 267991. 2644.54   3
  -4  -3  -8 265615. 2021.27   1
   4   3   8 270294. 3106.61   4
  -4  -3  -9 89544.1 1575.16   2
   4   3   9 89317.7 1827.51   4
   4   3  10 2554.29 333.458   3
  -4  -3 -10 2606.09 295.137   2
   4   3  10 2477.11 343.416   4
   4   3  11 3831.22 414.023   3
  -4  -3 -11 3973.42 371.110   2
   4   3  11 3857.55 417.665   4
   4   3  12 8781.86 646.748   3
  -4  -3 -12 9975.04 592.458   2
   4   3  12 9055.60 638.259   4
   4   3  13 70174.4 1848.76   3
  -4  -3 -13 70134.6 1601.53   2
   4   3  13 72234.0 1813.10   4
  -4  -3 -14 151965. 2460.89   2
   4   3  14 155358. 2731.71   4
  -4  -4   7 39010.0 1183.81   2
   4   4  -7 43235.9 1268.85   1
   4   4  -6 5881.83 493.942   1
  -4  -4   6 5711.28 448.089   2
   4   4  -5 11159.7 636.266   1
  -4  -4   5 10943.7 596.849   2
   4   4  -5 11074.5 480.971   4
  -4  -4   4 67691.7 1421.19   2
   4   4  -4 67566.2 1165.25   4
   4   4  -3 93439.4 1721.65   1
  -4  -4   3 96635.2 1635.94   2
   4   4  -3 94759.8 1387.68   4
   4   4  -2 12306.4 627.918   1
  -4  -4   2 13854.0 606.969   2
   4   4  -2 13607.2 531.487   4
   4   4  -1 100138. 1716.94   1
   4   4  -1 101066. 1503.85   4
  -4  -4   0 999999. 4978.41   2
   4   4   1 600279. 3836.05   4
   4   4   1 606673. 3986.41   1
  -4  -4  -2 11036.4 532.228   1
   4   4   2 10097.9 521.136   4
  -4  -4  -2 11764.8 534.788   2
  -4  -4  -3 20715.0 703.219   1
   4   4   3 21823.6 779.891   4
  -4  -4  -3 20654.5 690.620   2
   4   4   4 104928. 1041.60   3
  -4  -4  -4 106354. 1524.43   1
   4   4   4 99549.2 1697.96   4
  -4  -4  -4 100394. 1518.63   2
  -4  -4  -5 263055. 2381.13   1
   4   4   5 269632. 2889.85   4
  -4  -4  -5 271212. 2510.44   2
   4   4   6 8548.03 389.687   3
  -4  -4  -6 8088.21 414.494   1
   4   4   6 8686.96 550.229   4
  -4  -4  -6 8422.29 455.208   2
  -4  -4  -7 743097. 4219.93   2
  -4  -4  -8 908.922 158.615   1
   4   4   8 1045.24 180.349   3
  -4  -4  -8 893.095 184.829   2
   4   4   8 1255.42 240.180   4
   4   4   9 437.207 160.674   3
  -4  -4  -9 379.309 120.410   1
  -4  -4  -9 531.634 157.297   2
   4   4   9 446.011 179.305   4
   4   4  10 19737.1 825.913   3
  -4  -4 -10 19082.5 742.832   2
   4   4  10 18596.0 854.918   4
   4   4  11 39461.1 1233.56   3
  -4  -4 -11 40237.1 1103.67   2
   4   4  11 40146.9 1281.72   4
   4   4  12 23693.8 1018.47   3
  -4  -4 -12 24231.5 901.090   2
   4   4  12 22646.5 996.274   4
   4   4  13 11301.4 745.628   3
  -4  -4 -13 10825.3 631.798   2
   4   4  13 10037.8 684.682   4
   4   4  14 46067.1 1555.58   3
  -4  -4 -14 45190.0 1337.07   2
   4   4  14 49044.0 1511.06   4
   4   4  15 95037.4 2318.87   3
  -4  -5   7 68799.4 1528.08   1
  -4  -5   6 3751.34 393.649   1
  -4  -5   5 17764.9 764.868   1
   4   5  -5 17198.2 633.163   4
  -4  -5   4 8856.82 542.123   1
  -4  -5   4 9082.88 518.407   2
   4   5  -4 9590.23 471.985   4
  -4  -5   3 260606. 2825.60   1
   4   5  -3 254649. 2397.32   4
  -4  -5   2 5711.57 425.869   1
  -4  -5   2 4660.44 356.188   2
   4   5  -2 5451.63 362.745   4
  -4  -5   1 563.780 170.236   1
  -4  -5   1 340.256 134.874   2
   4   5  -1 687.112 161.172   4
  -4  -5   0 205666. 2226.33   2
   4   5   0 211044. 2245.58   4
  -4  -5  -1 717908. 4004.02   2
  -4  -5  -2 17454.1 670.442   1
   4   5   2 15940.4 651.946   4
  -4  -5  -2 17606.8 637.346   2
  -4  -5  -3 49654.0 1115.24   1
   4   5   3 51351.9 1193.32   4
  -4  -5  -3 51834.3 1065.68   2
  -4  -5  -4 15728.9 618.750   1
   4   5   4 16188.1 693.920   4
  -4  -5  -4 16327.3 602.924   2
   4   5   5 22631.1 555.757   3
   4   5   5 21506.2 810.929   4
  -4  -5  -5 22823.9 721.930   2
  -4  -5  -6 98683.8 1463.40   1
   4   5   6 102712. 1809.74   4
  -4  -5  -6 99349.0 1513.94   2
   4   5   7 15661.7 580.948   3
  -4  -5  -7 15814.4 571.584   1
   4   5   7 15786.8 732.655   4
  -4  -5  -7 16602.7 625.409   2
  -4  -5  -8 115955. 1691.21   2
   4   5   8 114304. 1676.72   3
   4   5   8 113758. 1973.03   4
  -4  -5  -8 113297. 1479.19   1
  -4  -5  -9 20425.9 735.279   2
   4   5   9 17973.4 723.261   3
   4   5   9 20185.2 875.034   4
  -4  -5  -9 19682.5 605.935   1
   4   5  10 168.872 167.652   3
  -4  -5 -10 90.3613 123.868   2
  -4  -5 -10 420.136 132.438   1
   4   5  10-34.9315 153.249   4
   4   5  11-42.7726 138.562   3
  -4  -5 -11 162.931 184.109   2
   4   5  11-7.01908 168.611   4
   4   5  12 188890. 2765.62   3
  -4  -5 -12 191250. 2472.49   2
   4   5  12 192258. 2808.86   4
   4   5  13 196698. 2983.76   3
  -4  -5 -13 197736. 2634.95   2
   4   5  13 200830. 2925.35   4
   4   5  14 24465.1 1115.70   3
  -4  -5 -14 25333.4 1004.13   2
   4   5  14 26029.0 1087.00   4
   4   5  15 7088.88 656.411   3
  -4  -6   7 50091.0 1321.18   1
  -4  -6   6 112291. 1943.65   1
  -4  -6   5 463.913 184.439   1
   4   6  -5 409.703 145.068   4
  -4  -6   4 50291.9 1255.44   1
   4   6  -4 48526.4 1113.58   4
  -4  -6   3 372442. 3367.91   1
   4   6  -3 390852. 3116.91   4
  -4  -6   2 24594.6 865.074   1
  -4  -6   2 24210.1 780.601   2
   4   6  -2 24521.0 791.437   4
   4   6  -1 1654.14 225.474   4
  -4  -6   1 1327.23 225.065   1
  -4  -6   0 33464.9 977.265   1
  -4  -6   0 32082.3 846.262   2
   4   6   0 31265.9 890.725   4
  -4  -6  -1 179.909 131.477   2
  -4  -6  -1 192.278 116.440   1
   4   6   1 156.988 118.432   4
  -4  -6  -2-11.3309 99.2338   2
   4   6   2-52.0961 106.783   4
  -4  -6  -2 240.891 136.165   1
  -4  -6  -3 24276.9 797.642   1
   4   6   3 24472.4 845.498   4
  -4  -6  -3 24908.0 735.801   2
  -4  -6  -4 106330. 1630.09   1
   4   6   4 104312. 1752.60   4
  -4  -6  -4 110084. 1524.47   2
  -4  -6  -5 6814.03 413.209   1
   4   6   5 6275.12 452.404   4
  -4  -6  -5 7260.33 408.301   2
   4   6   6 2575.99 219.292   3
  -4  -6  -6 1946.37 232.676   1
   4   6   6 2296.43 289.021   4
  -4  -6  -6 1854.26 212.975   2
  -4  -6  -7 90.0458 106.320   1
   4   6   7 166.029 100.384   3
  -4  -6  -7 14.6022 94.9266   2
   4   6   7 154.578 147.981   4
  -4  -6  -8 93028.6 1478.42   2
   4   6   8 89418.9 1460.53   3
   4   6   8 90800.8 1753.54   4
  -4  -6  -8 91748.5 1396.61   1
  -4  -6  -9 400786. 3173.42   2
   4   6   9 407582. 3362.89   3
   4   6   9 401840. 3770.89   4
   4   6  10 200560. 2539.14   3
  -4  -6 -10 198062. 2293.60   2
   4   6  10 193722. 2653.05   4
  -4  -6 -10 195270. 1948.68   1
   4   6  11-70.5681 188.689   3
  -4  -6 -11-47.5893 142.779   2
   4   6  11 16.2155 161.912   4
   4   6  12 28584.1 1091.53   3
  -4  -6 -12 31313.9 995.677   2
   4   6  12 32115.1 1137.59   4
  -4  -6 -13 94362.5 1810.97   2
   4   6  13 92904.4 1960.63   4
   4   6  14 28638.4 1209.00   3
  -4  -6 -14 25618.2 991.345   2
   4   6  14 27166.1 1094.38   4
   4   6  15 67697.7 1930.01   3
  -4  -7   6 117045. 2013.19   1
  -4  -7   5 150895. 2246.82   1
   4   7  -5 149319. 2110.97   4
  -4  -7   4 138985. 2153.57   1
   4   7  -4 132381. 1955.53   4
  -4  -7   3 265179. 2907.79   1
   4   7  -3 252154. 2669.36   4
  -4  -7   2 6237.13 466.284   1
   4   7  -2 6188.31 427.130   4
  -4  -7   1 28857.3 947.873   1
   4   7  -1 30613.4 919.001   4
  -4  -7   0 8645.77 517.350   1
  -4  -7   0 8788.54 437.517   2
   4   7   0 8818.90 501.115   4
  -4  -7  -1 136692. 1984.57   1
  -4  -7  -1 132798. 1652.33   2
   4   7   1 131928. 1902.58   4
   4   7   2 41333.4 1073.78   4
  -4  -7  -2 42509.9 932.071   2
  -4  -7  -3 11046.3 556.504   1
   4   7   3 10314.4 556.992   4
  -4  -7  -3 11412.7 478.317   2
  -4  -7  -4 140969. 1939.42   1
   4   7   4 140073. 2054.09   4
  -4  -7  -4 146676. 1714.66   2
  -4  -7  -5 17774.0 681.602   1
   4   7   5 17663.1 751.837   4
  -4  -7  -5 19406.4 632.332   2
  -4  -7  -6 266017. 2565.93   1
   4   7   6 271359. 2949.21   4
  -4  -7  -6 262951. 2335.72   2
   4   7   7 2742.63 248.719   3
  -4  -7  -7 2204.03 251.544   1
   4   7   7 2035.12 289.318   4
  -4  -7  -7 2422.12 244.964   2
  -4  -7  -8 5383.33 371.114   2
   4   7   8 5293.76 369.549   3
   4   7   8 5849.78 459.631   4
  -4  -7  -8 5846.81 379.463   1
  -4  -7  -9 108644. 1628.61   2
   4   7   9 105256. 1688.07   3
   4   7   9 105286. 1915.86   4
  -4  -7  -9 104275. 1525.55   1
  -4  -7 -10 177244. 2158.70   2
   4   7  10 185269. 2414.08   3
   4   7  10 185729. 2581.40   4
  -4  -7 -10 173133. 1947.58   1
  -4  -7 -11 71483.7 1443.88   2
  -4  -7 -11 69132.8 1222.62   1
   4   7  12 1618.68 290.165   3
  -4  -7 -12 1485.82 239.794   2
   4   7  12 2058.00 315.457   4
   4   7  13 794.975 258.870   3
  -4  -7 -13 217.720 164.710   2
   4   7  13 434.407 201.587   4
  -4  -7 -14 2864.45 365.253   2
   4   7  14 2744.16 409.946   3
   4   7  14 2698.58 389.901   4
   4   7  15-122.467 255.272   3
  -4  -8   5 76631.7 1640.77   1
  -4  -8   4 19730.0 836.388   1
   4   8  -4 18250.2 776.121   4
  -4  -8   3 4610.58 420.641   1
   4   8  -3 4412.97 389.357   4
  -4  -8   2 44706.4 1217.11   1
   4   8  -2 45299.5 1183.70   4
  -4  -8   1 903.691 218.114   1
   4   8  -1 862.969 182.591   4
  -4  -8   0 28894.8 953.767   1
   4   8   0 28734.1 935.519   4
  -4  -8  -1 47162.8 1190.87   1
   4   8   1 47520.1 1194.62   4
  -4  -8  -2 155765. 2143.35   1
   4   8   2 151519. 2119.29   4
  -4  -8  -3 74667.2 1465.30   1
   4   8   3 72115.6 1466.49   4
  -4  -8  -3 73374.7 1162.04   2
  -4  -8  -4 16548.1 691.839   1
   4   8   4 15289.3 694.314   4
  -4  -8  -5 208938. 2380.83   1
   4   8   5 212085. 2590.21   4
  -4  -8  -5 208018. 2004.71   2
  -4  -8  -6 14178.3 631.283   1
   4   8   6 14133.7 689.542   4
  -4  -8  -6 13799.5 537.151   2
  -4  -8  -7 37807.9 894.553   2
  -4  -8  -7 38083.9 1001.73   1
   4   8   7 36406.5 1097.15   4
  -4  -8  -8 15908.9 607.845   2
   4   8   8 15691.1 736.860   4
  -4  -8  -8 16333.2 651.170   1
  -4  -8  -9 11155.5 524.302   2
   4   8   9 11443.1 572.334   3
   4   8   9 10503.5 614.653   4
  -4  -8  -9 11254.2 541.529   1
  -4  -8 -10 3012.30 310.917   2
   4   8  10 3302.93 337.832   3
   4   8  10 3220.60 362.758   4
  -4  -8 -10 2775.49 286.203   1
   4   8  11 6931.47 518.225   3
  -4  -8 -11 7246.23 473.502   2
   4   8  11 6730.00 504.308   4
  -4  -8 -11 7301.72 432.559   1
   4   8  12 43346.5 1330.65   3
  -4  -8 -12 42155.6 1146.39   2
   4   8  12 43994.2 1294.91   4
   4   8  13 121013. 2336.85   3
  -4  -8 -13 123563. 2033.78   2
   4   8  13 127887. 2236.03   4
   4   8  14 80858.8 1998.84   3
  -4  -8 -14 82223.1 1738.04   2
   4   8  14 76869.1 1779.22   4
   4   8  15 5945.09 605.462   3
  -4  -9   4 1901.40 307.618   1
   4   9  -4 2293.85 327.393   4
  -4  -9   3 110567. 1948.41   1
   4   9  -3 114509. 1974.41   4
  -4  -9   2 90055.0 1734.59   1
   4   9  -2 84032.1 1680.27   4
  -4  -9   1 170136. 2353.68   1
   4   9  -1 166795. 2348.90   4
  -4  -9   0 58056.6 1361.82   1
   4   9   0 59613.5 1404.50   4
  -4  -9  -1 3611.91 355.193   1
   4   9   1 3619.10 357.504   4
  -4  -9  -2 4871.27 407.543   1
   4   9   2 4750.03 401.480   4
  -4  -9  -3 3928.48 359.799   1
   4   9   3 4272.17 385.603   4
  -4  -9  -4 77588.8 1520.30   1
   4   9   4 74695.0 1534.25   4
  -4  -9  -5 6446.95 445.129   1
   4   9   5 6427.48 466.935   4
  -4  -9  -5 6447.78 359.187   2
  -4  -9  -6 16884.6 575.148   2
  -4  -9  -6 17612.0 710.915   1
   4   9   6 17533.1 780.502   4
  -4  -9  -7 7802.61 408.424   2
  -4  -9  -7 7591.16 484.330   1
   4   9   7 8254.99 538.222   4
  -4  -9  -8 86288.5 1387.88   2
   4   9   8 84548.6 1705.74   4
  -4  -9  -8 86571.4 1542.79   1
  -4  -9  -9 72969.5 1313.93   2
   4   9   9 72867.3 1620.69   4
  -4  -9  -9 71157.5 1398.85   1
  -4  -9 -10 20547.1 736.062   2
   4   9  10 19884.7 856.769   4
  -4  -9 -10 20127.0 747.183   1
   4   9  11 394.419 205.205   3
  -4  -9 -11 491.576 161.835   2
  -4  -9 -11 476.343 148.010   1
   4   9  11 452.024 202.978   4
   4   9  12 48.8551 193.466   3
  -4  -9 -12 239.561 172.316   2
  -4  -9 -12 36.8795 152.069   1
   4   9  12 105.310 164.884   4
   4   9  13 27769.0 1134.46   3
  -4  -9 -13 29015.0 993.851   2
   4   9  13 30604.6 1097.09   4
   4   9  14 292.141 218.431   3
  -4  -9 -14 357.247 178.372   2
   4   9  14 247.020 193.740   4
   4   9  15 43537.0 1543.83   3
  -4 -10   4 115610. 2076.49   1
   4  10  -4 118082. 2173.20   4
  -4 -10   3 30789.5 1053.44   1
   4  10  -3 31024.5 1106.41   4
  -4 -10   2 2752.69 352.126   1
   4  10  -2 2590.27 341.795   4
  -4 -10   1 516.916 214.213   1
   4  10  -1 368.330 196.781   4
  -4 -10   0 45910.0 1241.17   1
   4  10   0 47897.9 1313.11   4
  -4 -10  -1 74757.8 1573.46   1
   4  10   1 73457.8 1615.25   4
  -4 -10  -2 9630.45 575.006   1
   4  10   2 8997.13 562.401   4
  -4 -10  -3 3644.20 353.882   1
   4  10   3 3943.84 387.404   4
  -4 -10  -4 103453. 1804.12   1
   4  10   4 97340.7 1829.55   4
  -4 -10  -5 278546. 2950.41   1
   4  10   5 274626. 3071.22   4
  -4 -10  -6 102803. 1784.23   1
   4  10   6 105032. 1872.92   4
  -4 -10  -7 23367.4 843.794   1
   4  10   7 23012.2 897.602   4
  -4 -10  -8 366.487 150.780   1
  -4 -10  -8 82.4461 107.539   2
   4  10   8 116.755 139.838   4
  -4 -10  -9 3214.54 301.979   2
   4  10   9 4100.76 402.336   4
  -4 -10  -9 4056.49 373.919   1
  -4 -10 -10 2734.82 294.357   2
   4  10  10 2434.86 331.551   4
  -4 -10 -10 2436.84 289.474   1
  -4 -10 -11 140313. 1962.50   2
   4  10  11 138951. 2265.94   4
  -4 -10 -11 139529. 2038.32   1
  -4 -10 -12 137268. 2042.75   2
   4  10  12 142517. 2333.32   4
  -4 -10 -12 144530. 2079.70   1
   4  10  13 275.860 213.301   3
  -4 -10 -13 588.666 191.944   2
   4  10  13 87.2842 155.933   4
   4  10  14 9369.51 712.508   3
  -4 -10 -14 10101.3 626.059   2
   4  10  15 28599.8 1265.32   3
  -4 -11   3 43955.8 1282.99   1
   4  11  -3 43570.3 1380.98   4
  -4 -11   2 35413.1 1153.66   1
   4  11  -2 35736.9 1205.82   4
  -4 -11   1 872.244 248.257   1
   4  11  -1 1051.42 262.246   4
  -4 -11   0 9027.05 575.470   1
   4  11   0 8298.00 580.189   4
  -4 -11  -1 141026. 2221.06   1
   4  11   1 144717. 2342.68   4
  -4 -11  -2 68928.8 1537.12   1
   4  11   2 65038.8 1569.85   4
  -4 -11  -3 735.266 213.918   1
   4  11   3 1244.91 267.482   4
  -4 -11  -4 7683.18 522.250   1
   4  11   4 8087.86 557.134   4
  -4 -11  -5 14408.7 699.108   1
   4  11   5 16663.8 785.285   4
  -4 -11  -6 3318.41 351.386   1
   4  11   6 3447.60 379.218   4
   4  11   7 13571.5 712.366   4
  -4 -11  -7 12249.3 645.385   1
   4  11   8 131138. 2156.52   4
  -4 -11  -8 128398. 2028.18   1
   4  11   9 56104.9 1424.71   4
  -4 -11  -9 55247.3 1335.43   1
   4  11  10 6843.62 517.672   4
  -4 -11 -10 6366.84 464.512   1
  -4 -11 -11 801.330 198.159   2
  -4 -11 -11 711.173 199.623   1
   4  11  11 1144.36 254.484   4
  -4 -11 -12 64654.7 1467.09   1
  -4 -11 -12 65657.0 1408.84   2
   4  11  12 67934.1 1621.72   4
  -4 -11 -13 56539.4 1372.20   1
  -4 -11 -13 55071.6 1366.87   2
   4  11  13 56064.8 1487.23   4
  -4 -11 -14 5001.14 458.327   2
   4  11  14 5401.98 493.689   4
  -4 -12   1 3046.95 545.246   1
  -4 -12   0 181.959 262.751   1
   4  12   0 766.226 294.407   4
  -4 -12  -1 64.9075 184.469   1
   4  12   1-151.944 185.672   4
  -4 -12  -2 16882.7 799.442   1
   4  12   2 18276.8 871.362   4
  -4 -12  -3 11351.3 663.843   1
   4  12   3 12154.4 706.992   4
  -4 -12  -4 5119.77 448.156   1
   4  12   4 5439.74 488.450   4
  -4 -12  -5 89011.1 1764.52   1
   4  12   5 89901.0 1854.14   4
  -4 -12  -6 107717. 1947.32   1
   4  12   6 108771. 2029.59   4
  -4 -12  -7 1431.56 266.329   1
   4  12   7 1296.43 266.047   4
   4  12   8 25060.1 988.233   4
  -4 -12  -8 25158.9 946.128   1
   4  12   9 275031. 3221.28   4
  -4 -12  -9 281070. 3114.95   1
   4  12  10 194711. 2717.67   4
  -4 -12 -10 191202. 2580.24   1
   4  12  11 32915.5 1123.72   4
  -4 -12 -11 32316.8 1075.15   1
  -4 -12 -12 4176.75 429.103   1
   4  12  12 4191.30 435.925   4
  -4 -12 -13 3962.81 411.942   1
   4  12  13 3806.50 416.699   4
   4  12  14 43224.0 1326.44   4
  -4 -13  -2 115449. 2128.00   1
   4  13   2 115340. 2252.04   4
  -4 -13  -3 81.3897 174.411   1
   4  13   3 163.740 178.655   4
  -4 -13  -4 5438.07 497.059   1
   4  13   4 4623.87 463.037   4
  -4 -13  -5 198144. 2739.24   1
   4  13   5 188186. 2813.94   4
   4  13   6 156625. 2535.60   4
  -4 -13  -6 135447. 2241.26   1
   4  13   7 10259.6 674.069   4
  -4 -13  -7 7875.41 565.886   1
   4  13   8 12472.3 718.443   4
  -4 -13  -8 12048.5 693.613   1
   4  13   9 27164.1 1055.50   4
  -4 -13  -9 26723.5 1007.28   1
   4  13  10 123086. 2232.61   4
  -4 -13 -10 122634. 2168.23   1
   4  13  11 51419.0 1444.06   4
  -4 -13 -11 48602.4 1377.27   1
  -4 -13 -12 130187. 2236.65   1
   4  13  12 130699. 2296.08   4
  -4 -13 -13 22430.1 956.815   1
   4  13  13 20982.7 941.461   4
   5 -13  -4 69830.4 2012.35   1
  -5  12   9 39.2719 240.497   3
  -5  12   9 581.059 361.877   2
  -5  12   8 22294.6 1122.38   3
  -5  12   8 23925.4 1220.73   2
   5 -12  -7 17514.0 1069.77   1
  -5  12   7 15790.2 950.762   3
   5 -12  -6 7944.71 721.735   1
  -5  12   6 5935.89 607.153   3
   5 -12  -5 75863.1 2072.01   1
  -5  12   5 72816.7 2006.57   3
   5 -12  -4 142360. 2774.24   1
  -5  12   4 143186. 2847.45   3
   5 -12  -3 3997.65 503.729   1
  -5  12   3 4888.30 564.798   3
   5 -12  -3 3978.33 510.969   4
  -5  12   2 526.330 272.851   3
   5 -12  -2 139.601 269.417   4
  -5  12   1 1086.64 347.722   3
   5 -12  -1 1005.46 351.039   4
  -5  11  10 13000.6 943.649   2
  -5  11   9 2777.69 424.925   3
  -5  11   9 2424.81 437.284   2
   5 -11  -8 64030.4 1979.43   1
  -5  11   8 61353.0 1762.52   3
  -5  11   8 62440.1 1917.83   2
   5 -11  -7 53741.0 1783.23   1
  -5  11   7 52380.4 1620.79   3
  -5  11   7 54644.7 1744.73   2
   5 -11  -6 3044.96 463.607   1
  -5  11   6 3470.82 474.923   3
  -5  11   6 3252.15 471.066   2
   5 -11  -5 27706.9 1233.51   1
  -5  11   5 27016.6 1180.46   3
  -5  11   5 25460.6 1138.77   2
  -5  11   4 3563.94 461.447   3
   5 -11  -4 2218.06 396.995   1
   5 -11  -3 3891.07 483.628   1
  -5  11   3 4002.90 477.421   3
   5 -11  -3 3506.05 467.541   4
   5 -11  -2 33861.9 1280.66   1
  -5  11   2 33946.4 1315.44   3
   5 -11  -2 35551.0 1379.26   4
  -5  11   1 6416.74 621.913   3
   5 -11  -1 5817.47 624.550   4
  -5  11   0 1643.80 360.467   3
   5 -11   0 2285.69 429.830   4
  -5  11  -1 484.084 289.421   3
   5 -11   1 626.177 300.929   4
  -5  10  10 81126.8 2265.81   2
   5 -10  -9 13221.5 936.082   1
  -5  10   9 13566.5 911.893   2
   5 -10  -8 8448.12 735.089   1
  -5  10   8 7255.58 607.421   3
  -5  10   8 8919.01 751.857   2
   5 -10  -7 11666.5 851.691   1
  -5  10   7 9700.42 680.322   3
  -5  10   7 11362.9 817.809   2
   5 -10  -6 27680.8 1237.96   1
  -5  10   6 28012.4 1137.34   3
  -5  10   6 27044.5 1192.46   2
   5 -10  -5 44610.0 1508.15   1
  -5  10   5 42217.8 1398.94   3
  -5  10   5 43316.2 1470.27   2
   5 -10  -4 29554.7 1208.90   1
  -5  10   4 28621.0 1151.78   3
  -5  10   4 32181.7 1236.32   2
   5 -10  -3 37911.5 1342.56   1
  -5  10   3 41636.5 1389.66   3
   5 -10  -3 37458.0 1323.90   4
  -5  10   3 38113.5 1309.29   2
   5 -10  -2 26330.7 1093.06   1
  -5  10   2 23377.1 1051.04   3
   5 -10  -2 24662.8 1103.89   4
  -5  10   2 24236.2 1015.25   2
  -5  10   1 1739.50 342.495   3
   5 -10  -1 1553.38 314.705   1
   5 -10  -1 1801.11 359.922   4
  -5  10   0 74577.2 1917.25   3
   5 -10   0 73436.8 2013.19   4
  -5  10  -1 54498.9 1682.97   3
   5 -10   1 57254.4 1828.62   4
  -5  10  -2 15394.7 921.775   3
   5 -10   2 17168.8 1043.04   4
  -5  10  -3 8023.25 706.890   3
   5  -9 -10 21056.6 1162.19   1
  -5   9  10 22825.2 1202.29   2
   5  -9  -9 111291. 2570.59   1
  -5   9   9 114191. 2597.92   2
   5  -9  -8 1752.27 403.333   1
  -5   9   8 1601.72 381.151   2
   5  -9  -7 27046.6 1221.79   1
  -5   9   7 27246.6 1067.81   3
  -5   9   7 26996.4 1234.78   2
  -5   9   6 407.188 222.849   3
   5  -9  -6 200.256 209.356   1
  -5   9   6 343.341 224.542   2
   5  -9  -5 26615.0 1145.48   1
  -5   9   5 23631.3 990.506   3
  -5   9   5 25022.9 1126.07   2
   5  -9  -4 433938. 4487.97   1
  -5   9   4 436475. 4219.50   3
   5  -9  -3 60419.2 1636.33   1
  -5   9   3 59509.1 1579.63   3
   5  -9  -3 61912.0 1634.92   4
  -5   9   3 62783.7 1680.71   2
   5  -9  -2 71847.9 1741.71   1
  -5   9   2 68038.9 1695.13   3
   5  -9  -2 72394.7 1821.25   4
  -5   9   2 68934.0 1717.75   2
   5  -9  -1 23841.9 981.497   1
  -5   9   1 25532.8 1047.50   3
   5  -9  -1 25836.9 1116.75   4
  -5   9   1 26436.9 1041.32   2
   5  -9   0 14215.6 744.318   1
  -5   9   0 12582.4 768.326   3
   5  -9   0 13347.4 834.072   4
  -5   9   0 13850.8 746.593   2
  -5   9  -1 1204.48 272.336   2
  -5   9  -1 1392.37 302.115   3
   5  -9   1 1039.81 306.721   4
  -5   9  -2 9600.39 693.407   3
   5  -9   2 9221.52 751.749   4
  -5   9  -3 2686.85 419.374   3
   5  -9   3 1993.93 403.097   4
  -5   9  -4 8227.50 701.330   3
   5  -9   4 8254.37 756.384   4
   5  -8 -11 44092.4 1683.98   1
  -5   8  11 42300.5 1639.27   2
   5  -8 -10 25253.9 1249.27   1
  -5   8  10 25904.5 1269.22   2
   5  -8  -9 24487.2 1200.95   1
  -5   8   9 27682.0 1269.08   2
   5  -8  -8 13963.8 902.740   1
  -5   8   8 14054.0 903.457   2
   5  -8  -7 170508. 2983.51   1
  -5   8   7 170470. 2974.03   2
   5  -8  -6 197708. 3127.93   1
  -5   8   6 190325. 2606.24   3
   5  -8  -5 260046. 3498.30   1
  -5   8   5 256996. 3052.19   3
  -5   8   5 263070. 3562.48   2
   5  -8  -4 21547.1 1001.35   1
  -5   8   4 23020.0 933.784   3
  -5   8   4 22855.4 1036.65   2
   5  -8  -3 5229.13 503.730   1
  -5   8   3 6004.81 496.170   3
   5  -8  -3 6399.68 523.829   4
  -5   8   3 5662.94 533.664   2
   5  -8  -2 313085. 3522.77   1
  -5   8   2 314100. 3394.19   3
  -5   8   2 322628. 3714.68   2
   5  -8  -1 40343.2 1249.72   1
  -5   8   1 39890.9 1235.49   3
   5  -8  -1 39260.9 1328.95   4
  -5   8   1 40051.4 1280.62   2
   5  -8   0 6.95119 163.560   1
  -5   8   0 184.729 188.220   2
  -5   8   0 3.91222 159.080   3
   5  -8   0 249.129 168.435   4
  -5   8  -1 14531.6 788.555   3
   5  -8   1 14859.4 883.695   4
  -5   8  -1 15307.5 768.267   2
  -5   8  -2 18402.6 905.577   3
   5  -8   2 19604.7 1029.41   4
  -5   8  -2 18960.4 842.573   2
  -5   8  -3 146805. 2632.42   3
   5  -8   3 148720. 2883.93   4
  -5   8  -3 140982. 2221.53   2
  -5   8  -4 83827.0 2051.95   3
   5  -8   4 78241.5 2162.01   4
  -5   8  -5 110770. 2415.88   3
   5  -8   5 109846. 2634.64   4
  -5   8  -6 8616.87 725.756   3
   5  -7 -11 23045.8 1216.75   1
  -5   7  11 23785.2 1228.61   2
   5  -7 -10 37255.2 1492.38   1
  -5   7  10 37042.6 1481.70   2
   5  -7  -9 102807. 2425.69   1
  -5   7   9 106482. 2459.20   2
   5  -7  -8 18617.1 1010.98   1
  -5   7   8 19146.1 1038.09   2
   5  -7  -7 22555.4 1091.24   1
  -5   7   7 22003.0 1074.61   2
   5  -7  -6 81115.0 1993.58   1
  -5   7   6 84330.1 2036.91   2
  -5   7   5 96441.6 1763.55   3
  -5   7   5 99074.0 2185.76   2
   5  -7  -4 14237.3 804.888   1
  -5   7   4 15096.8 711.814   3
  -5   7   4 15325.5 850.822   2
   5  -7  -3 49223.8 1430.62   1
  -5   7   3 54108.9 1324.61   3
   5  -7  -3 52199.8 1336.70   4
  -5   7   3 57103.3 1590.06   2
  -5   7   2 2068.90 290.161   3
   5  -7  -2 2111.99 332.483   4
  -5   7   2 1976.54 325.261   2
   5  -7  -2 2119.55 304.053   1
   5  -7  -1 26089.0 989.401   1
  -5   7   1 26046.2 937.028   3
   5  -7  -1 26174.8 1034.06   4
  -5   7   1 25519.1 1019.09   2
  -5   7   0 1738.58 287.510   3
   5  -7   0 2601.35 340.238   1
   5  -7   0 2735.76 403.623   4
  -5   7   0 2120.45 307.970   2
  -5   7  -1 4922.63 449.337   3
   5  -7   1 4652.42 418.878   1
   5  -7   1 4905.43 509.474   4
  -5   7  -1 4737.93 449.024   2
  -5   7  -2 30754.8 1097.89   3
   5  -7   2 31890.3 1282.36   4
  -5   7  -2 34657.0 1128.54   2
  -5   7  -3 1974.30 342.195   3
   5  -7   3 1480.41 321.349   4
  -5   7  -3 1908.78 306.721   2
  -5   7  -4 3101.91 409.454   3
   5  -7   4 3536.47 491.710   4
  -5   7  -4 3831.06 393.880   2
  -5   7  -5 7872.37 633.889   3
   5  -7   5 7747.09 700.735   4
  -5   7  -5 8017.77 539.005   2
  -5   7  -6 19776.1 1020.25   3
   5  -7   6 21200.5 1185.74   4
  -5   7  -7 42733.1 1568.72   3
   5  -6 -11 3244.90 493.150   1
  -5   6  11 3156.88 477.092   2
   5  -6 -10 3780.17 514.247   1
  -5   6  10 2865.78 464.534   2
   5  -6  -9 39669.1 1495.75   1
  -5   6   9 40554.1 1501.06   2
   5  -6  -8 116991. 2482.72   1
  -5   6   8 112385. 2426.02   2
   5  -6  -7 221.268 225.778   1
  -5   6   7 105.299 188.697   2
   5  -6  -6 17417.6 932.084   1
  -5   6   6 17682.2 928.000   2
   5  -6  -5 19256.5 940.955   1
  -5   6   5 20138.0 972.700   2
  -5   6   4 159476. 2110.04   3
   5  -6  -4 157380. 2601.42   1
  -5   6   4 159073. 2670.22   2
  -5   6   3 10036.6 542.711   3
   5  -6  -3 9588.40 637.035   1
   5  -6  -3 10833.4 605.307   4
  -5   6   3 10628.7 682.986   2
  -5   6   2 43615.7 1124.57   3
   5  -6  -2 46622.1 1330.23   1
   5  -6  -2 45020.9 1250.44   4
  -5   6   2 45976.6 1396.02   2
   5  -6  -1 264.211 158.220   1
  -5   6   1 357.455 147.900   3
   5  -6  -1 399.314 170.663   4
  -5   6   1 416.288 222.586   2
  -5   6   0 5359.01 422.597   3
   5  -6   0 5764.97 452.569   1
   5  -6   0 5155.29 464.949   4
  -5   6   0 5873.68 491.604   2
  -5   6  -1 5160.53 428.576   3
   5  -6   1 5059.19 421.155   1
   5  -6   1 4731.47 476.813   4
  -5   6  -1 5841.98 495.326   2
  -5   6  -2 36157.9 1134.21   3
   5  -6   2 37560.5 1068.96   1
   5  -6   2 34741.9 1287.40   4
  -5   6  -2 35237.3 1133.58   2
  -5   6  -3 120582. 2165.03   3
   5  -6   3 122489. 2508.78   4
  -5   6  -3 121008. 2068.85   2
  -5   6  -4 107599. 2101.13   3
   5  -6   4 110802. 2457.62   4
  -5   6  -5 899.928 250.877   2
  -5   6  -5 357.833 196.066   3
   5  -6   5 422.020 256.943   4
  -5   6  -6 32648.1 1254.75   3
   5  -6   6 32772.7 1377.37   4
  -5   6  -6 32131.4 1043.16   2
  -5   6  -7 101893. 1852.25   2
  -5   6  -7 108001. 2377.11   3
   5  -6   7 105537. 2531.83   4
  -5   6  -8 80125.7 2121.18   3
   5  -5 -12 217884. 3674.15   1
  -5   5  11 75452.4 2151.19   2
   5  -5 -11 78806.2 2166.24   1
   5  -5 -10-141.350 238.062   1
  -5   5  10 136.809 231.089   2
   5  -5  -9-60.6311 232.635   1
  -5   5   9 126.182 206.229   2
   5  -5  -8 140685. 2710.18   1
  -5   5   8 136563. 2660.10   2
   5  -5  -7 44592.2 1497.41   1
  -5   5   7 43598.1 1479.88   2
   5  -5  -6 1225.38 289.836   1
  -5   5   6 1028.34 284.219   2
   5  -5  -5 63788.8 1678.67   1
  -5   5   5 63846.1 1729.90   2
   5  -5  -4 224.676 183.819   1
  -5   5   4 402.718 195.817   2
  -5   5   3 5481.01 370.618   3
   5  -5  -3 6022.23 517.887   1
   5  -5  -3 5840.67 433.063   4
  -5   5   3 5763.73 499.275   2
  -5   5   2 1307.13 205.865   3
   5  -5  -2 1566.70 271.160   1
  -5   5   2 2025.27 317.775   2
   5  -5  -2 1558.69 254.753   4
  -5   5   1 16699.0 667.678   3
   5  -5  -1 17948.9 806.324   1
   5  -5  -1 17582.5 785.948   4
  -5   5   1 17009.7 826.021   2
  -5   5   0 40662.6 1048.67   3
   5  -5   0 38342.8 1139.05   1
   5  -5   0 40235.8 1230.30   4
  -5   5   0 37355.0 1191.90   2
  -5   5  -1 30497.3 944.640   3
   5  -5   1 32147.0 1017.13   1
   5  -5   1 30818.9 1125.30   4
  -5   5  -1 32687.6 1103.23   2
  -5   5  -2 150.022 159.490   2
   5  -5   2 210.475 140.177   1
  -5   5  -2-168.224 157.373   3
   5  -5   2-11.3810 152.459   4
  -5   5  -3 71646.6 1564.99   3
   5  -5   3 67666.0 1776.99   4
  -5   5  -3 69315.2 1585.12   2
  -5   5  -4 166137. 2456.78   3
   5  -5   4 169086. 2885.68   4
  -5   5  -5 62222.8 1582.50   3
   5  -5   5 65962.2 1841.83   4
  -5   5  -5 67393.1 1521.61   2
  -5   5  -6 22067.2 990.531   3
   5  -5   6 21479.3 1105.45   4
  -5   5  -6 20806.2 841.447   2
  -5   5  -7 583.312 215.542   2
   5  -5   7 453.426 213.153   4
  -5   5  -8 9350.69 587.240   2
  -5   5  -8 9168.46 703.112   3
   5  -5   8 8227.91 723.995   4
  -5   5  -9 954.087 257.909   2
  -5   5  -9 669.537 278.448   3
   5  -4 -12 49604.6 1766.57   1
  -5   4  11 18757.3 1066.03   2
   5  -4 -11 19817.9 1091.01   1
  -5   4  10 151272. 2904.44   2
   5  -4 -10 156316. 2951.75   1
  -5   4   9 25830.8 1178.43   2
   5  -4  -9 26290.3 1194.16   1
   5  -4  -8 95.3716 204.223   1
  -5   4   8 205.502 209.691   2
   5  -4  -7 2830.53 404.831   1
  -5   4   7 2785.16 414.842   2
   5  -4  -6 7191.92 613.484   1
  -5   4   6 8304.42 640.995   2
   5  -4  -5 24261.5 1057.26   1
  -5   4   5 23054.0 1033.45   2
   5  -4  -4 6479.96 533.978   1
  -5   4   4 5680.56 522.626   2
   5  -4  -3 124801. 2233.21   1
   5  -4  -3 119012. 1792.63   4
   5  -4  -2 829.472 214.150   1
  -5   4   2 736.787 149.956   3
   5  -4  -2 941.897 205.612   4
  -5   4   2 890.068 231.166   2
  -5   4   1 36089.4 889.362   3
   5  -4  -1 37899.7 1156.19   1
   5  -4  -1 35983.3 1080.71   4
  -5   4   1 36667.0 1196.39   2
  -5   4   0 1887.37 230.161   3
   5  -4   0 1891.82 282.548   1
   5  -4   0 2085.14 294.284   4
  -5   4   0 1676.50 264.241   2
  -5   4  -1 39537.2 994.176   3
   5  -4   1 41036.7 1253.90   4
   5  -4   1 42198.3 1133.49   1
  -5   4  -1 39276.8 1185.86   2
  -5   4  -2 6162.40 422.131   3
   5  -4   2 5878.91 505.964   4
   5  -4   2 6745.12 445.580   1
  -5   4  -2 7603.10 536.544   2
  -5   4  -3 17525.3 737.903   3
   5  -4   3 17573.2 883.467   4
  -5   4  -3 19113.7 831.312   2
   5  -4   3 18131.1 698.786   1
  -5   4  -4 90000.6 1715.33   3
   5  -4   4 86294.5 1974.18   4
  -5   4  -4 86377.9 1711.79   2
  -5   4  -5 151290. 2321.66   3
  -5   4  -5 155706. 2308.51   2
  -5   4  -6 26324.5 1035.10   3
   5  -4   6 23877.5 1099.10   4
  -5   4  -6 26066.7 948.135   2
  -5   4  -7 385.721 179.695   2
  -5   4  -7 204.911 164.368   3
  -5   4  -8 4780.20 424.965   2
  -5   4  -8 5276.20 533.975   3
   5  -4   8 4859.17 543.995   4
  -5   4  -9 1707.45 292.994   2
  -5   4  -9 1276.36 296.704   3
   5  -4   9 1331.23 339.425   4
  -5   4 -10-34.3098 199.407   2
  -5   4 -10-116.235 220.103   3
   5  -3 -12 66884.7 1990.80   1
   5  -3 -11-80.9497 292.416   1
  -5   3  11 213.028 266.761   2
  -5   3  10 45814.1 1605.01   2
   5  -3 -10 45880.7 1616.24   1
  -5   3   9 117835. 2488.52   2
   5  -3  -9 126908. 2595.21   1
   5  -3  -8 724.759 270.166   1
  -5   3   8 145.342 180.558   2
  -5   3   7 42364.4 1424.71   2
   5  -3  -7 40316.6 1390.74   1
  -5   3   6 21537.8 999.634   2
   5  -3  -6 22367.7 1019.73   1
  -5   3   5 136946. 2446.90   2
   5  -3  -5 129242. 2377.49   1
   5  -3  -4 9893.38 646.475   1
  -5   3   4 10219.3 678.735   2
   5  -3  -4 8888.12 460.342   4
   5  -3  -3 271711. 3239.94   1
  -5   3   3 273578. 3349.40   2
   5  -3  -3 277825. 2679.96   4
   5  -3  -2 109464. 1994.59   1
   5  -3  -2 103680. 1708.63   4
  -5   3   2 105969. 2044.33   2
   5  -3  -1 41633.5 1147.21   4
   5  -3  -1 40949.7 1181.23   1
  -5   3   1 41652.0 1276.11   2
  -5   3   0 1894.63 206.820   3
   5  -3   0 2036.91 291.022   4
   5  -3   0 1984.72 282.455   1
  -5   3   0 1945.18 308.933   2
  -5   3  -1 79007.0 1293.07   3
   5  -3   1 73518.0 1608.63   4
   5  -3   1 75955.1 1522.87   1
  -5   3  -2 46570.6 1062.93   3
   5  -3   2 48027.1 1379.30   4
  -5   3  -2 49538.7 1333.80   2
   5  -3   2 48662.1 1175.22   1
   5  -3   3 49185.0 1134.55   1
   5  -3   3 45624.5 1367.99   4
  -5   3  -3 48233.9 1282.88   2
  -5   3  -4 1672.85 262.800   2
   5  -3   4 2024.55 247.758   1
  -5   3  -4 2509.42 300.233   3
   5  -3   4 1602.77 288.344   4
  -5   3  -5 75603.7 1577.55   3
   5  -3   5 75837.8 1854.79   4
  -5   3  -5 75624.5 1610.79   2
  -5   3  -6 6907.27 516.307   3
   5  -3   6 6360.10 575.805   4
  -5   3  -6 6698.53 496.442   2
  -5   3  -7 400.077 196.430   2
  -5   3  -7 167.955 173.088   3
   5  -3   7 561.331 243.797   4
  -5   3  -8 14154.7 808.951   3
   5  -3   8 14231.0 883.766   4
  -5   3  -8 13996.7 700.807   2
  -5   3  -9 46442.5 1288.06   2
  -5   3  -9 43287.3 1437.56   3
   5  -3   9 43343.8 1569.51   4
  -5   3 -10 4618.66 513.431   3
   5  -3  10 4997.16 579.855   4
  -5   3 -11 31590.7 1123.06   2
   5  -2 -11 12154.3 861.140   1
  -5   2  11 11833.5 855.165   2
   5  -2 -10 96579.1 2289.38   1
  -5   2  10 97571.0 2313.96   2
   5  -2  -9 176.760 225.714   1
  -5   2   9 40.2367 196.892   2
  -5   2   8 9204.26 700.182   2
   5  -2  -8 7754.41 645.150   1
  -5   2   7 4556.52 489.319   2
   5  -2  -7 4037.78 472.614   1
  -5   2   6 34179.3 1237.92   2
   5  -2  -6 35314.4 1277.95   1
  -5   2   5 19013.2 900.712   2
   5  -2  -5 17875.1 886.036   1
  -5   2   4 39683.9 1282.86   2
   5  -2  -4 36465.7 885.139   4
   5  -2  -4 38259.0 1270.90   1
   5  -2  -3 68.9399 160.700   1
   5  -2  -3 37.2546 110.963   4
  -5   2   3 22.6383 141.339   2
  -5   2   2 140039. 2311.18   2
   5  -2  -2 143180. 1997.18   4
   5  -2  -2 142830. 2296.34   1
   5  -2  -1 344505. 3193.17   4
   5  -2  -1 349592. 3473.23   1
   5  -2   0 255516. 2863.08   4
   5  -2   0 259131. 2890.92   1
   5  -2   1-30.7074 137.337   1
  -5   2  -1 75.7851 97.2450   3
   5  -2   1 37.3123 123.858   4
  -5   2  -1 100.587 157.509   2
   5  -2   2 4364.97 367.921   1
  -5   2  -2 3932.69 290.946   3
   5  -2   2 3475.80 395.538   4
  -5   2  -2 3216.29 365.808   2
   5  -2   3 182667. 2157.99   1
   5  -2   3 178201. 2633.13   4
  -5   2  -3 183349. 2517.54   2
  -5   2  -4 74859.4 1393.29   3
   5  -2   4 72473.6 1343.16   1
  -5   2  -4 73688.8 1591.20   2
  -5   2  -5 155075. 2115.02   3
   5  -2   5 159635. 2663.57   4
  -5   2  -5 162017. 2311.51   2
  -5   2  -6 28627.9 956.851   3
   5  -2   6 29722.2 1184.95   4
  -5   2  -6 28556.0 987.038   2
  -5   2  -7 4076.68 410.866   3
   5  -2   7 4725.83 501.884   4
  -5   2  -7 4564.89 403.311   2
  -5   2  -8-242.103 191.847   2
  -5   2  -8-3.25126 144.076   3
   5  -2   8 340.926 195.808   4
  -5   2  -9 3395.70 377.682   2
  -5   2  -9 2867.33 383.617   3
   5  -2   9 2788.52 430.381   4
  -5   2 -10 8936.61 587.051   2
   5  -2  10 9431.54 766.013   4
  -5   2 -11 81722.6 1760.62   2
   5  -2  11 75361.3 2134.95   4
   5  -2  11 80922.3 2107.21   3
  -5   1  11 3963.82 513.740   2
   5  -1 -11 2963.50 447.863   1
   5  -1 -10 140876. 2719.70   1
  -5   1  10 133106. 2669.88   2
   5  -1  -9 174565. 3001.29   1
  -5   1   9 173055. 2960.89   2
   5  -1  -8 32555.9 1284.37   1
  -5   1   8 31343.1 1256.70   2
   5  -1  -7 2243.13 384.395   1
  -5   1   7 2743.23 395.588   2
   5  -1  -6-127.763 164.020   1
  -5   1   6 121.821 184.002   2
   5  -1  -5 134683. 2422.99   1
  -5   1   5 143938. 2454.29   2
   5  -1  -4 180438. 2713.18   1
  -5   1   4 181332. 2720.66   2
   5  -1  -3 33872.3 1152.50   1
  -5   1   3 33549.3 1147.28   2
   5  -1  -3 33160.5 879.534   4
   5  -1  -2 7603.80 537.823   1
  -5   1   2 7265.59 534.642   2
   5  -1  -2 7053.04 447.008   4
   5  -1  -1 154546. 2301.48   1
  -5   1   1 157482. 2406.74   2
   5  -1  -1 157437. 2127.70   4
   5  -1   0 373189. 3467.91   1
   5  -1   0 374224. 3411.09   4
   5  -1   1 14660.1 673.351   1
   5  -1   1 13782.1 681.228   4
  -5   1  -1 15556.5 736.792   2
   5  -1   2 117582. 1791.30   1
   5  -1   2 116878. 2054.83   4
  -5   1  -2 122308. 2049.32   2
  -5   1  -3 76894.1 1215.16   3
   5  -1   3 77069.0 1707.34   4
  -5   1  -3 77579.6 1601.83   2
  -5   1  -4 2652.23 257.517   3
  -5   1  -4 3173.14 351.362   2
   5  -1   4 3231.27 305.647   1
  -5   1  -5 1103.63 235.331   2
  -5   1  -5 968.151 186.622   3
   5  -1   5 849.088 248.527   4
   5  -1   5 699.015 162.058   1
   5  -1   6 186528. 2875.63   4
  -5   1  -6 184969. 2494.87   2
  -5   1  -7 83116.1 1634.51   3
  -5   1  -7 82917.8 1664.20   2
  -5   1  -8 50821.9 1363.01   3
   5  -1   8 54292.5 1638.03   4
  -5   1  -8 51480.6 1333.13   2
  -5   1  -9 322.018 194.422   2
   5  -1   9 530.749 243.817   4
   5  -1  10 128.707 183.346   3
  -5   1 -10-39.1252 150.662   2
   5  -1  10 309.209 235.719   4
   5  -1  11 1898.67 364.533   3
  -5   1 -11 1676.41 292.773   2
   5  -1  11 1528.00 374.457   4
   5  -1  12 197744. 3326.17   3
   5   0 -11 1477.41 377.303   1
  -5   0  10 6883.34 635.467   2
   5   0 -10 8106.90 687.758   1
   5   0  -9 85688.0 2087.50   1
  -5   0   9 82295.4 2052.78   2
   5   0  -8 282572. 3683.65   1
  -5   0   8 274569. 3626.58   2
   5   0  -7 93897.7 2079.60   1
  -5   0   7 98040.5 2129.09   2
   5   0  -6 2769.89 372.121   1
  -5   0   6 2525.23 362.345   2
   5   0  -5 2366.00 355.269   1
  -5   0   5 2361.15 356.162   2
   5   0  -4 126018. 2252.42   1
  -5   0   4 130615. 2282.84   2
   5   0  -4 125641. 1607.69   4
  -5   0   3 32752.4 1121.34   2
   5   0  -3 31256.6 847.219   4
   5   0  -2 120861. 2086.14   1
  -5   0   2 120322. 2084.43   2
   5   0  -1 262980. 2983.57   1
  -5   0   1 261368. 3064.16   2
   5   0  -1 269125. 2731.55   4
   5   0   0 107.655 129.184   1
   5   0   0-168.657 163.324   4
  -5   0   0 207.208 198.537   2
   5   0   1 30362.6 972.092   1
   5   0   1 30437.5 1010.53   4
  -5   0  -1 32038.2 1039.85   2
  -5   0  -2 142.369 151.121   2
   5   0   2 29.0162 142.823   1
   5   0   2-43.9037 143.569   4
   5   0   3 52825.3 1386.07   4
   5   0   3 52571.5 1174.95   1
   5   0   4 49108.9 1115.75   1
  -5   0  -4 46144.1 924.048   3
   5   0   4 47131.5 1357.56   4
  -5   0  -4 47238.8 1254.15   2
  -5   0  -5-116.718 135.054   2
  -5   0  -5 323.538 132.060   3
   5   0   5 26.5247 114.938   1
   5   0   5-52.1249 158.457   4
  -5   0  -6 14010.9 610.233   3
   5   0   6 15654.3 837.875   4
  -5   0  -6 14585.1 703.085   2
   5   0   7 179026. 2849.05   4
  -5   0  -7 174411. 2417.62   2
   5   0   8 298532. 3765.11   4
   5   0   8 295042. 3190.19   3
  -5   0  -8 298232. 3134.62   2
  -5   0  -9 103125. 1889.34   2
   5   0   9 107842. 2310.87   4
   5   0   9 102177. 2001.86   3
   5   0  10 1500.21 299.741   3
  -5   0 -10 1672.98 280.537   2
   5   0  10 1720.63 342.324   4
  -5   0 -11 3721.69 404.948   2
   5   0  11 3148.34 457.970   4
   5   0  11 3535.55 449.319   3
  -5   0 -12 14921.9 787.620   2
   5   0  12 14507.2 941.207   4
   5   0  12 14643.6 908.603   3
   5   1 -10 1676.71 368.018   1
  -5  -1  10 1308.67 345.507   2
   5   1  -9 2093.90 361.997   1
  -5  -1   9 2755.75 428.418   2
  -5  -1   8 19103.9 969.293   2
   5   1  -8 20164.7 1001.04   1
  -5  -1   7 160576. 2680.49   2
   5   1  -7 155122. 2691.00   1
   5   1  -6 11267.2 742.925   1
  -5  -1   6 9761.91 663.784   2
   5   1  -5 17014.7 869.585   1
  -5  -1   5 17597.0 870.427   2
   5   1  -4 12113.7 708.412   1
  -5  -1   4 12565.7 719.220   2
   5   1  -4 11425.4 496.743   4
   5   1  -3 4403.88 433.938   1
  -5  -1   3 3665.81 392.852   2
   5   1  -3 3927.06 309.820   4
   5   1  -2 2409.59 321.502   1
  -5  -1   2 3057.53 350.023   2
   5   1  -2 2629.80 276.092   4
   5   1  -1 128596. 2130.99   1
  -5  -1   1 125526. 2103.97   2
   5   1  -1 126609. 1861.58   4
   5   1   0 306585. 3168.85   1
   5   1   0 307277. 3006.22   4
  -5  -1   0 313715. 3263.17   2
   5   1   1 162834. 2291.61   4
   5   1   1 163443. 2240.46   1
   5   1   2 7572.14 479.953   1
   5   1   2 7179.14 503.891   4
  -5  -1  -2 7418.58 510.545   2
   5   1   3 612807. 4117.07   1
   5   1   3 616009. 4702.51   4
   5   1   4 223441. 2922.53   4
   5   1   4 225543. 2369.98   1
   5   1   5 104000. 1556.82   1
   5   1   5 103043. 2016.24   4
   5   1   5 100987. 1422.71   3
   5   1   6 368.206 140.800   3
  -5  -1  -6 129.492 129.664   2
   5   1   6 316.216 162.920   4
  -5  -1  -6 99.9371 100.454   1
   5   1   7 378.678 156.526   3
  -5  -1  -7-16.6269 131.636   2
   5   1   7 298.945 193.919   4
   5   1   8 14952.1 839.520   4
  -5  -1  -8 14828.1 702.489   2
   5   1   8 15473.8 711.061   3
  -5  -1  -9 60672.6 1433.31   2
   5   1   9 59023.4 1681.70   4
   5   1   9 62275.1 1519.66   3
  -5  -1 -10 16188.0 762.223   2
   5   1  10 16296.4 921.825   4
   5   1  10 16261.5 832.622   3
  -5  -1 -11 2567.34 344.807   2
   5   1  11 2501.58 396.311   4
   5   1  11 2569.50 388.742   3
   5   1  12 149.926 240.093   3
  -5  -1 -12-59.7450 185.004   2
   5   1  12 347.532 249.766   4
   5   1  13 497.205 234.482   3
   5   1  13 1348.66 334.768   4
   5   2  -9 9222.48 707.070   1
  -5  -2   9 9537.71 725.007   2
   5   2  -8 7532.95 625.763   1
  -5  -2   8 7354.20 616.799   2
   5   2  -7 1119.94 296.970   1
  -5  -2   7 1364.36 301.685   2
   5   2  -6 6968.34 571.890   1
  -5  -2   6 4981.85 489.689   2
  -5  -2   5 217862. 2960.21   2
   5   2  -5 212777. 3004.95   1
  -5  -2   4 39857.9 1240.22   2
   5   2  -4 36929.5 1218.76   1
  -5  -2   3 241859. 2980.29   2
   5   2  -3 241428. 2345.00   4
   5   2  -3 235579. 3007.66   1
  -5  -2   2 29898.7 1031.72   2
   5   2  -2 30272.4 871.438   4
   5   2  -2 27485.3 1017.66   1
   5   2  -1 427.769 206.759   1
   5   2  -1 241.601 129.524   4
  -5  -2   1 41.0743 137.064   2
   5   2   0 438802. 3814.24   1
  -5  -2   0 432365. 3774.45   2
   5   2   0 439803. 3587.42   4
   5   2   1 566393. 4209.36   4
  -5  -2  -1 563782. 4249.09   2
   5   2   2 453174. 3645.29   1
   5   2   2 449974. 3855.96   4
  -5  -2  -2 448603. 3806.88   2
   5   2   3 78257.5 1661.87   4
  -5  -2  -3 81156.5 1626.76   2
   5   2   3 79189.5 1483.15   1
   5   2   4 237885. 2504.67   1
   5   2   4 232972. 2962.57   4
  -5  -2  -4 240988. 2771.36   2
  -5  -2  -5 118656. 1719.64   1
   5   2   5 123177. 2209.36   4
  -5  -2  -5 125111. 1966.89   2
  -5  -2  -6 9031.21 474.676   1
   5   2   6 9305.84 633.935   4
  -5  -2  -6 8019.91 511.977   2
  -5  -2  -7 36392.4 896.838   1
   5   2   7 36803.2 1272.19   4
  -5  -2  -7 37363.3 1092.28   2
   5   2   7 36328.7 958.388   3
   5   2   8 48855.4 1488.30   4
   5   2   8 47805.0 1189.66   3
   5   2   9 535.013 181.807   3
  -5  -2  -9 255.786 169.988   2
   5   2   9 412.141 191.070   4
   5   2  10 62317.2 1548.66   3
  -5  -2 -10 64273.7 1500.40   2
   5   2  10 63762.0 1762.94   4
   5   2  11 114301. 2207.24   3
  -5  -2 -11 117831. 2053.93   2
   5   2  12 138052. 2568.00   3
  -5  -2 -12 136725. 2281.68   2
   5   2  12 134634. 2668.45   4
   5   2  13 78453.1 2044.01   3
   5   2  13 75748.9 2068.30   4
   5   3  -9 10897.7 769.991   1
   5   3  -8 3120.78 443.652   1
  -5  -3   7 54028.5 1558.55   2
   5   3  -7 50489.5 1516.07   1
   5   3  -6 20558.1 970.434   1
  -5  -3   6 21078.7 961.293   2
   5   3  -5 1400.74 304.089   1
  -5  -3   5 1340.01 265.780   2
   5   3  -4 35061.3 1218.95   1
  -5  -3   4 36847.7 1180.67   2
   5   3  -3 100553. 2002.51   1
  -5  -3   3 106053. 1930.97   2
   5   3  -3 101243. 1545.24   4
   5   3  -2 121896. 2157.94   1
  -5  -3   2 125678. 2085.76   2
   5   3  -2 125062. 1795.32   4
   5   3  -1 8483.41 570.637   1
  -5  -3   1 9272.59 567.379   2
   5   3  -1 10261.3 538.493   4
   5   3   0 1584.88 266.250   1
   5   3   0 945.795 192.001   4
  -5  -3   0 1062.93 228.834   2
   5   3   1 107566. 1828.26   4
  -5  -3  -1 106259. 1831.44   2
   5   3   1 109331. 1876.38   1
   5   3   2 86847.3 1646.92   1
   5   3   2 88405.3 1699.13   4
  -5  -3  -2 89841.2 1677.92   2
   5   3   3 198441. 2615.09   4
   5   3   3 199863. 2380.23   1
  -5  -3  -3 200312. 2466.85   2
  -5  -3  -4 162692. 2121.27   1
   5   3   4 167961. 2518.09   4
  -5  -3  -4 169539. 2291.10   2
  -5  -3  -5 7505.35 454.527   1
  -5  -3  -5 7226.45 479.903   2
  -5  -3  -6 9692.99 502.625   1
   5   3   6 8882.75 616.202   4
  -5  -3  -6 9830.87 562.921   2
  -5  -3  -7 188.274 141.882   2
  -5  -3  -7 57.5728 112.254   1
   5   3   8 34433.2 985.935   3
  -5  -3  -8 32333.0 830.045   1
   5   3   8 34036.4 1236.97   4
  -5  -3  -8 31812.9 1010.18   2
   5   3   9 219413. 2683.10   3
   5   3   9 219336. 3191.73   4
   5   3  10 45382.8 1321.06   3
  -5  -3 -10 50156.0 1307.11   2
   5   3  10 47662.9 1517.85   4
   5   3  11 65570.0 1672.60   3
  -5  -3 -11 69375.0 1566.56   2
   5   3  11 67068.6 1834.83   4
   5   3  12 81608.1 1938.19   3
  -5  -3 -12 85687.7 1791.21   2
   5   3  12 85256.7 2100.69   4
   5   3  13 72281.4 1904.69   3
  -5  -3 -13 77358.0 1766.53   2
   5   3  13 75437.3 2041.79   4
   5   3  14 44444.2 1598.58   3
   5   4  -7 14372.0 830.596   1
   5   4  -6 155618. 2657.11   1
  -5  -4   6 146890. 2479.61   2
   5   4  -5 172523. 2746.67   1
  -5  -4   5 167733. 2554.10   2
   5   4  -4 7683.75 593.776   1
  -5  -4   4 8043.41 565.798   2
  -5  -4   3-112.390 171.971   2
   5   4  -3 122.538 175.587   1
   5   4  -3 41.1983 113.215   4
   5   4  -2 15382.9 784.146   1
  -5  -4   2 15653.4 733.640   2
   5   4  -2 15151.0 634.760   4
   5   4  -1 31125.4 1071.19   1
  -5  -4   1 30787.1 998.838   2
   5   4  -1 30580.5 922.024   4
   5   4   0-179.147 139.721   1
   5   4   0-85.4553 138.286   4
  -5  -4   0 266.917 161.750   2
   5   4   1 15735.8 707.909   4
  -5  -4  -1 14668.3 674.066   2
   5   4   1 15589.1 725.998   1
   5   4   2 24296.4 894.102   4
  -5  -4  -2 24877.1 873.739   2
  -5  -4  -3 80653.0 1545.17   1
   5   4   3 81965.4 1679.87   4
  -5  -4  -3 83526.9 1571.60   2
  -5  -4  -4 37234.7 1037.50   1
   5   4   4 35990.8 1149.12   4
  -5  -4  -5 120754. 1816.95   1
   5   4   5 118097. 2134.16   4
  -5  -4  -5 120573. 1879.14   2
  -5  -4  -6 68963.6 1351.48   1
   5   4   6 69310.0 1670.09   4
  -5  -4  -6 67844.5 1417.47   2
  -5  -4  -7 21131.9 729.136   1
   5   4   7 22438.0 989.809   4
  -5  -4  -7 21146.0 808.386   2
  -5  -4  -8 2916.65 281.902   1
   5   4   8 2570.13 347.660   4
  -5  -4  -8 2770.72 299.855   2
  -5  -4  -9 106039. 1839.02   2
   5   4   9 106632. 2164.12   4
  -5  -4 -10 118374. 1982.15   2
   5   4  10 114342. 2287.09   4
   5   4  11 42114.1 1300.85   3
  -5  -4 -11 44921.1 1254.40   2
   5   4  11 42958.9 1440.08   4
   5   4  12 32211.6 1207.12   3
  -5  -4 -12 33811.9 1126.97   2
   5   4  12 33003.3 1283.15   4
   5   4  13 12616.9 816.952   3
  -5  -4 -13 12836.6 732.896   2
   5   4  13 11996.8 814.072   4
   5   4  14 11759.6 826.410   3
   5   4  14 13515.5 874.115   4
  -5  -5   7 1818.30 330.440   1
  -5  -5   6 27158.4 1057.24   1
  -5  -5   5 166166. 2558.96   1
  -5  -5   4 206917. 2851.14   1
  -5  -5   3 24358.7 978.571   1
  -5  -5   3 21711.7 871.718   2
   5   5  -3 23757.5 806.386   4
  -5  -5   2 6649.03 514.175   1
  -5  -5   2 6869.25 497.151   2
   5   5  -2 5843.99 418.781   4
  -5  -5   1 29533.8 1027.77   1
  -5  -5   1 30323.7 985.884   2
   5   5  -1 29753.0 926.873   4
  -5  -5   0 73718.8 1602.81   1
  -5  -5   0 72804.9 1486.20   2
   5   5   0 68934.0 1440.56   4
  -5  -5  -1 7493.39 512.023   1
   5   5   1 7253.34 487.443   4
  -5  -5  -1 7709.79 495.329   2
  -5  -5  -2 133785. 2075.55   1
   5   5   2 133507. 2091.07   4
  -5  -5  -3 41184.3 1119.88   1
   5   5   3 39872.3 1164.62   4
  -5  -5  -3 41012.4 1092.13   2
  -5  -5  -4 138.889 134.946   2
   5   5   4 175.940 145.673   4
  -5  -5  -4 161.006 122.060   1
  -5  -5  -5 383.068 138.650   2
   5   5   5 324.047 172.402   4
  -5  -5  -5 449.385 157.475   1
  -5  -5  -6 44361.6 1110.06   1
   5   5   6 44966.7 1334.08   4
  -5  -5  -6 43830.2 1127.37   2
  -5  -5  -7 21538.3 757.531   1
   5   5   7 22407.0 956.988   4
  -5  -5  -8 43714.2 1042.81   1
   5   5   8 44579.3 1375.04   4
  -5  -5  -8 44858.6 1170.36   2
  -5  -5  -9 152.569 120.585   1
  -5  -5  -9 160.117 165.225   2
   5   5   9 369.513 205.037   4
  -5  -5 -10 37100.9 1112.37   2
   5   5  10 37301.0 1325.47   4
  -5  -5 -11 68478.7 1541.14   2
   5   5  11 68759.7 1826.39   4
  -5  -5 -12 71820.9 1618.25   2
   5   5  12 75227.2 1953.81   4
   5   5  13 1739.60 358.672   3
  -5  -5 -13 1381.52 304.032   2
   5   5  13 1180.97 331.263   4
   5   5  14 8459.99 715.740   3
   5   5  14 9183.07 739.510   4
  -5  -6   7 34653.9 1226.39   1
  -5  -6   6 41278.8 1308.51   1
  -5  -6   5 46053.9 1358.63   1
  -5  -6   4 25995.5 1016.09   1
  -5  -6   3 122654. 2152.17   1
   5   6  -3 115953. 1858.57   4
  -5  -6   2 2584.03 348.311   1
   5   6  -2 2549.86 305.966   4
  -5  -6   1 57588.5 1453.83   1
   5   6  -1 54955.0 1290.44   4
  -5  -6   0 10880.6 629.671   1
   5   6   0 10983.3 593.275   4
  -5  -6  -1 18059.7 798.138   1
   5   6   1 18825.0 790.781   4
  -5  -6  -1 19373.3 757.316   2
  -5  -6  -2 98065.2 1811.71   1
   5   6   2 96460.8 1800.09   4
  -5  -6  -2 98460.9 1658.10   2
  -5  -6  -3 71.5237 121.735   2
   5   6   3 300.432 143.701   4
  -5  -6  -3-11.7530 148.041   1
  -5  -6  -4 48112.6 1224.07   1
   5   6   4 49494.4 1343.90   4
  -5  -6  -4 48276.7 1148.59   2
  -5  -6  -5 43209.1 1144.39   1
   5   6   5 41168.2 1240.21   4
  -5  -6  -5 42437.5 1090.52   2
  -5  -6  -6 1248.42 219.147   1
  -5  -6  -6 1050.82 198.641   2
   5   6   6 848.857 224.515   4
  -5  -6  -7 14692.8 643.067   1
   5   6   7 15739.4 813.664   4
  -5  -6  -7 14359.0 640.343   2
  -5  -6  -8 104859. 1666.61   1
   5   6   8 108711. 2124.08   4
  -5  -6  -8 104269. 1743.81   2
  -5  -6  -9 61735.3 1360.06   2
   5   6   9 62684.5 1651.19   4
  -5  -6  -9 61388.0 1254.14   1
  -5  -6 -10 6779.52 487.576   2
   5   6  10 7498.94 596.734   4
  -5  -6 -11-35.2542 151.187   2
   5   6  11 221.398 225.214   4
  -5  -6 -12 31824.9 1080.09   2
   5   6  12 30864.2 1212.97   4
  -5  -6 -13 1440.32 279.165   2
   5   6  13 1209.25 300.460   4
   5   6  14 28830.9 1226.44   4
  -5  -7   6 115713. 2225.27   1
  -5  -7   5 252612. 3244.28   1
  -5  -7   4 78719.4 1786.36   1
  -5  -7   3 45.7350 170.699   1
   5   7  -3 209.264 171.789   4
  -5  -7   2 3573.42 432.327   1
   5   7  -2 3704.18 360.035   4
  -5  -7   1 17150.7 813.248   1
   5   7  -1 16918.7 756.256   4
  -5  -7   0 56269.0 1448.54   1
   5   7   0 54585.7 1338.56   4
  -5  -7  -1 85688.4 1763.76   1
   5   7   1 81844.9 1647.07   4
  -5  -7  -1 82305.2 1494.06   2
  -5  -7  -2 41162.6 1199.45   1
   5   7   2 42836.4 1204.23   4
  -5  -7  -2 44175.8 1089.11   2
  -5  -7  -3 13963.5 697.478   1
   5   7   3 14060.6 709.112   4
  -5  -7  -3 15072.3 639.968   2
  -5  -7  -4 183857. 2463.15   1
   5   7   4 177647. 2534.11   4
  -5  -7  -4 178649. 2185.31   2
  -5  -7  -5 271543. 2937.70   1
   5   7   5 279197. 3225.36   4
  -5  -7  -6 125400. 1957.50   1
   5   7   6 122018. 2183.91   4
  -5  -7  -6 127059. 1851.81   2
  -5  -7  -7 23.0426 145.242   1
  -5  -7  -7-52.2815 142.832   2
   5   7   7-131.918 193.390   4
  -5  -7  -8 57149.7 1279.69   1
   5   7   8 55240.1 1505.92   4
  -5  -7  -8 56103.7 1267.97   2
  -5  -7  -9 102855. 1753.15   2
   5   7   9 100651. 2076.80   4
  -5  -7  -9 103104. 1692.82   1
  -5  -7 -10 9322.90 554.801   2
   5   7  10 8967.23 646.764   4
  -5  -7 -10 7732.32 471.615   1
  -5  -7 -11 709.918 210.096   2
   5   7  11 1159.65 269.756   4
  -5  -7 -12 77242.8 1659.54   2
   5   7  12 73083.8 1858.45   4
  -5  -7 -13 3802.65 408.113   2
   5   7  13 2253.58 367.711   4
   5   7  14 10498.4 761.135   4
  -5  -8   5 1425.69 329.367   1
  -5  -8   4 1867.05 310.024   1
  -5  -8   3 93191.5 1932.48   1
   5   8  -3 88247.8 1752.81   4
  -5  -8   2 20375.0 898.952   1
   5   8  -2 19138.6 818.959   4
   5   8  -1 77.2831 138.867   4
  -5  -8   1 560.041 259.649   1
  -5  -8   0 29863.9 1089.14   1
   5   8   0 25444.8 952.115   4
  -5  -8  -1 260598. 3119.23   1
   5   8   1 243691. 2904.91   4
  -5  -8  -2 202288. 2707.39   1
   5   8   2 187427. 2558.54   4
  -5  -8  -3 85923.9 1741.07   1
   5   8   3 81346.9 1708.54   4
  -5  -8  -4 290.545 177.716   1
  -5  -8  -4-98.8455 133.633   2
   5   8   4-33.0981 138.666   4
  -5  -8  -5 110015. 1917.13   1
   5   8   5 113291. 2081.30   4
  -5  -8  -5 114593. 1722.26   2
  -5  -8  -6 80357.2 1617.14   1
   5   8   6 79133.5 1789.29   4
  -5  -8  -6 77160.7 1422.02   2
  -5  -8  -7 2944.79 331.170   1
   5   8   7 2442.21 347.702   4
  -5  -8  -7 2221.34 270.652   2
  -5  -8  -8 113651. 1868.23   1
   5   8   8 116356. 2201.18   4
  -5  -8  -9 51539.3 1234.91   2
   5   8   9 54422.7 1527.91   4
  -5  -8  -9 53703.9 1273.86   1
  -5  -8 -10 30924.3 983.399   2
   5   8  10 32669.0 1198.51   4
  -5  -8 -10 30837.0 948.562   1
  -5  -8 -11 64125.9 1443.94   2
   5   8  11 59758.2 1628.13   4
  -5  -8 -12 89450.4 1781.15   2
   5   8  12 86425.9 1989.80   4
  -5  -8 -13 21664.7 915.708   2
   5   8  13 19271.5 971.426   4
   5   8  14 179.006 246.482   4
  -5  -9   3 85242.6 1887.75   1
   5   9  -3 81439.0 1778.92   4
  -5  -9   2 143891. 2415.14   1
   5   9  -2 141933. 2327.20   4
  -5  -9   1 5259.33 480.533   1
   5   9  -1 5642.73 478.796   4
  -5  -9   0 764.958 351.402   1
   5   9   0 406.366 247.969   4
  -5  -9  -1 7090.42 538.557   1
   5   9   1 6955.14 528.608   4
  -5  -9  -2 93628.9 1877.38   1
   5   9   2 88781.1 1831.40   4
  -5  -9  -3 21369.3 899.581   1
   5   9   3 22832.2 937.211   4
  -5  -9  -4 314.267 186.622   1
   5   9   4-91.9826 167.474   4
  -5  -9  -5 19275.5 826.472   1
   5   9   5 18741.3 850.263   4
  -5  -9  -6 144.363 144.006   1
  -5  -9  -6 158.511 136.603   2
   5   9   6 526.256 237.091   4
  -5  -9  -7 9439.61 497.117   2
  -5  -9  -7 8491.15 545.534   1
   5   9   7 8477.16 605.335   4
  -5  -9  -8 20341.5 754.381   2
   5   9   8 20796.0 941.869   4
  -5  -9  -9 105337. 1725.44   2
   5   9   9 105210. 2143.05   4
  -5  -9  -9 99656.1 1791.41   1
  -5  -9 -10 177025. 2295.14   2
   5   9  10 186119. 2850.61   4
  -5  -9 -10 181840. 2393.71   1
  -5  -9 -11 21489.7 846.800   2
   5   9  11 21415.6 987.033   4
  -5  -9 -11 19488.5 785.748   1
  -5  -9 -12 8538.56 571.735   2
   5   9  12 7307.19 598.978   4
  -5  -9 -13 74060.3 1665.18   2
   5   9  13 69535.9 1823.93   4
   5  10  -2 5297.51 501.525   4
  -5 -10   1 14297.9 788.843   1
   5  10  -1 14969.6 784.145   4
  -5 -10   0 18098.4 1068.09   1
   5  10   0 10617.6 885.456   4
  -5 -10  -1 7032.15 558.011   1
   5  10   1 8283.35 612.162   4
  -5 -10  -2 16580.4 811.489   1
   5  10   2 17631.4 846.122   4
  -5 -10  -3 11824.1 687.919   1
   5  10   3 12428.5 720.131   4
  -5 -10  -4 46792.7 1330.05   1
   5  10   4 46617.6 1363.22   4
  -5 -10  -5 36216.3 1158.64   1
   5  10   5 34535.8 1173.83   4
  -5 -10  -6 230413. 2880.42   1
   5  10   6 226025. 3017.69   4
  -5 -10  -7 54575.2 1391.77   1
   5  10   7 54102.4 1486.22   4
  -5 -10  -8 515.023 215.853   1
   5  10   8 179.471 176.038   4
  -5 -10  -9 106208. 1690.22   2
   5  10   9 107113. 2150.11   4
  -5 -10  -9 111420. 1939.62   1
  -5 -10 -10 266171. 2798.81   2
   5  10  10 273346. 3467.94   4
  -5 -10 -10 267226. 2989.75   1
  -5 -10 -11 48358.2 1249.14   2
   5  10  11 52464.8 1547.62   4
  -5 -10 -11 50398.1 1299.86   1
  -5 -10 -12 981.331 253.073   2
   5  10  12 1122.15 297.384   4
  -5 -10 -13 2854.05 376.276   2
   5  11   0 7788.74 604.168   4
  -5 -11  -1 2547.75 506.439   1
   5  11   1 3173.05 649.681   4
  -5 -11  -2 102722. 2027.11   1
   5  11   2 100264. 2060.77   4
  -5 -11  -3 38016.2 1242.06   1
   5  11   3 37753.8 1267.11   4
  -5 -11  -4 663.882 236.728   1
   5  11   4 1246.97 273.668   4
  -5 -11  -5 1835.55 334.020   1
   5  11   5 1425.66 295.406   4
  -5 -11  -6 101746. 1982.12   1
   5  11   6 98812.8 2048.64   4
  -5 -11  -7 51952.4 1399.99   1
   5  11   7 51925.0 1477.20   4
  -5 -11  -8 718.748 237.803   1
   5  11   8 728.822 223.456   4
   5  11   9 19127.3 912.981   4
  -5 -11  -9 17400.9 817.575   1
   5  11  10 100051. 2104.47   4
  -5 -11 -10 96382.2 1867.44   1
   5  11  11 50470.6 1516.27   4
  -5 -11 -11 46440.2 1291.97   1
  -5 -11 -12 5119.41 464.036   1
  -5 -12  -5 63549.6 1616.68   1
   5  12   5 64986.1 1687.50   4
  -5 -12  -6 5559.88 504.109   1
   5  12   6 5217.65 497.932   4
  -5 -12  -7 11708.9 695.461   1
   5  12   7 12083.2 758.368   4
  -5 -12  -8 1277.93 289.654   1
   5  12   8 2224.27 368.406   4
  -5 -12  -9 31156.8 1122.00   1
  -5 -12 -10 17859.8 852.406   1
  -5 -12 -11 203376. 2806.46   1
  -6  10   6 47848.4 1747.62   2
   6 -10  -5 130764. 2820.63   1
  -6  10   5 134828. 2837.28   2
   6 -10  -4 186.656 290.255   1
  -6  10   4 338.369 294.823   2
   6 -10  -3 522.362 282.222   1
  -6  10   3 1022.25 347.953   2
   6 -10  -2 9962.96 751.337   1
  -6  10   2 9789.04 743.468   2
  -6  10   1 48078.4 1562.92   3
   6 -10  -1 43552.7 1641.85   4
  -6  10   0 45232.4 1573.02   3
   6 -10   0 47394.5 1751.11   4
  -6  10  -1 139.313 249.716   3
  -6   9   7 610.508 332.707   2
   6  -9  -6 130209. 2839.04   1
  -6   9   6 124639. 2760.29   2
   6  -9  -5 188.655 249.337   1
  -6   9   5 400.372 316.223   2
   6  -9  -4 42046.6 1551.42   1
  -6   9   4 43140.4 1557.06   2
   6  -9  -3 10485.8 786.464   1
  -6   9   3 11581.7 824.252   2
   6  -9  -2 579.813 303.642   1
  -6   9   2 895.406 315.803   2
  -6   9   1 227.555 256.065   2
   6  -9  -1 211.702 241.985   1
   6  -9  -1 484.002 260.883   4
  -6   9   0 3011.03 423.606   3
   6  -9   0 3027.41 468.513   4
  -6   9   0 3266.06 436.500   2
  -6   9  -1 20954.3 1044.29   3
   6  -9   1 21244.1 1185.17   4
  -6   9  -1 21429.7 1015.90   2
  -6   9  -2-39.8423 251.446   3
   6  -8  -7 189052. 3430.33   1
  -6   8   7 199646. 3557.67   2
   6  -8  -6 22626.1 1185.30   1
  -6   8   6 25203.6 1260.97   2
   6  -8  -5 32997.2 1369.40   1
  -6   8   5 35304.5 1452.13   2
   6  -8  -4 48357.0 1613.19   1
  -6   8   4 48853.7 1665.69   2
   6  -8  -3 22849.3 1093.63   1
  -6   8   3 21590.2 1090.15   2
   6  -8  -2 4153.27 482.355   1
   6  -8  -2 3398.47 443.528   4
  -6   8   2 4582.34 516.640   2
   6  -8  -1 1929.56 361.272   4
   6  -8  -1 2120.74 377.407   1
  -6   8   1 1946.21 355.752   2
   6  -8   0 2603.95 427.980   4
  -6   8   0 2587.88 407.110   2
  -6   8  -1 1622.05 328.843   2
  -6   8  -1 1362.95 302.157   3
   6  -8   1 1157.28 325.005   4
  -6   8  -2 16192.7 903.656   3
   6  -8   2 16335.9 1025.99   4
  -6   8  -2 16235.9 866.661   2
  -6   8  -3 77665.5 1997.04   3
  -6   8  -3 80224.9 1884.06   2
  -6   8  -4 80521.3 2084.08   3
  -6   7   8 4652.66 593.970   2
   6  -7  -7 5093.55 615.785   1
  -6   7   7 5138.35 605.022   2
   6  -7  -6 10556.4 808.595   1
  -6   7   6 10561.7 826.527   2
   6  -7  -5 14250.0 909.480   1
  -6   7   5 14469.9 925.032   2
   6  -7  -4 4897.07 567.871   1
  -6   7   4 4003.66 518.668   2
   6  -7  -3 3219.91 452.130   1
  -6   7   3 3738.41 467.522   2
   6  -7  -2 595.789 276.138   1
   6  -7  -2 753.412 268.620   4
  -6   7   2 496.010 251.611   2
   6  -7  -1 34434.1 1271.16   1
   6  -7  -1 33182.4 1278.01   4
  -6   7   1 33707.1 1300.74   2
  -6   7   0 108.999 204.846   2
   6  -7   0 45.4657 197.857   4
   6  -7   0 17.0506 176.238   1
   6  -7   1 2049.84 368.576   4
  -6   7  -1 2646.84 398.195   2
  -6   7  -2 7492.83 605.117   3
   6  -7   2 6935.12 664.046   4
  -6   7  -2 8958.29 668.600   2
  -6   7  -3 1954.16 347.335   2
  -6   7  -3 1703.94 343.533   3
   6  -7   3 1971.78 395.186   4
  -6   7  -4 16034.6 902.536   3
   6  -7   4 15442.1 1016.59   4
  -6   7  -4 17247.2 867.653   2
  -6   7  -5 53604.3 1669.01   3
  -6   7  -5 55663.4 1537.45   2
   6  -6  -8 14929.5 1007.19   1
  -6   6   8 17469.1 1082.05   2
   6  -6  -7 55.2492 248.197   1
  -6   6   7 383.376 304.537   2
   6  -6  -6 2320.78 407.857   1
  -6   6   6 2076.36 423.187   2
   6  -6  -5 27549.7 1246.51   1
  -6   6   5 23515.7 1176.11   2
   6  -6  -4 4670.30 525.485   1
  -6   6   4 5280.10 571.025   2
   6  -6  -3 40617.9 1425.38   1
  -6   6   3 36238.0 1391.68   2
   6  -6  -2 30991.5 1205.75   1
   6  -6  -2 31721.8 1175.96   4
  -6   6   2 31735.5 1279.22   2
   6  -6  -1 404.993 231.085   1
   6  -6  -1 255.367 209.612   4
  -6   6   1 397.159 211.279   2
   6  -6   0 6115.34 583.419   4
   6  -6   0 5491.93 496.130   1
  -6   6   0 5530.65 536.825   2
   6  -6   1 20446.3 1038.43   4
   6  -6   1 20838.7 930.551   1
  -6   6  -1 21309.6 997.781   2
   6  -6   2 57242.9 1767.59   4
  -6   6  -2 62193.3 1668.06   2
   6  -6   3 24632.9 1192.32   4
  -6   6  -3 24868.9 1058.49   2
  -6   6  -4 10328.9 685.502   3
   6  -6   4 10601.8 827.509   4
  -6   6  -4 10391.9 689.208   2
  -6   6  -5 20456.2 995.874   3
   6  -6   5 19966.4 1147.64   4
  -6   6  -5 22038.0 985.290   2
  -6   6  -6 40173.0 1456.38   3
  -6   6  -6 36480.1 1230.16   2
  -6   5   8 97750.4 2497.08   2
   6  -5  -8 133675. 2876.51   1
  -6   5   7 22913.2 1189.44   2
   6  -5  -7 20948.5 1137.83   1
   6  -5  -6 24921.2 1203.27   1
  -6   5   6 25355.9 1221.15   2
   6  -5  -5 1882.27 358.054   1
  -6   5   5 1554.27 349.400   2
   6  -5  -4 310.810 181.351   1
  -6   5   4 265.654 235.147   2
   6  -5  -3 12731.1 807.771   1
  -6   5   3 12906.8 837.026   2
   6  -5  -2 136968. 2343.18   4
   6  -5  -2 136297. 2501.95   1
  -6   5   2 134767. 2606.97   2
   6  -5  -1 200315. 2967.08   4
   6  -5  -1 200017. 2956.96   1
  -6   5   1 198428. 3080.45   2
   6  -5   0 98447.2 2122.51   4
  -6   5   0 96745.7 2122.93   2
   6  -5   0 101968. 2072.78   1
   6  -5   1 9738.99 711.798   4
  -6   5  -1 9795.98 694.160   2
   6  -5   1 9992.27 648.761   1
  -6   5  -2 2030.19 334.179   2
   6  -5   2 1693.19 286.187   1
   6  -5   2 1760.51 368.624   4
   6  -5   3 62351.3 1857.05   4
  -6   5  -3 64901.8 1706.37   2
  -6   5  -4 416.847 199.910   2
   6  -5   4 421.738 228.073   4
  -6   5  -5 50395.3 1489.17   3
   6  -5   5 52145.7 1776.95   4
  -6   5  -5 50273.7 1460.95   2
  -6   5  -6 29835.4 1187.08   3
   6  -5   6 29839.7 1377.33   4
  -6   5  -6 30964.2 1151.77   2
  -6   5  -7 2282.08 383.371   3
  -6   5  -7 2800.33 386.047   2
  -6   4   8 17301.1 1061.25   2
   6  -4  -8 15326.2 1016.52   1
  -6   4   7 4323.20 532.414   2
   6  -4  -7 2969.43 459.799   1
  -6   4   6 26930.6 1260.95   2
   6  -4  -6 26538.8 1224.48   1
  -6   4   5 66256.0 1916.63   2
   6  -4  -5 63232.3 1850.85   1
  -6   4   4 84734.5 2104.92   2
   6  -4  -4 83459.7 2077.89   1
  -6   4   3 17177.0 941.827   2
   6  -4  -3 16335.7 909.641   1
   6  -4  -2 247.675 197.111   1
  -6   4   2 333.749 195.394   2
   6  -4  -1 144543. 2420.11   4
  -6   4   1 142361. 2610.49   2
   6  -4  -1 145547. 2515.12   1
   6  -4   0 407687. 4225.06   4
  -6   4   0 406206. 4346.35   2
   6  -4   0 398423. 4040.31   1
  -6   4  -1 1427.66 317.575   2
   6  -4   1 1002.65 246.955   1
   6  -4   1 1218.30 302.396   4
  -6   4  -2 425.758 217.276   2
   6  -4   2-28.1208 150.873   1
   6  -4   2-48.0246 171.346   4
   6  -4   3 4683.77 517.013   4
  -6   4  -3 4448.80 472.915   2
   6  -4   4 19420.8 1045.96   4
  -6   4  -4 21202.7 944.267   2
   6  -4   5 8111.63 722.279   4
  -6   4  -5 8854.19 625.802   2
   6  -4   6 23648.2 1224.68   4
  -6   4  -6 23767.0 1000.01   2
  -6   4  -7 17176.3 918.875   3
   6  -4   7 18139.3 1104.68   4
  -6   4  -7 18880.0 896.750   2
  -6   4  -8 18990.6 1006.04   3
  -6   4  -8 18139.8 872.865   2
   6  -3  -8 204902. 3510.48   1
  -6   3   8 209592. 3573.71   2
  -6   3   7 11426.3 832.384   2
   6  -3  -7 13079.9 878.832   1
   6  -3  -6 576.517 324.548   1
  -6   3   6 1019.00 333.343   2
  -6   3   5 10115.8 753.162   2
   6  -3  -5 10370.9 759.599   1
  -6   3   4 136284. 2636.69   2
   6  -3  -4 134882. 2615.89   1
  -6   3   3 59776.5 1745.71   2
   6  -3  -3 81981.0 1979.25   1
   6  -3  -2 21473.9 891.520   4
  -6   3   2 21646.2 1032.73   2
   6  -3  -2 21565.6 998.284   1
   6  -3  -1 6209.43 540.065   1
   6  -3  -1 7065.54 547.729   4
  -6   3   1 7783.83 630.352   2
   6  -3   0 12364.7 716.434   1
   6  -3   0 13612.2 769.677   4
  -6   3   0 14181.8 808.983   2
   6  -3   1 173076. 2561.31   1
   6  -3   1 180223. 2854.40   4
  -6   3  -1 173129. 2759.11   2
   6  -3   2 12681.6 684.264   1
   6  -3   2 13544.2 820.512   4
  -6   3  -2 12610.8 763.952   2
   6  -3   3 135784. 2109.56   1
   6  -3   3 133829. 2604.53   4
  -6   3  -3 131836. 2376.94   2
   6  -3   4 12324.5 818.893   4
  -6   3  -4 12871.9 756.631   2
   6  -3   5 2022.72 368.452   4
  -6   3  -5 2706.19 376.589   2
   6  -3   6 13683.1 904.364   4
  -6   3  -6 15380.3 810.282   2
   6  -3   7 83179.5 2247.65   4
  -6   3  -7 89007.2 1921.99   2
   6  -3   8 152578. 3098.24   4
  -6   3  -8 159361. 2555.60   2
  -6   3  -9 178481. 2989.38   3
   6  -2  -8 41053.3 1581.44   1
  -6   2   8 43085.1 1616.14   2
   6  -2  -7 138050. 2822.45   1
  -6   2   7 146448. 2891.03   2
   6  -2  -6 37261.4 1434.40   1
  -6   2   6 40078.9 1498.30   2
   6  -2  -5 2167.74 378.899   1
  -6   2   5 2367.06 394.027   2
   6  -2  -4 3667.14 459.156   1
  -6   2   4 2484.44 380.810   2
   6  -2  -3 46520.9 1487.31   1
  -6   2   3 48973.0 1562.78   2
   6  -2  -2 13685.9 791.930   1
  -6   2   2 14773.7 859.655   2
   6  -2  -2 13676.5 703.339   4
   6  -2  -1 60821.8 1608.50   1
   6  -2  -1 63598.3 1553.38   4
  -6   2   1 62816.7 1716.02   2
   6  -2   0 63675.9 1608.40   1
   6  -2   0 65862.0 1629.88   4
  -6   2   0 63734.7 1701.09   2
   6  -2   1 3765.59 401.583   1
   6  -2   1 4751.36 481.223   4
  -6   2  -1 3951.91 444.354   2
   6  -2   2 20883.7 868.834   1
   6  -2   2 20438.4 961.229   4
  -6   2  -2 20107.1 946.110   2
   6  -2   3 44003.2 1212.88   1
   6  -2   3 44350.1 1480.61   4
  -6   2  -3 43964.7 1366.90   2
   6  -2   4 114912. 2400.91   4
  -6   2  -4 117711. 2221.80   2
   6  -2   4 121547. 1933.41   1
   6  -2   5 32663.9 1330.00   4
  -6   2  -5 32800.2 1166.36   2
  -6   2  -6 1372.89 287.630   2
   6  -2   6 2134.95 381.543   4
   6  -2   7 2631.15 434.201   4
  -6   2  -7 3104.51 388.166   2
   6  -2   8 147307. 3032.48   4
  -6   2  -8 149283. 2465.01   2
  -6   2  -9 1538.65 328.320   2
  -6   1   8 433.526 261.590   2
   6  -1  -8 843.181 300.105   1
   6  -1  -7 24874.2 1180.43   1
  -6   1   7 26717.7 1247.26   2
   6  -1  -6 61366.1 1818.74   1
  -6   1   6 67962.4 1929.70   2
   6  -1  -5 87881.9 2138.80   1
  -6   1   5 92815.7 2205.13   2
   6  -1  -4 360.966 197.314   1
  -6   1   4 365.874 234.429   2
   6  -1  -3 6808.44 596.860   1
  -6   1   3 7394.39 633.035   2
   6  -1  -2 2188.93 344.825   1
  -6   1   2 2394.35 380.278   2
   6  -1  -2 2585.87 315.917   4
   6  -1  -1 2630.88 350.105   1
   6  -1  -1 2917.93 352.891   4
  -6   1   1 2791.69 382.389   2
   6  -1   0 373440. 3823.74   1
   6  -1   0 368112. 3763.51   4
  -6   1   0 369850. 4035.38   2
   6  -1   1 430822. 4029.11   1
   6  -1   1 437283. 4284.20   4
  -6   1  -1 427761. 4240.92   2
   6  -1   2 116501. 2035.26   1
   6  -1   2 117731. 2275.32   4
   6  -1   3 4949.23 504.138   4
  -6   1  -3 4289.02 432.226   2
   6  -1   3 5297.27 440.368   1
   6  -1   4 12268.1 649.172   1
   6  -1   4 14290.1 836.498   4
  -6   1  -4 13953.5 787.868   2
   6  -1   5 17676.5 955.274   4
  -6   1  -5 19699.5 907.015   2
  -6   1  -6 1866.65 316.656   2
   6  -1   6 1555.76 328.075   4
   6  -1   7 32444.0 1367.29   4
  -6   1  -7 34179.7 1179.97   2
  -6   1  -8 964.931 248.254   2
   6  -1   8 1668.11 387.118   4
   6  -1   9 5549.27 632.603   4
  -6   1  -9 5683.53 517.470   2
  -6   0   8 38423.9 1521.97   2
   6   0  -8 36513.5 1466.16   1
   6   0  -7 33746.2 1400.75   1
  -6   0   7 35340.2 1405.72   2
   6   0  -6 4986.52 561.954   1
  -6   0   6 5100.51 559.481   2
   6   0  -5 25826.0 1169.92   1
  -6   0   5 27659.6 1189.32   2
   6   0  -4 11679.7 776.277   1
  -6   0   4 13449.0 817.904   2
   6   0  -3 162835. 2760.91   1
  -6   0   3 159853. 2760.08   2
   6   0  -2 82543.6 1938.15   1
   6   0  -2 80698.1 1613.37   4
   6   0  -1 16078.9 845.410   1
  -6   0   1 18072.6 908.837   2
   6   0  -1 15942.2 770.439   4
   6   0   0 34130.5 1183.98   1
   6   0   0 36356.3 1192.53   4
  -6   0   0 33781.9 1221.75   2
   6   0   1 41786.0 1301.75   4
  -6   0  -1 39189.8 1272.80   2
   6   0   1 41961.2 1262.75   1
   6   0   2 170421. 2455.84   1
   6   0   2 174492. 2725.61   4
   6   0   3 2115.08 332.633   4
   6   0   3 1667.30 271.333   1
  -6   0  -3 1941.18 324.438   2
   6   0   4 1464.09 246.226   1
   6   0   4 1564.48 311.194   4
  -6   0  -4 2163.62 351.940   2
   6   0   5 14249.8 669.655   1
   6   0   5 13846.3 839.951   4
  -6   0  -5 13112.5 730.115   2
   6   0   6 26823.7 1191.74   4
  -6   0  -6 27477.4 1054.30   2
   6   0   7 36391.3 1401.90   4
  -6   0  -7 37083.9 1218.24   2
  -6   0  -8 734.594 261.087   2
   6   0   8 375.626 260.409   4
   6   0   9 53724.6 1759.21   4
  -6   0  -9 56346.7 1515.82   2
  -6   0 -10 4809.99 474.978   2
  -6  -1   8 4355.76 563.170   2
  -6  -1   7 3492.93 500.155   2
   6   1  -7 4366.91 539.078   1
  -6  -1   6 29031.1 1247.55   2
   6   1  -6 31425.7 1308.77   1
  -6  -1   5 51932.3 1620.22   2
   6   1  -5 50175.7 1613.61   1
   6   1  -4-50.6068 182.786   1
  -6  -1   4-49.7584 210.079   2
   6   1  -3 1424.34 330.631   1
  -6  -1   3 1050.30 264.498   2
  -6  -1   2 39648.9 1345.95   2
   6   1  -2 39446.7 1118.53   4
   6   1  -2 41189.6 1369.28   1
  -6  -1   1 8676.36 631.914   2
   6   1  -1 7227.90 511.661   4
   6   1  -1 7319.54 586.242   1
   6   1   0 24163.5 1000.02   1
   6   1   0 24126.0 950.009   4
  -6  -1   0 22645.6 986.883   2
   6   1   1 328792. 3572.21   1
   6   1   1 330953. 3605.66   4
  -6  -1  -1 324365. 3628.48   2
   6   1   2 2726.75 359.976   1
   6   1   2 3649.67 443.354   4
  -6  -1  -2 3355.97 397.448   2
   6   1   3 33779.4 1079.91   1
   6   1   3 32790.2 1196.52   4
  -6  -1  -3 35258.5 1180.53   2
   6   1   4 30513.6 1000.58   1
   6   1   4 30434.3 1201.91   4
  -6  -1  -4 30015.1 1103.20   2
   6   1   5 3253.98 425.246   4
  -6  -1  -5 3493.74 391.098   2
   6   1   5 3071.40 331.374   1
   6   1   6 25355.6 1136.94   4
  -6  -1  -6 25017.6 990.752   2
  -6  -1  -7 472.144 197.176   2
   6   1   7 400.514 225.804   4
   6   1   8 84214.8 2140.54   4
  -6  -1  -8 79400.8 1756.51   2
   6   1   9 36891.2 1452.46   4
  -6  -1  -9 35663.3 1196.44   2
  -6  -1 -10 40314.4 1283.65   2
   6   1  10 42752.2 1604.43   4
   6   2  -7 46375.3 1623.50   1
  -6  -2   7 43081.7 1558.80   2
   6   2  -6 4107.41 522.338   1
  -6  -2   6 4425.78 543.886   2
   6   2  -5 142599. 2729.85   1
  -6  -2   5 149133. 2709.14   2
   6   2  -4 200654. 3175.31   1
  -6  -2   4 205629. 3102.18   2
   6   2  -3 22171.6 1038.53   1
  -6  -2   3 21793.9 1005.70   2
   6   2  -2 2729.06 387.367   1
   6   2  -2 2184.05 299.899   4
  -6  -2   2 2110.31 337.340   2
   6   2  -1 4701.13 489.233   1
  -6  -2   1 4019.79 441.222   2
   6   2  -1 3986.97 390.872   4
   6   2   0 442123. 4280.80   1
  -6  -2   0 434414. 4197.04   2
  -6  -2  -1 1967.00 332.782   2
   6   2   1 1254.39 261.704   1
   6   2   1 1588.53 287.609   4
   6   2   2 258171. 3233.58   4
  -6  -2  -2 257443. 3199.91   2
   6   2   2 249628. 3042.13   1
  -6  -2  -3 108.275 160.508   2
   6   2   3-19.8368 150.571   1
   6   2   3-141.977 157.861   4
   6   2   4 7105.87 592.869   4
  -6  -2  -4 8327.42 576.888   2
   6   2   4 7563.44 512.679   1
  -6  -2  -5 17527.5 761.773   1
   6   2   5 15853.7 875.175   4
  -6  -2  -5 16924.2 810.691   2
  -6  -2  -6 11877.1 613.412   1
   6   2   6 12373.7 788.049   4
  -6  -2  -6 13081.9 720.025   2
   6   2   7 17156.8 953.830   4
  -6  -2  -7 17137.4 818.976   2
  -6  -2  -8 1632.62 280.274   2
   6   2   8 1336.18 306.885   4
   6   2   9 62225.5 1881.62   4
  -6  -2  -9 66158.7 1617.59   2
  -6  -2 -10 69380.8 1673.40   2
   6   2  10 70504.5 2037.25   4
  -6  -3   6 21734.2 1071.79   2
   6   3  -6 22454.6 1124.70   1
  -6  -3   5 8144.66 651.326   2
   6   3  -5 10706.6 774.544   1
  -6  -3   4 210678. 3134.11   2
   6   3  -4 203313. 3155.79   1
  -6  -3   3 171342. 2774.33   2
   6   3  -3 169020. 2823.40   1
   6   3  -2 1142.68 249.055   1
   6   3  -2 1011.33 220.807   4
  -6  -3   2 1414.42 288.930   2
  -6  -3   1 7535.18 578.868   2
   6   3  -1 6842.99 501.785   4
   6   3  -1 6923.16 570.673   1
   6   3   0 5480.72 508.949   1
  -6  -3   0 5632.88 502.037   2
   6   3   0 5891.50 477.638   4
   6   3   1 17501.1 843.843   1
   6   3   1 16464.2 792.306   4
  -6  -3  -1 17723.4 848.238   2
   6   3   2 39064.6 1260.42   4
  -6  -3  -2 35926.7 1185.37   2
   6   3   3 9463.29 648.482   4
  -6  -3  -3 8807.78 587.894   2
  -6  -3  -4 519.540 183.852   2
  -6  -3  -4 195.853 162.394   1
   6   3   4 465.985 199.375   4
  -6  -3  -5 10894.8 617.372   1
   6   3   5 11940.4 757.642   4
  -6  -3  -5 10683.6 636.131   2
  -6  -3  -6 2385.95 302.263   1
   6   3   6 2720.61 410.871   4
  -6  -3  -6 2786.17 345.319   2
  -6  -3  -7 32682.1 990.953   1
   6   3   7 31983.5 1279.66   4
  -6  -3  -7 34012.5 1136.77   2
   6   3   8 75936.8 2000.87   4
  -6  -3  -8 75506.1 1682.36   2
   6   3   9 174982. 3082.71   4
  -6  -3  -9 179049. 2629.64   2
  -6  -3 -10 11398.4 689.227   2
   6   3  10 12046.5 845.827   4
   6   3  11 5117.28 559.575   4
   6   4  -5 7709.81 656.744   1
   6   4  -4 11133.1 781.578   1
  -6  -4   4 11649.9 753.816   2
   6   4  -3 19340.9 991.060   1
  -6  -4   3 20562.7 957.019   2
   6   4  -2 5027.07 502.768   1
  -6  -4   2 5860.10 533.429   2
   6   4  -2 5487.78 438.973   4
   6   4  -1 8362.51 789.114   1
   6   4  -1 8205.28 568.214   4
  -6  -4   0 27200.3 1034.32   2
   6   4   0 26054.8 976.097   4
   6   4   0 27337.0 1139.73   1
   6   4   1 4947.46 455.474   4
  -6  -4  -1 4592.20 442.094   2
  -6  -4  -2 1475.26 262.316   2
  -6  -4  -2 1606.37 286.508   1
   6   4   2 1612.08 286.829   4
  -6  -4  -3 1708.14 283.054   2
  -6  -4  -3 2181.24 319.653   1
   6   4   3 1698.51 311.711   4
  -6  -4  -4 64138.5 1514.20   1
   6   4   4 59546.0 1621.64   4
  -6  -4  -4 62295.6 1512.20   2
  -6  -4  -5 197755. 2604.52   1
   6   4   5 194386. 2978.11   4
  -6  -4  -5 203542. 2710.87   2
  -6  -4  -6 40246.7 1162.06   1
   6   4   6 39720.3 1372.99   4
  -6  -4  -6 39399.9 1210.20   2
  -6  -4  -7 984.076 257.218   2
   6   4   7 1519.06 326.257   4
  -6  -4  -7 1058.18 227.234   1
   6   4   8 45293.2 1531.11   4
  -6  -4  -8 44736.4 1297.03   2
   6   4   9 181134. 3153.00   4
  -6  -4  -9 168052. 2531.51   2
  -6  -4 -10 5777.84 491.579   2
   6   4  10 7379.76 701.765   4
  -6  -4 -11 601.452 228.060   2
   6   4  11 418.268 237.882   4
  -6  -5   4 36171.6 1302.47   1
  -6  -5   3 24759.6 1064.38   1
  -6  -5   2 873.008 323.873   1
   6   5  -2 410.450 218.097   4
  -6  -5   2 223.414 215.553   2
  -6  -5   1 56474.7 1567.63   1
  -6  -5   1 52396.8 1439.32   2
   6   5  -1 55836.0 1395.86   4
  -6  -5   0 51331.8 1432.41   2
   6   5   0 50072.4 1439.51   4
  -6  -5  -1 267098. 3282.73   1
   6   5   1 277772. 3229.26   4
  -6  -5  -1 276161. 3214.61   2
  -6  -5  -2 109823. 2075.89   1
   6   5   2 115205. 2140.24   4
  -6  -5  -2 111549. 2017.90   2
  -6  -5  -3 6229.78 509.714   1
   6   5   3 6892.38 546.669   4
  -6  -5  -3 6601.63 508.066   2
  -6  -5  -4 12454.0 687.699   1
   6   5   4 12885.3 760.321   4
  -6  -5  -4 12214.2 674.237   2
   6   5   5 186870. 2893.79   4
  -6  -5  -5 190274. 2612.18   2
  -6  -5  -6 265931. 3010.55   1
   6   5   6 262305. 3499.16   4
  -6  -5  -6 264361. 3063.00   2
  -6  -5  -7 4757.72 418.335   1
   6   5   7 5022.13 514.523   4
  -6  -5  -7 4527.36 421.677   2
  -6  -5  -8 925.090 225.067   1
  -6  -5  -8 1338.19 263.774   2
   6   5   8 1288.77 308.752   4
  -6  -5  -9 463.981 197.440   2
   6   5   9 622.772 229.011   4
  -6  -5 -10 58656.8 1500.70   2
   6   5  10 57935.9 1764.38   4
  -6  -5 -11 394.404 226.819   2
   6   5  11 384.820 275.626   4
  -6  -6   3 63144.7 1703.83   1
  -6  -6   2 110287. 2223.95   1
   6   6  -2 97717.7 1848.17   4
  -6  -6   1 45307.4 1412.65   1
   6   6  -1 45376.0 1273.16   4
  -6  -6   0 40615.6 1318.17   1
  -6  -6   0 36940.9 1197.93   2
   6   6   0 40040.4 1223.04   4
  -6  -6  -1 7377.79 606.619   1
   6   6   1 7767.10 701.655   4
  -6  -6  -1 7423.22 551.163   2
  -6  -6  -2 178740. 2687.49   1
   6   6   2 179687. 2697.27   4
  -6  -6  -2 178851. 2518.71   2
  -6  -6  -3 84319.4 1819.34   1
   6   6   3 85224.2 1905.90   4
  -6  -6  -3 85423.1 1741.60   2
  -6  -6  -4 1043.77 252.110   2
   6   6   4 697.001 227.185   4
  -6  -6  -4 803.589 234.948   1
  -6  -6  -5 202.564 173.826   2
   6   6   5 185.598 210.753   4
  -6  -6  -6 10489.9 623.526   1
   6   6   6 11621.3 753.560   4
  -6  -6  -6 11689.6 652.053   2
  -6  -6  -7 46679.0 1262.29   1
   6   6   7 46362.4 1499.87   4
  -6  -6  -7 43919.8 1251.08   2
  -6  -6  -8 59429.8 1398.16   1
   6   6   8 62230.5 1787.34   4
  -6  -6  -8 62698.0 1490.38   2
   6   6   9 69724.7 1908.28   4
  -6  -6  -9 69111.4 1586.95   2
  -6  -6 -10 16959.1 821.181   2
   6   6  10 16945.3 969.970   4
  -6  -6 -11 663.270 272.551   2
   6   6  11 836.511 298.163   4
  -6  -7   2 24472.6 1063.11   1
  -6  -7   1 50233.4 1515.09   1
   6   7  -1 44228.3 1322.00   4
  -6  -7   0 17468.8 974.556   1
   6   7   0 16876.7 842.296   4
  -6  -7  -1 2014.55 353.132   1
   6   7   1 2387.59 361.242   4
  -6  -7  -2 10386.5 678.218   1
   6   7   2 9478.75 637.129   4
  -6  -7  -3 65832.9 1636.83   1
   6   7   3 64727.5 1655.09   4
  -6  -7  -3 63213.2 1463.77   2
  -6  -7  -4 122967. 2204.52   1
   6   7   4 117013. 2250.19   4
  -6  -7  -4 118045. 2000.62   2
  -6  -7  -5 818.911 236.606   1
  -6  -7  -5 615.798 201.896   2
   6   7   5 871.963 259.770   4
  -6  -7  -6 18475.3 839.884   1
   6   7   6 17578.0 915.116   4
  -6  -7  -6 19858.9 833.016   2
  -6  -7  -7 20714.2 877.013   1
   6   7   7 22126.9 1040.30   4
  -6  -7  -7 20256.0 841.463   2
  -6  -7  -8 3326.77 382.855   1
   6   7   8 2917.59 420.486   4
  -6  -7  -8 3346.15 369.742   2
  -6  -7  -9 14099.0 719.565   2
  -6  -7  -9 13693.8 690.846   1
   6   7   9 15573.9 899.509   4
  -6  -7 -10 360831. 3659.09   2
   6   7  10 365798. 4361.12   4
  -6  -7 -11 91055.1 1878.71   2
   6   8  -1 579.890 238.400   4
  -6  -8   0 25625.2 1081.66   1
   6   8   0 26503.3 1044.10   4
  -6  -8  -1 31673.5 1224.13   1
   6   8   1 30719.9 1115.68   4
  -6  -8  -2 38137.7 1297.68   1
   6   8   2 35946.0 1221.59   4
  -6  -8  -3 19911.0 932.409   1
   6   8   3 21286.0 958.974   4
  -6  -8  -4 4171.54 441.377   1
   6   8   4 3951.54 442.513   4
  -6  -8  -5 3211.86 396.529   1
   6   8   5 3017.47 415.303   4
  -6  -8  -5 2712.67 344.458   2
   6   8   6 154425. 2677.84   4
  -6  -8  -6 154725. 2251.26   2
  -6  -8  -7 127282. 2181.60   1
   6   8   7 125794. 2459.61   4
  -6  -8  -7 131811. 2087.85   2
  -6  -8  -8 9633.64 611.138   1
   6   8   8 10388.8 733.366   4
  -6  -8  -8 10142.6 604.722   2
  -6  -8  -9 41256.1 1212.28   2
  -6  -8  -9 40637.8 1208.54   1
   6   8   9 42028.1 1461.44   4
  -6  -8 -10 96303.4 1878.28   2
  -6  -8 -10 91752.8 1779.06   1
  -6  -8 -11 63805.8 1574.80   2
   6   9   0 584.405 261.041   4
   6   9   1 2907.49 389.749   4
   6   9   2 836.849 286.300   4
  -6  -9  -3 70004.8 1756.48   1
   6   9   3 67816.2 1724.97   4
  -6  -9  -4 39370.5 1294.93   1
   6   9   4 39909.4 1333.91   4
  -6  -9  -5 14750.1 788.756   1
   6   9   5 14063.4 809.847   4
  -6  -9  -6 6732.25 537.104   1
   6   9   6 6682.88 595.433   4
  -6  -9  -7 16531.7 828.629   1
   6   9   7 16013.0 897.290   4
  -6  -9  -8 28771.5 982.057   2
  -6  -9  -8 29520.0 1073.87   1
   6   9   8 29397.3 1218.36   4
  -6  -9  -9 4637.88 438.109   2
  -6  -9  -9 4985.53 459.336   1
  -6  -9 -10 10917.7 647.571   2
  -6  -9 -10 10743.3 642.927   1
  -6  -9 -11 875.754 255.660   2
  -6 -10  -7 6107.98 534.811   1
  -6 -10  -8 4335.33 454.803   1
  -6 -10  -9 11449.1 698.610   1
   7  -7  -2 10056.4 792.079   1
   7  -7  -1 65258.6 1912.09   1
   7  -7   0 155863. 3095.59   4
   7  -6  -3 47649.9 1691.25   1
   7  -6  -2 5882.86 639.797   1
   7  -6  -1 6798.63 629.329   1
   7  -6   0 97530.8 2235.72   1
   7  -6   0 98494.2 2375.95   4
   7  -6   1 144002. 2961.05   4
   7  -5  -3 43495.4 1603.32   1
   7  -5  -2 39355.1 1493.16   1
  -7   5   2 42924.0 1599.88   2
   7  -5  -1 6802.33 626.932   1
  -7   5   1 6176.53 628.607   2
   7  -5   0 18749.9 978.402   1
   7  -5   0 17523.3 981.955   4
  -7   5   0 20004.5 1072.52   2
   7  -5   1 17749.0 934.165   1
   7  -5   1 21412.0 1122.97   4
  -7   5  -1 20763.4 1090.15   2
   7  -5   2 3260.83 480.990   4
   7  -4  -4 2124.58 441.876   1
   7  -4  -3 4667.65 529.367   1
  -7   4   3 5428.97 622.611   2
   7  -4  -2 17747.2 1003.24   1
  -7   4   2 18417.8 1068.35   2
   7  -4  -1 40600.7 1467.07   1
  -7   4   1 42523.7 1561.08   2
   7  -4   0 31848.3 1275.05   1
   7  -4   0 29931.3 1242.73   4
  -7   4   0 30842.7 1320.12   2
   7  -4   1 89461.0 2193.09   4
  -7   4  -1 85086.6 2156.74   2
   7  -4   2 10861.7 815.549   4
  -7   4  -2 10803.3 766.610   2
  -7   4  -3 1948.55 383.341   2
   7  -4   3 2551.50 436.169   4
   7  -3  -4 26906.4 1272.65   1
   7  -3  -3 15655.5 969.716   1
  -7   3   3 16634.8 1022.74   2
   7  -3  -2 89819.6 2198.20   1
  -7   3   2 89045.8 2283.22   2
   7  -3  -1 4515.77 512.252   1
  -7   3   1 4970.75 575.748   2
   7  -3   0 4600.15 498.767   1
   7  -3   0 4649.62 510.029   4
  -7   3   0 5158.08 565.224   2
   7  -3   1 121164. 2357.68   1
   7  -3   1 124288. 2541.89   4
  -7   3  -1 123641. 2592.65   2
   7  -3   2 65537.1 1699.43   1
   7  -3   2 64952.9 1894.92   4
  -7   3  -2 66108.1 1858.75   2
  -7   3  -3 1167.39 317.604   2
   7  -3   3 1574.67 383.669   4
  -7   3  -4 965.482 282.657   2
   7  -3   4 727.718 308.698   4
   7  -2  -4 16082.0 976.577   1
  -7   2   4 18412.9 1095.12   2
   7  -2  -3 8548.43 697.045   1
  -7   2   3 9246.21 769.597   2
   7  -2  -2 15178.0 903.431   1
  -7   2   2 17274.5 1019.70   2
   7  -2  -1 721.606 284.240   1
  -7   2   1 662.037 310.292   2
   7  -2   0 5006.30 537.595   1
   7  -2   0 3957.77 457.751   4
  -7   2   0 3566.31 472.949   2
   7  -2   1 14236.0 829.976   1
   7  -2   1 13626.3 853.538   4
  -7   2  -1 14069.3 888.220   2
   7  -2   2 55957.2 1731.63   4
  -7   2  -2 54596.7 1662.48   2
   7  -2   2 52304.9 1517.10   1
   7  -2   3 27887.9 1082.18   1
   7  -2   3 27909.6 1264.71   4
  -7   2  -3 27929.4 1204.97   2
   7  -2   4 36151.9 1474.99   4
  -7   2  -4 35978.0 1328.66   2
   7  -2   5 2953.43 482.446   4
  -7   1   4 48276.6 1713.78   2
   7  -1  -3 9072.10 754.186   1
  -7   1   3 9061.57 768.928   2
   7  -1  -2 71551.4 1950.49   1
  -7   1   2 74497.9 2049.53   2
   7  -1  -1 12497.7 830.408   1
  -7   1   1 12187.5 834.159   2
   7  -1   0 99870.0 2131.62   4
   7  -1   0 103471. 2228.04   1
  -7   1   0 102399. 2295.55   2
   7  -1   1 18632.2 956.591   4
  -7   1  -1 20170.8 1040.14   2
   7  -1   1 19346.3 950.085   1
  -7   1  -2 1410.73 332.251   2
   7  -1   2 1076.92 298.865   1
   7  -1   2 425.291 276.847   4
   7  -1   3 5837.66 528.408   1
   7  -1   3 7164.68 658.950   4
  -7   1  -3 5287.22 554.754   2
   7  -1   4 11706.4 838.592   4
  -7   1  -4 11500.3 768.762   2
  -7   1  -5 445.860 251.454   2
   7  -1   5 526.700 274.375   4
  -7   0   4 166819. 3150.68   2
  -7   0   3 391726. 4710.16   2
   7   0  -3 387848. 4639.05   1
  -7   0   2 28673.2 1262.91   2
   7   0  -2 31231.5 1286.25   1
  -7   0   1 24757.4 1146.91   2
   7   0  -1 24532.6 1120.87   1
   7   0   0 72000.9 1863.93   1
   7   0   0 67926.8 1724.17   4
  -7   0   0 69433.8 1884.62   2
   7   0   1 24326.7 1072.48   1
   7   0   1 25194.7 1087.88   4
  -7   0  -1 24925.5 1146.32   2
  -7   0  -2 205.848 214.083   2
   7   0   2 106.161 194.589   1
   7   0   2-326.465 239.244   4
  -7   0  -3 1283.07 308.471   2
   7   0   3 915.702 264.982   1
   7   0   3 715.879 281.895   4
  -7   0  -4 1617.93 352.405   2
   7   0   4 1337.54 309.236   1
   7   0   4 1162.63 311.466   4
   7   0   5 69847.0 2048.17   4
  -7   0  -5 76870.9 1901.34   2
   7   0   6 52411.7 1804.59   4
  -7   0  -6 55610.3 1630.84   2
  -7  -1   4 13468.9 906.170   2
  -7  -1   3 28382.4 1269.34   2
   7   1  -2 491.435 303.534   1
  -7  -1   2 534.710 318.919   2
   7   1  -1 126256. 2577.99   1
  -7  -1   1 118130. 2480.23   2
   7   1   0 13797.5 920.831   1
   7   1   0 14065.1 840.629   4
   7   1   1 3185.31 424.623   1
   7   1   1 3186.89 422.998   4
  -7  -1  -1 2974.29 450.844   2
   7   1   2 6480.27 575.518   4
  -7  -1  -2 6334.50 596.099   2
   7   1   2 6976.00 574.473   1
   7   1   3 23616.5 1010.60   1
   7   1   3 21713.0 1072.82   4
  -7  -1  -3 21682.5 1029.97   2
   7   1   4 18443.9 1032.32   4
   7   1   4 17466.7 856.119   1
  -7  -1  -4 17630.7 921.429   2
  -7  -1  -5 44593.3 1316.98   1
   7   1   5 46827.3 1635.07   4
  -7  -1  -5 45980.0 1471.76   2
   7   1   6 137315. 2842.80   4
  -7  -1  -6 141689. 2589.00   2
  -7  -2   3 12326.5 856.342   2
   7   2  -2 112050. 2461.89   1
  -7  -2   2 108235. 2383.69   2
   7   2  -1 4870.25 607.394   1
  -7  -2   1 5378.36 632.138   2
   7   2   0 62320.6 1707.79   4
   7   2   0 62800.0 1822.26   1
   7   2   1 87293.7 2053.29   1
   7   2   1 85230.7 1961.89   4
  -7  -2  -1 84368.3 2042.33   2
   7   2   2 41208.6 1376.76   1
   7   2   2 38560.2 1359.96   4
  -7  -2  -2 41852.4 1419.19   2
  -7  -2  -3 2447.84 384.282   2
   7   2   3 1962.52 366.760   4
   7   2   3 2185.67 353.293   1
  -7  -2  -4 1198.10 314.864   2
  -7  -2  -4 1072.22 290.775   1
   7   2   4 1347.02 330.072   4
  -7  -2  -5 133859. 2277.54   1
  -7  -2  -5 137662. 2509.99   2
   7   2   6 120778. 2679.64   4
  -7  -2  -6 118609. 2334.97   2
  -7  -3   3 34915.1 1385.87   2
  -7  -3   2 52748.5 1656.62   2
   7   3  -1 22264.5 1106.66   1
  -7  -3   1 19566.4 1005.61   2
   7   3   0 3171.88 481.577   1
  -7  -3   0 2807.31 459.848   2
   7   3   1 62335.1 1677.14   4
   7   3   1 57599.1 1662.23   1
   7   3   2 124500. 2397.66   4
  -7  -3  -2 123234. 2392.86   2
  -7  -3  -3 101057. 2092.91   1
   7   3   3 98073.9 2207.39   4
  -7  -3  -3 103735. 2176.30   2
  -7  -3  -4 343.405 224.807   2
   7   3   4 377.513 250.041   4
  -7  -3  -4 358.169 233.587   1
  -7  -3  -5 25915.5 1026.92   1
   7   3   5 24292.7 1154.36   4
  -7  -3  -5 24471.5 1064.29   2
  -7  -3  -6 63556.6 1562.72   1
   7   3   6 60531.6 1853.19   4
  -7  -3  -6 65249.5 1718.85   2
  -7  -3  -7 107173. 2197.37   2
  -7  -4   2 7521.22 650.153   2
  -7  -4   1 22991.6 1080.14   2
  -7  -4   0 623.063 239.272   2
  -7  -4   0 937.466 289.752   1
   7   4   0 1079.90 287.925   4
  -7  -4  -1 232.966 222.478   2
  -7  -4  -1 365.582 269.911   1
   7   4   1 82.7803 213.880   4
  -7  -4  -2 26528.6 1118.17   1
   7   4   2 28292.7 1158.42   4
  -7  -4  -2 25071.7 1085.50   2
  -7  -4  -3 80380.4 1885.39   1
   7   4   3 79128.4 1951.54   4
  -7  -4  -3 79818.9 1918.74   2
  -7  -4  -4 93786.1 2002.92   1
   7   4   4 96464.2 2207.24   4
  -7  -4  -4 95174.7 2046.80   2
  -7  -4  -5 1387.71 329.119   2
   7   4   5 1379.85 344.884   4
  -7  -4  -5 1172.22 284.667   1
  -7  -4  -6 174.992 221.618   2
   7   4   6 693.059 298.612   4
  -7  -4  -6 103.850 204.417   1
  -7  -4  -7 5159.76 519.978   2
   7   5   0 15712.1 830.865   4
  -7  -5   0 15346.3 879.525   2
   7   5   1 27366.9 1148.21   4
  -7  -5  -1 26558.3 1126.15   2
  -7  -5  -2 808.097 285.327   2
  -7  -5  -2 1086.79 292.019   1
   7   5   2 1421.40 330.793   4
  -7  -5  -3 4355.63 490.733   1
   7   5   3 3736.98 466.666   4
  -7  -5  -3 3580.35 434.762   2
  -7  -5  -4 56622.6 1576.00   1
   7   5   4 57471.9 1703.04   4
  -7  -5  -4 56992.3 1573.81   2
  -7  -5  -5 42211.5 1354.37   1
   7   5   5 45010.0 1546.58   4
  -7  -5  -5 43477.3 1392.34   2
  -7  -5  -6 14277.0 782.060   1
   7   5   6 14202.9 890.696   4
  -7  -5  -6 14546.2 806.598   2
  -7  -5  -7 85318.3 1840.32   1
  -7  -5  -7 86477.2 1937.25   2
   7   6   0 2897.18 387.454   4
   7   6   1 20752.8 968.682   4
  -7  -6  -2 945.505 291.316   2
   7   6   2 1249.48 298.171   4
   7   6   3 54253.0 1632.02   4
  -7  -6  -3 46789.2 1420.21   2
  -7  -6  -4 18039.6 914.988   1
   7   6   4 16593.4 931.207   4
  -7  -6  -4 14873.8 803.842   2
  -7  -6  -5 8933.84 645.166   1
  -7  -6  -5 8350.18 628.912   2
  -7  -6  -6 48940.1 1449.59   1
  -7  -6  -6 49749.1 1449.70   2
  -7  -6  -7 11325.2 699.833   1
  -7  -6  -7 11858.8 730.209   2
  -7  -7  -5 171268. 2644.24   2
  -7  -7  -6 11823.9 715.681   2
   0   0   0    0.00    0.00   0

TITL 160711_32bTT_carb in P-1
REM P-1 (#2 in standard setting)
CELL 0.71073   5.484128  12.210537  12.488939  63.4073  84.9396  89.6913
ZERR    3.00   0.000115   0.000307   0.000276   0.0023   0.0018   0.0019
LATT  1
SFAC C H N O
UNIT 33.00 30.00 3.00 3.00
TREF
HKLF 4
END
;
_shelx_hkl_checksum              92190
loop_
_space_group_symop_operation_xyz
'x, y, z'
'-x, -y, -z'
loop_
_atom_site_label
_atom_site_type_symbol
_atom_site_fract_x
_atom_site_fract_y
_atom_site_fract_z
_atom_site_U_iso_or_equiv
_atom_site_adp_type
_atom_site_occupancy
_atom_site_site_symmetry_order
_atom_site_calc_flag
_atom_site_refinement_flags_posn
_atom_site_refinement_flags_adp
S1 S -0.24233(6) 0.24097(3) 0.72351(3) 0.01976(12) Uani 1 1 d . .
S2 S 0.33971(5) 0.41384(3) 0.46437(3) 0.01553(12) Uani 1 1 d . .
O1 O 0.37777(17) 0.43389(8) 0.21599(8) 0.0201(2) Uani 1 1 d . .
O2 O 0.43186(16) 0.14506(8) 0.40833(8) 0.0188(2) Uani 1 1 d . .
O3 O 0.2677(2) -0.03048(9) 0.42853(11) 0.0334(3) Uani 1 1 d . .
H3 H 0.3721 -0.0603 0.4784 0.050 Uiso 1 1 calc R U
C1 C -0.0466(2) 0.30482(13) 0.78358(12) 0.0210(3) Uani 1 1 d . .
H1 H -0.0761 0.2979 0.8625 0.025 Uiso 1 1 calc R U
C2 C 0.1536(2) 0.36579(12) 0.70744(11) 0.0192(3) Uani 1 1 d . .
H2 H 0.2784 0.4065 0.7259 0.023 Uiso 1 1 calc R U
C3 C 0.1498(2) 0.35991(11) 0.59621(11) 0.0153(2) Uani 1 1 d . .
C4 C -0.0543(2) 0.29584(11) 0.59053(11) 0.0150(2) Uani 1 1 d . .
C5 C -0.0593(2) 0.29094(10) 0.47942(11) 0.0148(2) Uani 1 1 d . .
H5 H -0.1864 0.2521 0.4602 0.018 Uiso 1 1 calc R U
C6 C 0.1447(2) 0.34993(10) 0.40353(11) 0.0135(2) Uani 1 1 d . .
C7 C 0.2166(2) 0.36109(10) 0.28343(10) 0.0144(2) Uani 1 1 d . .
C8 C 0.0749(2) 0.28107(10) 0.24479(10) 0.0142(2) Uani 1 1 d . .
C9 C -0.0878(2) 0.33564(11) 0.16027(11) 0.0162(2) Uani 1 1 d . .
H9 H -0.1034 0.4219 0.1263 0.019 Uiso 1 1 calc R U
C10 C -0.2335(2) 0.26610(11) 0.12237(11) 0.0163(2) Uani 1 1 d . .
C11 C -0.4073(2) 0.32098(13) 0.03709(11) 0.0207(3) Uani 1 1 d . .
H11 H -0.4259 0.4071 0.0022 0.025 Uiso 1 1 calc R U
C12 C -0.5480(2) 0.25004(14) 0.00505(12) 0.0241(3) Uani 1 1 d . .
H12 H -0.6634 0.2878 -0.0520 0.029 Uiso 1 1 calc R U
C13 C -0.5245(3) 0.12210(14) 0.05512(13) 0.0254(3) Uani 1 1 d . .
H13 H -0.6253 0.0743 0.0326 0.031 Uiso 1 1 calc R U
C14 C -0.3561(2) 0.06627(13) 0.13657(13) 0.0229(3) Uani 1 1 d . .
H14 H -0.3385 -0.0198 0.1689 0.027 Uiso 1 1 calc R U
C15 C -0.2084(2) 0.13691(12) 0.17256(11) 0.0171(3) Uani 1 1 d . .
C16 C -0.0383(2) 0.08253(11) 0.25845(11) 0.0178(3) Uani 1 1 d . .
H16 H -0.0185 -0.0034 0.2918 0.021 Uiso 1 1 calc R U
C17 C 0.0995(2) 0.15132(11) 0.29488(11) 0.0153(2) Uani 1 1 d . .
C18 C 0.2814(2) 0.08949(10) 0.38241(11) 0.0160(3) Uani 1 1 d . .
loop_
_atom_site_aniso_label
_atom_site_aniso_U_11
_atom_site_aniso_U_22
_atom_site_aniso_U_33
_atom_site_aniso_U_23
_atom_site_aniso_U_13
_atom_site_aniso_U_12
S1 0.01666(18) 0.0243(2) 0.01675(19) -0.00868(14) 0.00370(12) -0.00424(12)
S2 0.01220(18) 0.02058(19) 0.01562(18) -0.00998(14) 0.00039(11) -0.00372(12)
O1 0.0231(5) 0.0172(4) 0.0177(4) -0.0069(4) 0.0035(3) -0.0045(3)
O2 0.0194(4) 0.0144(4) 0.0227(5) -0.0075(4) -0.0076(4) 0.0017(3)
O3 0.0429(6) 0.0122(5) 0.0420(6) -0.0050(4) -0.0294(5) 0.0018(4)
C1 0.0198(6) 0.0285(7) 0.0164(6) -0.0116(5) -0.0022(5) 0.0026(5)
C2 0.0163(6) 0.0266(6) 0.0175(6) -0.0123(5) -0.0029(5) 0.0009(5)
C3 0.0123(5) 0.0179(6) 0.0154(5) -0.0074(5) -0.0003(4) 0.0007(4)
C4 0.0128(5) 0.0152(5) 0.0158(6) -0.0063(5) 0.0006(4) -0.0005(4)
C5 0.0144(5) 0.0139(5) 0.0168(6) -0.0077(5) -0.0011(4) -0.0010(4)
C6 0.0141(5) 0.0125(5) 0.0153(5) -0.0071(4) -0.0034(4) 0.0011(4)
C7 0.0164(5) 0.0118(5) 0.0152(5) -0.0059(4) -0.0028(4) 0.0026(4)
C8 0.0168(5) 0.0144(5) 0.0127(5) -0.0074(4) -0.0002(4) 0.0005(4)
C9 0.0195(6) 0.0151(5) 0.0135(5) -0.0061(4) -0.0011(4) 0.0031(4)
C10 0.0165(6) 0.0213(6) 0.0127(5) -0.0091(5) -0.0013(4) 0.0035(4)
C11 0.0204(6) 0.0276(6) 0.0148(6) -0.0100(5) -0.0031(5) 0.0071(5)
C12 0.0183(6) 0.0410(8) 0.0174(6) -0.0165(6) -0.0056(5) 0.0067(5)
C13 0.0200(6) 0.0395(8) 0.0255(7) -0.0221(6) -0.0037(5) -0.0011(5)
C14 0.0216(6) 0.0265(6) 0.0259(7) -0.0161(6) -0.0039(5) -0.0005(5)
C15 0.0170(6) 0.0209(6) 0.0168(6) -0.0114(5) -0.0020(4) 0.0009(4)
C16 0.0208(6) 0.0147(5) 0.0193(6) -0.0086(5) -0.0038(5) 0.0015(4)
C17 0.0171(6) 0.0143(5) 0.0141(5) -0.0059(4) -0.0026(4) 0.0011(4)
C18 0.0191(6) 0.0121(5) 0.0159(6) -0.0054(5) -0.0027(5) 0.0017(4)
loop_
_atom_type_symbol
_atom_type_description
_atom_type_scat_dispersion_real
_atom_type_scat_dispersion_imag
_atom_type_scat_source
C C 0.0033 0.0016 'International Tables Vol C Tables 4.2.6.8 and 6.1.1.4'
H H 0.0000 0.0000 'International Tables Vol C Tables 4.2.6.8 and 6.1.1.4'
O O 0.0106 0.0060 'International Tables Vol C Tables 4.2.6.8 and 6.1.1.4'
S S 0.1246 0.1234 'International Tables Vol C Tables 4.2.6.8 and 6.1.1.4'
loop_
_geom_angle_atom_site_label_1
_geom_angle_atom_site_label_2
_geom_angle_atom_site_label_3
_geom_angle
C4 S1 C1 91.00(6)
C3 S2 C6 90.99(6)
C2 C1 S1 113.91(10)
C1 C2 C3 110.46(11)
C4 C3 C2 113.92(12)
C4 C3 S2 111.02(10)
C2 C3 S2 135.06(10)
C3 C4 C5 113.91(11)
C3 C4 S1 110.71(10)
C5 C4 S1 135.38(9)
C6 C5 C4 110.63(10)
C5 C6 C7 128.26(11)
C5 C6 S2 113.44(9)
C7 C6 S2 118.27(9)
O1 C7 C6 121.86(11)
O1 C7 C8 121.38(10)
C6 C7 C8 116.72(10)
C9 C8 C17 119.11(11)
C9 C8 C7 118.21(10)
C17 C8 C7 122.66(10)
C8 C9 C10 121.53(11)
C9 C10 C11 122.16(11)
C9 C10 C15 119.15(11)
C11 C10 C15 118.68(12)
C12 C11 C10 120.23(12)
C11 C12 C13 121.20(12)
C14 C13 C12 120.10(12)
C13 C14 C15 120.21(13)
C16 C15 C14 121.91(12)
C16 C15 C10 118.53(11)
C14 C15 C10 119.56(12)
C17 C16 C15 121.46(11)
C16 C17 C8 120.22(11)
C16 C17 C18 118.93(11)
C8 C17 C18 120.79(10)
O2 C18 O3 123.00(11)
O2 C18 C17 123.23(10)
O3 C18 C17 113.76(10)
loop_
_geom_bond_atom_site_label_1
_geom_bond_atom_site_label_2
_geom_bond_distance
S1 C4 1.7261(12)
S1 C1 1.7314(14)
S2 C3 1.7216(12)
S2 C6 1.7359(12)
O1 C7 1.2197(15)
O2 C18 1.2231(15)
O3 C18 1.3120(14)
C1 C2 1.3619(19)
C2 C3 1.4248(17)
C3 C4 1.3939(18)
C4 C5 1.4179(16)
C5 C6 1.3707(17)
C6 C7 1.4619(16)
C7 C8 1.5126(15)
C8 C9 1.3729(17)
C8 C17 1.4299(16)
C9 C10 1.4202(17)
C10 C11 1.4231(17)
C10 C15 1.4241(17)
C11 C12 1.3702(19)
C12 C13 1.409(2)
C13 C14 1.3749(19)
C14 C15 1.4217(17)
C15 C16 1.4122(17)
C16 C17 1.3760(17)
C17 C18 1.4849(16)
loop_
_geom_torsion_atom_site_label_1
_geom_torsion_atom_site_label_2
_geom_torsion_atom_site_label_3
_geom_torsion_atom_site_label_4
_geom_torsion
C4 S1 C1 C2 0.14(11)
S1 C1 C2 C3 -0.46(14)
C1 C2 C3 C4 0.65(16)
C1 C2 C3 S2 -179.38(11)
C6 S2 C3 C4 -0.12(10)
C6 S2 C3 C2 179.91(13)
C2 C3 C4 C5 179.46(10)
S2 C3 C4 C5 -0.51(14)
C2 C3 C4 S1 -0.55(14)
S2 C3 C4 S1 179.47(6)
C1 S1 C4 C3 0.24(10)
C1 S1 C4 C5 -179.78(13)
C3 C4 C5 C6 1.07(15)
S1 C4 C5 C6 -178.91(10)
C4 C5 C6 C7 176.82(11)
C4 C5 C6 S2 -1.16(13)
C3 S2 C6 C5 0.75(9)
C3 S2 C6 C7 -177.44(9)
C5 C6 C7 O1 166.45(12)
S2 C6 C7 O1 -15.66(15)
C5 C6 C7 C8 -11.40(17)
S2 C6 C7 C8 166.49(8)
O1 C7 C8 C9 -70.70(15)
C6 C7 C8 C9 107.15(12)
O1 C7 C8 C17 110.92(14)
C6 C7 C8 C17 -71.23(15)
C17 C8 C9 C10 0.57(18)
C7 C8 C9 C10 -177.87(10)
C8 C9 C10 C11 178.40(11)
C8 C9 C10 C15 -0.54(18)
C9 C10 C11 C12 -178.54(12)
C15 C10 C11 C12 0.41(18)
C10 C11 C12 C13 0.0(2)
C11 C12 C13 C14 -0.8(2)
C12 C13 C14 C15 1.3(2)
C13 C14 C15 C16 178.22(13)
C13 C14 C15 C10 -0.90(19)
C9 C10 C15 C16 -0.12(18)
C11 C10 C15 C16 -179.10(11)
C9 C10 C15 C14 179.03(11)
C11 C10 C15 C14 0.05(18)
C14 C15 C16 C17 -178.37(12)
C10 C15 C16 C17 0.76(19)
C15 C16 C17 C8 -0.75(19)
C15 C16 C17 C18 -177.96(11)
C9 C8 C17 C16 0.08(18)
C7 C8 C17 C16 178.44(11)
C9 C8 C17 C18 177.23(11)
C7 C8 C17 C18 -4.40(18)
C16 C17 C18 O2 170.68(12)
C8 C17 C18 O2 -6.51(19)
C16 C17 C18 O3 -8.60(17)
C8 C17 C18 O3 174.21(12)
