#------------------------------------------------------------------------------
#$Date: 2019-10-28 09:22:18 +0200 (Mon, 28 Oct 2019) $
#$Revision: 219796 $
#$URL: file:///home/coder/svn-repositories/cod/cif/4/51/46/4514611.cif $
#------------------------------------------------------------------------------
#
# This file is available in the Crystallography Open Database (COD),
# http://www.crystallography.net/
#
# All data on this site have been placed in the public domain by the
# contributors.
#
data_4514611
loop_
_publ_author_name
'Zhao, Zhi-Yuan'
'Nie, Yi-Xue'
'Tang, Ren-He'
'Yin, Guan-Wu'
'Cao, Jian'
'Xu, Zheng'
'Cui, Yu-Ming'
'Zheng, Zhan-Jiang'
'Xu, Li-Wen'
_publ_section_title
;
 Enantioselective Rhodium-Catalyzed Desymmetric Hydrosilylation of
 Cyclopropenes
;
_journal_issue                   10
_journal_name_full               'ACS Catalysis'
_journal_page_first              9110
_journal_paper_doi               10.1021/acscatal.9b02623
_journal_volume                  9
_journal_year                    2019
_chemical_absolute_configuration unk
_chemical_formula_moiety         'C29 H33 B O4 Si'
_chemical_formula_sum            'C29 H33 B O4 Si'
_chemical_formula_weight         484.45
_space_group_crystal_system      triclinic
_space_group_IT_number           1
_space_group_name_Hall           'P 1'
_space_group_name_H-M_alt        'P 1'
_symmetry_space_group_name_Hall  'P 1'
_symmetry_space_group_name_H-M   'P 1'
_atom_sites_solution_hydrogens   geom
_atom_sites_solution_primary     dual
_audit_creation_date             2019-05-14
_audit_creation_method
;
Olex2 1.2
(compiled 2018.05.29 svn.r3508 for OlexSys, GUI svn.r5506)
;
_cell_angle_alpha                91.385(6)
_cell_angle_beta                 96.470(6)
_cell_angle_gamma                100.453(6)
_cell_formula_units_Z            1
_cell_length_a                   6.264(2)
_cell_length_b                   9.621(4)
_cell_length_c                   11.639(4)
_cell_measurement_reflns_used    1823
_cell_measurement_temperature    150.15
_cell_measurement_theta_max      28.70
_cell_measurement_theta_min      2.721
_cell_volume                     684.7(4)
_computing_cell_refinement       'SAINT v8.37A (Bruker, 2015)'
_computing_data_reduction        'SAINT v8.37A (Bruker, 2015)'
_computing_molecular_graphics    'Olex2 (Dolomanov et al., 2009)'
_computing_publication_material  'Olex2 (Dolomanov et al., 2009)'
_computing_structure_refinement  'ShelXL (Sheldrick, 2015)'
_computing_structure_solution    'XT (Sheldrick, 2015)'
_diffrn_ambient_temperature      150.15
_diffrn_measured_fraction_theta_full 0.960
_diffrn_measured_fraction_theta_max 0.887
_diffrn_measurement_device_type  'Bruker APEX-II CCD'
_diffrn_measurement_method       '\f and \w scans'
_diffrn_radiation_type           MoK\a
_diffrn_radiation_wavelength     0.71073
_diffrn_reflns_av_R_equivalents  0.0293
_diffrn_reflns_av_unetI/netI     0.0685
_diffrn_reflns_Laue_measured_fraction_full 0.960
_diffrn_reflns_Laue_measured_fraction_max 0.887
_diffrn_reflns_limit_h_max       7
_diffrn_reflns_limit_h_min       -8
_diffrn_reflns_limit_k_max       13
_diffrn_reflns_limit_k_min       -13
_diffrn_reflns_limit_l_max       14
_diffrn_reflns_limit_l_min       -15
_diffrn_reflns_number            5206
_diffrn_reflns_point_group_measured_fraction_full 0.688
_diffrn_reflns_point_group_measured_fraction_max 0.611
_diffrn_reflns_theta_full        25.242
_diffrn_reflns_theta_max         29.185
_diffrn_reflns_theta_min         1.763
_diffrn_standards_number         0
_exptl_absorpt_coefficient_mu    0.117
_exptl_absorpt_correction_T_max  1.0000
_exptl_absorpt_correction_T_min  0.4359
_exptl_absorpt_correction_type   multi-scan
_exptl_absorpt_process_details
'SADABS-2016/2 (Bruker,2016/2) was used for absorption correction. wR2(int) was 0.0911 before and 0.0434 after correction. The Ratio of minimum to maximum transmission is 0.4359. The \l/2 correction factor is 0.00150.'
_exptl_crystal_colour            colourless
_exptl_crystal_colour_primary    colourless
_exptl_crystal_density_diffrn    1.175
_exptl_crystal_description       needle
_exptl_crystal_F_000             258
_exptl_crystal_size_max          0.23
_exptl_crystal_size_mid          0.12
_exptl_crystal_size_min          0.12
_refine_diff_density_max         0.426
_refine_diff_density_min         -0.510
_refine_diff_density_rms         0.061
_refine_ls_abs_structure_details
;
 Flack x determined using 884 quotients [(I+)-(I-)]/[(I+)+(I-)]
 (Parsons, Flack and Wagner, Acta Cryst. B69 (2013) 249-259).
;
_refine_ls_abs_structure_Flack   0.00(15)
_refine_ls_extinction_method     none
_refine_ls_goodness_of_fit_ref   1.014
_refine_ls_hydrogen_treatment    constr
_refine_ls_matrix_type           full
_refine_ls_number_parameters     321
_refine_ls_number_reflns         4527
_refine_ls_number_restraints     3
_refine_ls_restrained_S_all      1.013
_refine_ls_R_factor_all          0.0716
_refine_ls_R_factor_gt           0.0564
_refine_ls_shift/su_max          0.000
_refine_ls_shift/su_mean         0.000
_refine_ls_structure_factor_coef Fsqd
_refine_ls_weighting_details
'w=1/[\s^2^(Fo^2^)+(0.0929P)^2^] where P=(Fo^2^+2Fc^2^)/3'
_refine_ls_weighting_scheme      calc
_refine_ls_wR_factor_gt          0.1388
_refine_ls_wR_factor_ref         0.1493
_reflns_Friedel_coverage         0.376
_reflns_Friedel_fraction_full    0.416
_reflns_Friedel_fraction_max     0.334
_reflns_number_gt                3698
_reflns_number_total             4527
_reflns_threshold_expression     'I > 2\s(I)'
_cod_data_source_file            cs9b02623_si_001.cif
_cod_data_source_block           mo190514d
_cod_original_cell_volume        684.6(4)
_cod_database_code               4514611
_shelx_shelxl_version_number     2014/7
_shelx_space_group_comment
;
The symmetry employed for this shelxl refinement is uniquely defined
by the following loop, which should always be used as a source of
symmetry information in preference to the above space-group names.
They are only intended as comments.
;
_shelx_estimated_absorpt_t_max   0.986
_shelx_estimated_absorpt_t_min   0.974
_olex2_refinement_description
;
1. Fixed Uiso
 At 1.2 times of:
  All C(H) groups, All C(H,H) groups, All Si(H) groups
 At 1.5 times of:
  All C(H,H,H) groups
2.a Ternary CH refined with riding coordinates:
 Si1(H1), C1(H1A)
2.b Secondary CH2 refined with riding coordinates:
 C3(H3A,H3B)
2.c Aromatic/amide H refined with riding coordinates:
 C7(H7), C8(H8), C10(H10), C11(H11), C19(H19), C20(H20), C21(H21), C22(H22),
 C23(H23), C25(H25), C26(H26), C27(H27), C28(H28), C29(H29)
2.d Idealised Me refined as rotating group:
 C5(H5A,H5B,H5C), C14(H14A,H14B,H14C), C15(H15A,H15B,H15C), C16(H16A,H16B,
 H16C), C17(H17A,H17B,H17C)
;
_shelx_res_file
;
    mo190514d.res created by SHELXL-2014/7

TITL mo190514d_a.res in P1
REM Old TITL mo_190514d_0m in P1
REM SHELXT solution in P1
REM R1 0.127, Rweak 0.042, Alpha 0.000, Orientation as input
REM Flack x = 0.069 ( 0.136 ) from Parsons' quotients
REM Formula found by SHELXT: C29 B O4 Si
CELL 0.71073 6.2636 9.6208 11.6386 91.385 96.47 100.453
ZERR 1 0.0022 0.0035 0.0041 0.006 0.006 0.006
LATT -1
SFAC C H B O Si
UNIT 29 33 1 4 1

L.S. 20
PLAN  5
SIZE 0.23 0.12 0.12
TEMP -123
BOND $H
list 4
fmap 2 53
ACTA
REM <olex2.extras>
REM <HklSrc "%.\\mo190514d.hkl">
REM </olex2.extras>

WGHT    0.092900
FVAR       1.49569
SI1   5    0.127872    0.645419    0.268449    11.00000    0.02493    0.03589 =
         0.01388    0.01043    0.00227    0.00877
AFIX  13
H1    2   -0.029789    0.654046    0.258142    11.00000   -1.20000
AFIX   0
O1    4   -0.084919    0.676974    0.492957    11.00000    0.02972    0.05057 =
         0.02864    0.00692    0.00196    0.01666
O2    4    0.204611    0.682926    0.627781    11.00000    0.04479    0.04186 =
         0.01865    0.00189   -0.00222    0.01681
O3    4    0.809123    0.247168    0.902773    11.00000    0.03014    0.04087 =
         0.02841    0.01989   -0.00039    0.00174
O4    4    0.515890    0.061362    0.881712    11.00000    0.02782    0.03951 =
         0.02093    0.01116   -0.00382    0.00627
C1    1    0.156620    0.490584    0.362269    11.00000    0.03083    0.02966 =
         0.01000    0.00600    0.00155    0.00503
AFIX  13
H1A   2    0.267543    0.434807    0.340941    11.00000   -1.20000
AFIX   0
C2    1    0.118771    0.486787    0.491635    11.00000    0.02326    0.03679 =
         0.01290    0.00984    0.00338    0.00435
C3    1   -0.048915    0.401712    0.400074    11.00000    0.03135    0.03842 =
         0.01900    0.00963   -0.00208    0.00109
AFIX  23
H3A   2   -0.188851    0.434902    0.381178    11.00000   -1.20000
H3B   2   -0.061088    0.297612    0.396907    11.00000   -1.20000
AFIX   0
C4    1    0.065124    0.621530    0.536532    11.00000    0.02338    0.03947 =
         0.01508    0.01068    0.00759    0.00867
C5    1    0.180187    0.825163    0.665491    11.00000    0.06211    0.04787 =
         0.02633   -0.00398   -0.00129    0.02049
AFIX 137
H5A   2    0.224868    0.892244    0.606793    11.00000   -1.50000
H5B   2    0.272390    0.853467    0.739024    11.00000   -1.50000
H5C   2    0.026982    0.824827    0.675855    11.00000   -1.50000
AFIX   0
C6    1    0.252463    0.406146    0.574303    11.00000    0.02585    0.03500 =
         0.01405    0.00852    0.00432    0.01075
C7    1    0.481210    0.452025    0.604028    11.00000    0.02566    0.03492 =
         0.01501    0.00802    0.00543    0.00536
AFIX  43
H7    2    0.556741    0.530203    0.567452    11.00000   -1.20000
AFIX   0
C8    1    0.594530    0.381731    0.687221    11.00000    0.02583    0.03725 =
         0.01771    0.00495    0.00245    0.00960
AFIX  43
H8    2    0.747072    0.414092    0.707238    11.00000   -1.20000
AFIX   0
C9    1    0.488724    0.263656    0.742597    11.00000    0.02921    0.03255 =
         0.01545    0.00702    0.00274    0.01065
C10   1    0.264173    0.217110    0.709363    11.00000    0.02898    0.03257 =
         0.02048    0.01180    0.00430    0.00404
AFIX  43
H10   2    0.190380    0.135526    0.742583    11.00000   -1.20000
AFIX   0
C11   1    0.145722    0.288808    0.627739    11.00000    0.02523    0.03498 =
         0.01690    0.00780    0.00389    0.00569
AFIX  43
H11   2   -0.007300    0.257378    0.608877    11.00000   -1.20000
AFIX   0
C12   1    0.837158    0.159141    1.004098    11.00000    0.03052    0.04237 =
         0.02447    0.01752   -0.00302    0.00539
C13   1    0.688221    0.015199    0.962192    11.00000    0.02793    0.03978 =
         0.02256    0.01582    0.00003    0.00969
C14   1    0.759529    0.233141    1.104801    11.00000    0.04581    0.04518 =
         0.03005    0.00880   -0.00526    0.00614
AFIX 137
H14A  2    0.840058    0.330767    1.115512    11.00000   -1.50000
H14B  2    0.785920    0.182664    1.175625    11.00000   -1.50000
H14C  2    0.602777    0.233494    1.087909    11.00000   -1.50000
AFIX   0
C15   1    1.081694    0.155895    1.031609    11.00000    0.02852    0.06297 =
         0.04336    0.03193   -0.00013    0.00460
AFIX 137
H15A  2    1.134283    0.115552    0.964422    11.00000   -1.50000
H15B  2    1.103905    0.097665    1.098287    11.00000   -1.50000
H15C  2    1.162992    0.252398    1.049681    11.00000   -1.50000
AFIX   0
C16   1    0.580024   -0.068690    1.056772    11.00000    0.04108    0.04357 =
         0.02943    0.02058    0.00209    0.00308
AFIX 137
H16A  2    0.692441   -0.098872    1.110925    11.00000   -1.50000
H16B  2    0.477807   -0.152091    1.021540    11.00000   -1.50000
H16C  2    0.500432   -0.008906    1.098507    11.00000   -1.50000
AFIX   0
C17   1    0.798881   -0.079144    0.889679    11.00000    0.05617    0.04982 =
         0.03898    0.01610    0.00803    0.02549
AFIX 137
H17A  2    0.688957   -0.157523    0.852272    11.00000   -1.50000
H17B  2    0.909005   -0.116963    0.939909    11.00000   -1.50000
H17C  2    0.869581   -0.023392    0.830398    11.00000   -1.50000
AFIX   0
C18   1    0.291691    0.817947    0.335716    11.00000    0.02711    0.03842 =
         0.01741    0.01195    0.00228    0.00437
C19   1    0.196766    0.940610    0.331855    11.00000    0.03849    0.04590 =
         0.03155    0.01326    0.00371    0.01525
AFIX  43
H19   2    0.052565    0.935197    0.294289    11.00000   -1.20000
AFIX   0
C20   1    0.311118    1.068834    0.382135    11.00000    0.05925    0.04017 =
         0.04130    0.00313    0.01477    0.01486
AFIX  43
H20   2    0.246025    1.150688    0.378256    11.00000   -1.20000
AFIX   0
C21   1    0.522172    1.076895    0.438407    11.00000    0.04689    0.05044 =
         0.03523   -0.00297    0.00987   -0.01051
AFIX  43
H21   2    0.599436    1.164312    0.473883    11.00000   -1.20000
AFIX   0
C22   1    0.619088    0.960236    0.443048    11.00000    0.03070    0.07341 =
         0.04411    0.00248    0.00274    0.00331
AFIX  43
H22   2    0.763229    0.966868    0.481044    11.00000   -1.20000
AFIX   0
C23   1    0.504906    0.831254    0.391595    11.00000    0.02667    0.04956 =
         0.03309    0.00533    0.00190    0.01036
AFIX  43
H23   2    0.573506    0.750866    0.394613    11.00000   -1.20000
AFIX   0
C24   1    0.207171    0.602683    0.122192    11.00000    0.02847    0.02904 =
         0.01508    0.00609   -0.00024    0.00120
C25   1    0.396896    0.549839    0.103438    11.00000    0.02290    0.03805 =
         0.02179    0.00877   -0.00099    0.00667
AFIX  43
H25   2    0.494021    0.532679    0.168069    11.00000   -1.20000
AFIX   0
C26   1    0.444935    0.522139   -0.008765    11.00000    0.03086    0.04056 =
         0.02500    0.00553    0.00531    0.01197
AFIX  43
H26   2    0.572530    0.485378   -0.019531    11.00000   -1.20000
AFIX   0
C27   1    0.304588    0.548712   -0.105081    11.00000    0.04396    0.04141 =
         0.01580    0.00347    0.00656    0.00879
AFIX  43
H27   2    0.338427    0.531590   -0.181089    11.00000   -1.20000
AFIX   0
C28   1    0.116214    0.600054   -0.089174    11.00000    0.03566    0.04550 =
         0.01921    0.00817   -0.00168    0.00808
AFIX  43
H28   2    0.020717    0.617560   -0.154379    11.00000   -1.20000
AFIX   0
C29   1    0.066792    0.626028    0.022495    11.00000    0.02706    0.03646 =
         0.01756    0.00722   -0.00072    0.00690
AFIX  43
H29   2   -0.063579    0.660073    0.032109    11.00000   -1.20000
AFIX   0
B1    3    0.607909    0.187946    0.842964    11.00000    0.02450    0.03579 =
         0.01853    0.00957    0.00509    0.01073
HKLF 4

REM  mo190514d_a.res in P1
REM R1 =  0.0564 for    3698 Fo > 4sig(Fo)  and  0.0716 for all    4527 data
REM    321 parameters refined using      3 restraints

END

WGHT      0.0929      0.0000

REM Highest difference peak  0.426,  deepest hole -0.510,  1-sigma level  0.061
Q1    1   0.1133  0.7207  0.3273  11.00000  0.05    0.43
Q2    1   0.0849  0.5622  0.3123  11.00000  0.05    0.40
Q3    1   0.2103  0.7244  0.3249  11.00000  0.05    0.39
Q4    1   0.2075  0.5606  0.3000  11.00000  0.05    0.32
Q5    1   0.3520  0.4811  0.6191  11.00000  0.05    0.32
;
_shelx_res_checksum              3344
_shelx_hkl_file
;
  -1   0   0 2727.03  114.29
  -1   0   0 2969.50  114.09
  -2   0   0 2257.57   91.19
  -3   0   0 2445.76   99.59
  -4   0   0   58.09    6.40
  -5   0   0  124.69   10.90
  -6   0   0  186.78   14.80
  -8   0   0   13.60    9.20
  -8   1   0    0.50    8.80
  -7   1   0   21.90    9.30
  -6   1   0   47.20    8.30
  -6   1   0   52.19    9.60
  -6   1   0   52.99    7.50
  -5   1   0  102.39    9.10
  -5   1   0   79.89    9.10
  -4   1   0  797.92   35.60
   3  -1   0  332.17   17.20
  -3   1   0  290.37   15.60
   2  -1   0  765.62   33.00
   1  -1   0 8561.14  340.97
   1  -1   0 8212.98  340.97
  -1   1   0 8653.53  340.57
  -1   1   0 8793.62  340.67
   0  -1   0  591.54   23.30
   0   1   0  548.65   23.10
  -1  -1   0 7118.39  265.57
  -1  -1   0 5990.80  264.97
   1   1   0 6883.91  265.07
  -2  -1   0   62.59    5.20
  -3  -1   0  348.27   16.60
  -4  -1   0  562.74   25.90
  -5  -1   0   92.49    9.80
  -6  -1   0  223.98   15.40
  -8   2   0   -1.30   13.00
  -7   2   0    0.90    7.80
  -7   2   0    4.20    7.30
  -6   2   0   46.30    8.40
  -6   2   0   48.60    9.20
  -6   2   0   50.19    7.90
  -5   2   0  178.78   12.40
  -5   2   0  183.48   14.40
  -5   2   0  182.18   13.80
   4  -2   0  189.98   13.60
  -4   2   0  186.88   12.60
  -4   2   0  174.88   11.50
   3  -2   0 1313.67   55.39
  -3   2   0 1250.27   53.99
  -3   2   0 1327.37   54.49
   2  -2   0  978.40   42.00
  -2   2   0  928.01   41.00
  -2   2   0 1063.89   41.40
   1  -2   0  491.75   21.20
  -1   2   0  474.55   20.50
  -1   2   0  477.15   20.40
   0  -2   0 1834.92   71.89
   0   2   0 1724.43   71.49
  -1  -2   0 5833.22  231.58
   1   2   0 5767.62  230.88
  -2  -2   0  265.47   12.50
   2   2   0  251.87   11.30
  -3  -2   0  175.08   10.00
  -4  -2   0  370.16   18.20
  -5  -2   0  123.69   10.20
  -7   3   0   15.00    6.60
  -7   3   0   15.10    7.60
  -7   3   0   19.60    8.60
  -6   3   0    5.50    5.90
  -6   3   0   -1.50    6.40
  -6   3   0    2.70    6.30
   5  -3   0   28.40    8.50
  -5   3   0   21.80    6.50
  -5   3   0   29.20    7.00
   4  -3   0  741.63   34.00
  -4   3   0  719.33   32.10
  -4   3   0  691.93   32.50
   3  -3   0  817.52   37.20
  -3   3   0  870.21   36.00
  -3   3   0  799.62   35.70
   2  -3   0   48.80    5.90
  -2   3   0   49.99    5.30
  -2   3   0   54.19    5.00
   1  -3   0  746.23   30.40
  -1   3   0  667.73   29.50
   0  -3   0 1372.96   54.79
   0   3   0 1300.07   54.09
  -1  -3   0 1306.57   52.79
   1   3   0 1256.07   51.69
  -2  -3   0 1363.96   59.89
   2   3   0 1527.45   58.49
  -3  -3   0  313.87   15.90
   3   3   0  328.27   14.20
  -4  -3   0   15.70    4.60
  -5  -3   0  170.38   11.90
  -7   4   0  -11.90    9.50
  -7   4   0   10.30    7.40
  -7   4   0    1.40    5.90
   6  -4   0  347.47   22.10
  -6   4   0  304.37   20.60
  -6   4   0  296.57   18.00
  -6   4   0  279.47   19.10
   5  -4   0  157.48   15.00
  -5   4   0  162.08   12.80
  -5   4   0  153.68   12.60
   4  -4   0  437.56   24.00
  -4   4   0  430.26   21.70
  -4   4   0  468.55   22.00
   3  -4   0  144.99   11.40
  -3   4   0  135.99    9.40
  -3   4   0  161.88    9.70
   2  -4   0 1159.38   48.30
  -2   4   0 1085.09   46.60
   1  -4   0  212.38   11.70
  -1   4   0  217.78   10.60
   0  -4   0  311.17   15.40
   0   4   0  335.47   14.40
  -1  -4   0 3159.98  131.19
   1   4   0 3325.57  129.89
  -2  -4   0   26.70    5.00
   2   4   0   29.10    3.10
  -3  -4   0   97.39    8.90
  -4  -4   0   21.50    5.40
  -5  -4   0   68.69    7.80
  -8   5   0   57.79    9.00
  -7   5   0    5.50    9.20
  -7   5   0   23.80    7.40
   6  -5   0  205.98   18.30
  -6   5   0  210.28   15.00
  -6   5   0  179.28   14.80
   5  -5   0  857.91   43.50
  -5   5   0  943.21   40.90
  -5   5   0  910.21   40.80
   4  -5   0   -1.30    6.70
  -4   5   0    6.50    5.00
  -4   5   0   -0.50    4.50
   3  -5   0  781.92   36.10
  -3   5   0  771.32   33.80
   2  -5   0   19.00    4.80
  -2   5   0   16.80    3.40
   1  -5   0  326.87   16.60
  -1   5   0  319.27   14.90
   0  -5   0  985.70   42.80
   0   5   0 1015.00   41.40
  -1  -5   0   99.19    7.80
   1   5   0   88.99    5.70
  -2  -5   0  287.67   16.10
   2   5   0  312.77   13.60
  -3  -5   0  343.57   18.90
  -4  -5   0  143.99   12.10
  -8   6   0  -14.10    8.30
  -8   6   0    1.10    7.20
   7  -6   0   44.00   11.80
  -7   6   0   14.10    7.20
   6  -6   0   40.40   10.80
  -6   6   0   34.50    8.20
   5  -6   0  120.29   14.20
  -5   6   0   94.89   10.30
  -5   6   0  112.59   10.90
   4  -6   0  730.53   36.50
  -4   6   0  731.13   33.10
   3  -6   0  349.96   20.80
  -3   6   0  386.46   18.20
   2  -6   0  522.05   27.50
  -2   6   0  640.84   26.00
   1  -6   0  716.13   33.00
  -1   6   0  740.23   31.10
   0  -6   0   37.50    5.70
   0   6   0   32.20    3.80
  -1  -6   0  526.35   24.40
   1   6   0  495.35   21.90
  -2  -6   0  351.06   19.30
   2   6   0  359.06   15.90
  -3  -6   0  274.87   17.40
  -4  -6   0  115.99   11.60
   7  -7   0    9.30    9.90
  -7   7   0   10.30    8.10
   6  -7   0   55.89   12.10
  -6   7   0   58.39    9.70
   5  -7   0  137.59   15.50
  -5   7   0  125.59   11.80
   4  -7   0  138.29   14.90
  -4   7   0  157.48   11.60
   3  -7   0  296.87   19.50
  -3   7   0  318.57   16.10
   2  -7   0  343.07   19.80
  -2   7   0  372.26   17.20
   1  -7   0  105.79   10.10
  -1   7   0  115.29    7.40
   0  -7   0  401.76   21.40
   0   7   0  434.66   19.00
  -1  -7   0    6.10    5.60
   1   7   0    4.60    3.00
  -2  -7   0  142.39   13.10
   2   7   0  154.88    8.60
  -3  -7   0   15.10    7.00
  -4  -7   0   77.09   14.80
   7  -8   0   36.50   13.10
  -7   8   0   40.20    9.50
   6  -8   0   54.49   12.80
  -6   8   0   42.20    9.20
   5  -8   0   25.00   10.30
  -5   8   0   20.50    6.90
   4  -8   0  127.99   14.90
  -4   8   0  132.49   11.00
   3  -8   0  232.78   17.90
  -3   8   0  241.68   13.50
   2  -8   0   35.00    8.10
  -2   8   0   42.00    5.20
   1  -8   0  178.68   13.50
  -1   8   0  167.08    9.70
   0  -8   0   85.19   10.10
   0   8   0   71.79    6.30
  -1  -8   0  138.59   12.80
   1   8   0  109.39    7.70
  -2  -8   0  100.79   11.40
  -3  -8   0  132.69   13.80
   7  -9   0    6.50   12.00
   6  -9   0   -1.50   10.30
  -6   9   0    6.60    7.80
   5  -9   0    6.50    9.70
  -5   9   0    8.50    6.60
   4  -9   0   83.49   12.80
  -4   9   0   87.69    8.80
   3  -9   0   50.39   10.50
  -3   9   0   58.39    6.70
   2  -9   0   65.19   10.20
  -2   9   0   72.49    7.10
   1  -9   0   57.19    9.30
  -1   9   0   64.39    6.40
   0  -9   0  138.19   14.00
   0   9   0  121.29    8.30
  -1  -9   0   42.00    9.00
  -2  -9   0  171.18   16.90
  -3  -9   0   33.70    9.80
   6 -10   0   17.70   11.70
  -6  10   0   16.30    8.00
   5 -10   0   44.90   12.20
  -5  10   0   42.80    8.00
   4 -10   0   58.79   12.00
  -4  10   0   85.39    8.50
   3 -10   0  147.99   16.70
  -3  10   0  174.08   11.10
   2 -10   0   54.49   10.20
  -2  10   0   48.90    5.70
   1 -10   0   27.90    8.80
  -1  10   0   15.20    4.30
   0 -10   0   18.60    8.80
   0  10   0   19.30    4.50
  -1 -10   0   13.80    9.30
  -2 -10   0    9.40    8.80
   5 -11   0   65.89   13.60
  -5  11   0   78.69    9.40
   4 -11   0  142.39   16.70
  -4  11   0  157.18   11.60
   3 -11   0   58.89   12.30
  -3  11   0   52.69    6.50
   2 -11   0  120.89   14.80
  -2  11   0  117.59    8.70
   1 -11   0    2.70    8.10
  -1  11   0    3.20    4.00
   0 -11   0   14.30    9.10
  -1 -11   0   32.60   10.80
  -2 -11   0   16.70   10.80
   4 -12   0   13.90   10.80
  -4  12   0   12.40    5.30
   3 -12   0   36.10   11.30
  -3  12   0   36.60    5.70
   2 -12   0    0.80    9.40
  -2  12   0   15.70    4.80
   1 -12   0    9.80    9.50
   0 -12   0   23.90   10.30
  -1 -12   0   56.59   13.60
  -2  13   0    3.30    4.50
   1 -13   0   38.50   12.50
   1 -13   1   15.80   11.80
  -2  13  -1   37.00    6.10
   2 -13   1   25.20   20.30
  -1 -12   1   20.50   11.40
   0 -12   1   30.40   12.60
  -1  12  -1   36.80    5.90
   1 -12   1   58.69   12.40
  -2  12  -1   -1.20    4.30
   2 -12   1    4.10    9.90
  -3  12  -1    1.00    4.50
   3 -12   1   17.70   10.60
  -4  12  -1   10.10    5.50
   4 -12   1   23.80   11.70
  -1 -11   1  107.09   15.10
   0  11  -1   41.00    6.50
   0 -11   1   51.39   11.80
  -1  11  -1   56.49    6.30
   1 -11   1   49.70   11.70
  -2  11  -1   -4.20    3.90
   2 -11   1    3.50    9.20
  -3  11  -1   45.80    6.40
   3 -11   1   45.20   11.30
  -4  11  -1   32.10    6.50
   4 -11   1   40.10   11.70
  -5  11  -1   17.10    6.90
   5 -11   1   19.70   11.50
  -2 -10   1   39.10   11.10
  -1 -10   1   48.60   11.10
   0  10  -1  101.09    8.50
   0 -10   1  108.19   13.30
  -1  10  -1   21.50    4.80
   1 -10   1   28.60    9.30
  -2  10  -1  232.78   13.00
   2 -10   1  232.48   19.30
  -3  10  -1    6.20    4.50
   3 -10   1   -1.10    8.70
  -4  10  -1   36.80    6.70
   4 -10   1   54.79   11.80
  -5  10  -1   23.30    7.20
   5 -10   1    2.10   10.30
  -6  10  -1   20.40    8.40
   6 -10   1   31.60   13.00
  -2  -9   1   88.99   12.10
   1   9  -1   17.30    4.40
  -1  -9   1   22.90    8.70
   0   9  -1   29.40    4.90
   0  -9   1   36.90    8.60
  -1   9  -1   20.60    4.70
   1  -9   1   18.60    8.10
  -2   9  -1  121.49    9.00
   2  -9   1  125.39   14.50
  -3   9  -1   81.99    8.30
   3  -9   1   99.89   13.10
  -4   9  -1   81.79    8.60
   4  -9   1   69.59   12.90
  -5   9  -1   22.60    7.60
   5  -9   1   24.00   10.80
  -6   9  -1   -0.30    7.60
   6  -9   1   -1.10    9.90
  -3  -8   1   51.69    9.50
  -2  -8   1   44.50    9.00
   1   8  -1  233.38   12.30
  -1  -8   1  225.68   16.70
   0   8  -1   52.69    5.80
   0  -8   1   57.89    9.10
  -1   8  -1  271.67   13.50
   1  -8   1  240.88   17.10
  -2   8  -1  129.39    8.80
   2  -8   1  131.89   13.70
  -3   8  -1    3.50    4.40
   3  -8   1   22.00    8.50
  -4   8  -1   73.89    8.70
   4  -8   1  112.89   14.40
  -5   8  -1    9.40    6.70
   5  -8   1   30.00   11.00
  -6   8  -1   14.40    7.90
   6  -8   1   24.50   11.20
  -7   8  -1    3.30    7.80
   7  -8   1    0.40   10.50
  -3  -7   1   57.59    8.70
   2   7  -1  601.14   26.10
  -2  -7   1  604.94   30.10
   1   7  -1  375.16   17.40
  -1  -7   1  375.66   20.70
   0   7  -1  513.05   22.00
   0  -7   1  452.45   24.40
  -1   7  -1  343.67   16.00
   1  -7   1  317.17   18.70
  -2   7  -1  100.09    7.90
   2  -7   1  113.99   11.60
  -3   7  -1   89.59    8.80
   3  -7   1  110.99   12.40
  -4   7  -1  233.48   14.20
   4  -7   1  225.18   19.00
  -5   7  -1  125.49   11.90
   5  -7   1  139.99   16.10
  -6   7  -1    5.10    6.50
   6  -7   1    2.40    9.30
  -7   7  -1   -2.70    6.90
   7  -7   1    7.80   10.80
  -3  -6   1  244.88   16.30
   2   6  -1  372.06   16.90
  -2  -6   1  373.16   19.70
   1   6  -1  369.76   17.00
  -1  -6   1  377.06   19.30
   0   6  -1  602.54   25.60
   0  -6   1  564.34   27.20
  -1   6  -1   48.70    4.80
   1  -6   1   44.20    6.50
  -2   6  -1  308.57   15.30
   2  -6   1  305.37   17.80
  -3   6  -1  225.78   12.30
   3  -6   1  196.18   15.50
  -4   6  -1   24.70    6.20
   4  -6   1   24.90    9.00
  -5   6  -1   -8.20    5.80
   5  -6   1    4.90    8.50
  -6   6  -1   69.79    9.70
   6  -6   1   69.39   12.50
  -7   6  -1   31.00    8.00
  -7   6  -1   28.70   11.10
   7  -6   1   29.10   11.50
  -8   6  -1    8.30    9.50
  -8   6  -1    5.80    7.00
  -4  -5   1  325.37   18.40
   3   5  -1  256.47   12.20
  -3  -5   1  218.48   14.60
   2   5  -1  497.95   21.20
  -2  -5   1  479.95   23.20
   1   5  -1 1343.47   54.89
  -1  -5   1 1336.77   56.29
   0   5  -1  413.36   18.80
   0  -5   1  430.26   20.20
  -1   5  -1  121.19    7.50
   1  -5   1  116.69    9.10
  -2   5  -1  491.85   21.70
   2  -5   1  466.85   23.90
  -3   5  -1   34.80    5.20
   3  -5   1   32.40    7.30
  -4   5  -1  279.77   15.30
  -4   5  -1  341.77   16.90
   4  -5   1  302.47   19.80
  -5   5  -1  520.05   25.00
  -5   5  -1  507.15   25.50
   5  -5   1  504.55   29.00
  -6   5  -1   26.60    7.40
   6  -5   1   28.20   10.20
  -7   5  -1   62.99   11.40
  -7   5  -1   25.10    7.80
  -8   5  -1   15.10    9.20
   4   4  -1  750.72   30.90
  -4  -4   1  692.03   32.60
   3   4  -1  422.16   18.60
  -3  -4   1  420.66   20.50
   2   4  -1  667.33   27.00
  -2  -4   1  604.94   28.20
   1   4  -1 2177.08   85.79
  -1  -4   1 2071.79   86.59
   0   4  -1  941.61   40.20
   0  -4   1 1000.90   41.20
  -1   4  -1  310.97   15.10
   1  -4   1  351.76   16.70
  -2   4  -1 1573.34   63.09
   2  -4   1 1485.05   64.49
  -3   4  -1  205.98   11.20
  -3   4  -1  187.58   10.50
   3  -4   1  191.18   13.70
  -4   4  -1   -2.10    4.20
  -4   4  -1    9.50    4.90
   4  -4   1    1.70    6.30
  -5   4  -1  602.84   28.90
  -5   4  -1  590.74   28.80
   5  -4   1  628.34   32.40
  -6   4  -1   89.69   10.30
  -6   4  -1  113.09   10.30
  -6   4  -1   88.49   11.90
  -7   4  -1   56.69    8.60
  -7   4  -1   65.39   11.40
  -8   4  -1    5.40    9.60
  -4  -3   1  255.87   13.60
   3   3  -1   88.39    5.90
  -3  -3   1   83.99    6.80
   2   3  -1   96.99    6.70
  -2  -3   1  125.39    8.00
   1   3  -1   32.90    3.20
  -1  -3   1   33.50    3.70
   0   3  -1 3129.59  131.09
   0  -3   1 3410.06  131.69
  -1   3  -1  253.07   11.90
   1  -3   1  247.68   12.90
  -2   3  -1  292.87   13.90
  -2   3  -1  291.17   13.30
   2  -3   1  286.87   15.50
  -3   3  -1   34.50    4.80
  -3   3  -1   33.30    4.80
   3  -3   1   25.20    6.40
  -4   3  -1   82.69    8.80
  -4   3  -1   81.99    7.90
   4  -3   1   89.59   10.30
  -5   3  -1   74.89   10.10
  -5   3  -1   71.89    8.40
  -5   3  -1   73.59    8.20
  -6   3  -1  567.54   27.40
  -6   3  -1  614.74   30.80
  -6   3  -1  544.85   29.00
  -7   3  -1   25.80    8.30
  -7   3  -1    8.50    6.00
  -5  -2   1  235.28   13.30
  -4  -2   1  253.87   13.10
   3   2  -1  314.47   13.90
  -3  -2   1  287.87   14.20
   2   2  -1  142.69    7.50
  -2  -2   1  144.69    7.70
   1   2  -1  352.56   15.50
  -1  -2   1  371.76   15.70
   0   2  -1  898.11   38.20
   0  -2   1  970.30   38.50
  -1   2  -1  479.45   20.80
   1  -2   1  494.65   21.80
  -2   2  -1   74.69    5.90
  -2   2  -1   95.89    6.30
   2  -2   1   82.19    7.70
  -3   2  -1  132.09    9.10
  -3   2  -1  103.49    7.80
   3  -2   1  103.99   10.20
  -4   2  -1  315.87   16.60
  -4   2  -1  289.37   16.80
  -4   2  -1  280.87   15.00
  -5   2  -1   47.60    6.50
  -5   2  -1   43.20    7.80
  -5   2  -1   44.80    8.00
  -6   2  -1   28.80    8.10
  -6   2  -1   36.20    8.20
  -6   2  -1   24.80    6.20
  -7   2  -1    2.10    8.10
  -7   2  -1    1.10    7.00
  -5  -1   1   14.40    5.10
  -4  -1   1  230.48   12.60
  -3  -1   1  483.75   21.50
   2   1  -1   37.20    3.60
  -2  -1   1   29.90    3.30
   1   1  -1 4991.60  195.98
  -1  -1   1 4842.22  195.68
   0   1  -1  822.22   32.30
   0  -1   1  762.72   32.40
  -1   1  -1 6477.05  266.67
   1  -1   1 6915.41  267.67
  -2   1  -1  109.69    6.60
   2  -1   1  136.19    9.20
  -3   1  -1  823.72   36.70
  -3   1  -1  855.71   35.40
  -4   1  -1   19.40    5.10
  -4   1  -1   22.60    4.50
  -5   1  -1   18.30    6.60
  -5   1  -1   27.10    5.40
  -6   1  -1   23.20    5.70
  -6   1  -1   30.10    7.60
  -7   1  -1   37.30    9.40
  -7   1  -1   65.89   10.10
  -8   0   1   22.40   10.30
  -7   0   1   43.90   10.60
  -6   0   1   23.40    6.80
  -5   0   1  159.18   11.70
  -4   0   1  831.92   36.30
  -3   0   1  830.12   35.20
  -2   0   1  219.38   10.40
   1   0  -1 5191.88  207.08
   0   0  -1   44.80    2.80
   0   0   1   51.39    2.90
   0   0   1   52.59    2.70
  -1   0  -1 1381.76   53.69
  -1   0  -1 1378.66   54.49
   1   0   1 1259.27   53.59
  -2   0  -1  259.67   11.20
  -2   0  -1  233.58   12.10
  -3   0  -1 1289.27   56.99
  -3   0  -1 1442.96   55.99
  -4   0  -1    7.70    4.10
  -4   0  -1   10.50    3.70
  -5   0  -1  301.37   15.40
  -5   0  -1  296.07   17.40
  -6   0  -1   12.80    6.70
  -8   0  -1   23.70   10.00
  -8   1   1   21.80   10.50
  -7   1   1   52.09   10.50
  -6   1   1  106.39   12.30
  -6   1   1  100.79   11.70
  -6   1   1   99.19    9.80
  -5   1   1   24.90    7.70
  -5   1   1   28.90    6.50
  -4   1   1   55.79    6.70
   3  -1  -1 1395.76   56.29
  -3   1   1 1267.37   56.19
   2  -1  -1 1418.86   58.29
  -2   1   1 1418.46   58.59
   1  -1  -1  195.68    8.60
  -1   1   1  160.78    9.10
   0  -1  -1 4747.12  189.38
  -1  -1  -1 1216.58   50.09
  -2  -1  -1  579.24   25.40
  -3  -1  -1  269.37   14.10
  -4  -1  -1  372.46   16.40
  -4  -1  -1  327.67   17.90
  -5  -1  -1  349.37   19.40
  -6  -1  -1   87.49   10.20
  -8   2   1   81.59   12.80
  -7   2   1   23.70    9.60
  -7   2   1   12.60    6.90
  -6   2   1   58.29    9.00
  -6   2   1   83.89    9.30
  -6   2   1   67.09   10.40
  -5   2   1   30.60    7.00
  -5   2   1   36.70    7.90
   4  -2  -1  197.08   13.10
  -4   2   1  152.08   12.00
   3  -2  -1  332.47   16.40
  -3   2   1  281.37   15.80
   2  -2  -1 1645.04   63.59
  -2   2   1 1439.06   63.29
   1  -2  -1  263.87   12.90
  -1   2   1  289.67   13.10
   0  -2  -1 4098.19  158.78
   0   2   1 3832.42  157.98
  -1  -2  -1 3948.00  158.38
  -2  -2  -1  552.64   24.60
  -3  -2  -1 1071.69   45.60
  -4  -2  -1  402.16   20.10
  -5  -2  -1  222.98   14.40
  -6  -2  -1  103.99   11.50
  -8   3   1   32.50   11.70
  -7   3   1   21.40    9.00
  -7   3   1   11.10    7.00
  -7   3   1   28.00    9.70
  -6   3   1   32.40    8.00
  -6   3   1   36.40    7.90
  -6   3   1   18.60    8.00
   5  -3  -1   14.00    7.30
  -5   3   1   20.30    7.30
  -5   3   1   24.10    6.90
   4  -3  -1   26.70    6.70
  -4   3   1   43.00    6.50
  -4   3   1   34.40    6.50
   3  -3  -1   46.70    6.30
  -3   3   1   45.80    5.90
  -3   3   1   45.70    5.70
   2  -3  -1 1198.28   50.59
  -2   3   1 1303.77   50.49
  -2   3   1 1127.19   49.90
   1  -3  -1  218.98   10.70
  -1   3   1  199.58    9.90
   0  -3  -1 2090.59   81.79
   0   3   1 1936.31   80.69
  -1  -3  -1  785.92   33.60
  -2  -3  -1 1398.36   58.29
  -3  -3  -1  157.88   10.20
  -4  -3  -1  354.26   18.60
  -5  -3  -1   74.29    8.40
  -8   4   1   11.70    6.90
  -7   4   1   31.40    8.90
  -7   4   1   60.69   10.40
  -7   4   1   22.50    7.80
   6  -4  -1  142.89   15.20
  -6   4   1  134.89   13.50
  -6   4   1  131.59   13.70
   5  -4  -1  224.28   17.30
  -5   4   1  252.47   15.90
  -5   4   1  251.37   16.50
   4  -4  -1  341.27   19.20
  -4   4   1  320.27   17.80
  -4   4   1  323.47   17.50
   3  -4  -1  131.69   10.70
  -3   4   1  150.08    9.70
  -3   4   1  158.78   10.30
   2  -4  -1   17.70    4.40
  -2   4   1   17.70    3.60
   1  -4  -1   83.89    6.80
  -1   4   1   82.89    5.60
   0  -4  -1   73.19    6.20
   0   4   1   73.49    4.80
  -1  -4  -1  202.88   12.30
   1   4   1  227.38    9.80
  -2  -4  -1   43.60    5.90
  -3  -4  -1  142.29   10.60
  -4  -4  -1  146.69   11.40
  -5  -4  -1   11.20    5.80
  -8   5   1    0.90    6.90
   7  -5  -1   81.59   13.00
  -7   5   1   79.49   12.60
  -7   5   1   93.49   11.00
  -7   5   1   77.39   12.00
   6  -5  -1  100.99   13.30
  -6   5   1  107.49   11.60
  -6   5   1   99.49   11.20
   5  -5  -1   -2.70    7.60
  -5   5   1   11.90    6.50
  -5   5   1    0.40    6.10
   4  -5  -1  462.35   25.30
  -4   5   1  457.55   23.50
  -4   5   1  516.05   23.60
   3  -5  -1   64.49    8.10
  -3   5   1   62.89    6.30
   2  -5  -1  112.39    8.90
  -2   5   1  111.49    7.40
   1  -5  -1  138.69    9.20
  -1   5   1  135.69    7.50
   0  -5  -1  444.96   21.60
   0   5   1  489.75   20.20
  -1  -5  -1  191.08   11.50
   1   5   1  194.58    9.10
  -2  -5  -1    8.80    4.80
  -3  -5  -1  119.59   11.10
  -4  -5  -1   19.30    6.60
  -5  -5  -1   26.30    7.20
  -8   6   1   63.39   10.00
   7  -6  -1   43.30   11.40
  -7   6   1   40.40    8.80
   6  -6  -1  333.07   22.70
  -6   6   1  273.37   18.80
  -6   6   1  299.07   19.10
   5  -6  -1  392.96   25.40
  -5   6   1  446.06   22.60
  -5   6   1  410.66   22.10
   4  -6  -1   47.30    9.50
  -4   6   1   49.50    6.90
   3  -6  -1  584.44   29.20
  -3   6   1  600.04   26.70
   2  -6  -1    8.40    4.40
  -2   6   1    3.60    3.00
   1  -6  -1  219.38   13.40
  -1   6   1  248.08   11.60
   0  -6  -1  307.87   16.10
   0   6   1  302.17   13.80
  -1  -6  -1   42.50    6.30
   1   6   1   42.30    4.20
  -2  -6  -1  127.69   11.40
  -3  -6  -1  267.97   17.20
  -4  -6  -1   19.60    7.30
   7  -7  -1   25.30   11.50
  -7   7   1   26.10    8.60
   6  -7  -1  107.39   14.70
  -6   7   1   80.09   10.80
   5  -7  -1   40.50   10.60
  -5   7   1   44.10    7.90
   4  -7  -1  102.09   12.40
  -4   7   1   97.99    9.20
   3  -7  -1  112.59   12.00
  -3   7   1  122.99    8.60
   2  -7  -1    2.80    4.80
  -2   7   1    0.10    3.20
   1  -7  -1   61.99    7.60
  -1   7   1   59.89    5.60
   0  -7  -1    0.20    4.30
   0   7   1   -2.60    2.50
  -1  -7  -1   92.79   10.10
   1   7   1   99.69    6.30
  -2  -7  -1   61.69    9.00
  -3  -7  -1  473.55   25.70
  -4  -7  -1   68.69   10.20
   7  -8  -1   68.69   14.10
  -7   8   1   31.40    9.90
   6  -8  -1   -3.30    8.60
  -6   8   1   -4.10    7.00
   5  -8  -1   39.30   11.10
  -5   8   1   32.10    7.10
   4  -8  -1  116.19   13.70
  -4   8   1   97.59    9.80
   3  -8  -1   38.50    8.40
  -3   8   1   28.00    5.20
   2  -8  -1   48.50    8.20
  -2   8   1   49.30    5.30
   1  -8  -1   -2.70    5.50
  -1   8   1    2.90    3.00
   0  -8  -1   64.79    9.00
   0   8   1   56.29    5.50
  -1  -8  -1   68.29    8.90
   1   8   1   48.80    4.70
  -2  -8  -1  110.29   12.70
  -3  -8  -1   92.29   11.50
  -4  -8  -1   78.09   14.40
   7  -9  -1   19.30   12.60
   6  -9  -1    7.30   10.50
  -6   9   1   15.30    8.50
   5  -9  -1   67.69   12.90
  -5   9   1   65.19    8.90
   4  -9  -1    0.10    7.90
  -4   9   1    3.20    4.90
   3  -9  -1   91.09   11.90
  -3   9   1   82.99    7.90
   2  -9  -1   10.40    7.00
  -2   9   1    7.20    3.70
   1  -9  -1   40.50    8.50
  -1   9   1   28.10    4.20
   0  -9  -1   83.19   10.40
   0   9   1   67.89    6.30
  -1  -9  -1  121.49   13.20
  -2  -9  -1   36.80    9.20
  -3  -9  -1   34.30    8.70
   6 -10  -1   -1.30   10.80
  -6  10   1   -5.90    6.70
   5 -10  -1    9.20    9.40
  -5  10   1    9.30    6.20
   4 -10  -1   50.29   11.50
  -4  10   1   47.30    6.80
   3 -10  -1   13.10    7.80
  -3  10   1    9.20    4.40
   2 -10  -1   50.89    9.90
  -2  10   1   68.69    6.80
   1 -10  -1   31.50    8.40
  -1  10   1   30.80    4.50
   0 -10  -1   74.39   11.40
  -1 -10  -1   43.00   10.20
  -2 -10  -1    9.90    8.40
  -3 -10  -1   27.10    9.60
   5 -11  -1   65.49   13.20
  -5  11   1   45.90    8.10
   4 -11  -1    1.30    8.40
  -4  11   1    4.60    5.10
   3 -11  -1  172.18   17.50
  -3  11   1  180.48   11.20
   2 -11  -1   44.70    9.90
  -2  11   1   23.90    4.80
   1 -11  -1   10.40    7.60
  -1  11   1    8.70    4.10
   0 -11  -1   19.20    8.90
  -1 -11  -1   -3.30    8.40
  -2 -11  -1   10.40    9.40
   4 -12  -1   17.10   10.80
  -4  12   1   26.30    6.00
   3 -12  -1   22.50    9.80
  -3  12   1   21.10    5.00
   2 -12  -1   22.80    9.10
  -2  12   1   13.80    4.60
   1 -12  -1   20.90    9.20
   0 -12  -1   62.69   12.50
  -1 -12  -1    0.80    9.50
   1 -13   2   10.80   12.20
  -2  13  -2    4.10    5.00
   2 -13   2   -6.20   14.10
   0 -12   2  111.59   16.90
  -1  12  -2    2.20    4.60
   1 -12   2    8.80   11.00
  -2  12  -2    7.50    4.90
   2 -12   2    9.40   11.00
  -3  12  -2    5.70    4.90
   3 -12   2  -14.40   10.00
  -4  12  -2   12.20    6.30
   4 -12   2   15.00   14.20
  -1 -11   2   42.60   12.60
   0  11  -2   28.10    5.60
   0 -11   2   18.20   11.20
  -1  11  -2   40.30    5.90
   1 -11   2   62.19   12.90
  -2  11  -2    6.10    4.70
   2 -11   2   17.70   10.20
  -3  11  -2   36.60    6.40
   3 -11   2   26.90   11.50
  -4  11  -2   16.10    6.00
   4 -11   2   29.00   11.90
  -5  11  -2   26.50    7.50
   5 -11   2    2.80   10.90
   1  10  -2   65.29    7.90
  -1 -10   2   71.99   12.00
   0  10  -2   17.70    5.00
   0 -10   2   30.80   10.10
  -1  10  -2  139.29   10.00
   1 -10   2  139.09   15.70
  -2  10  -2    9.20    4.60
   2 -10   2   24.70   10.00
  -3  10  -2   28.60    5.60
   3 -10   2   22.30   10.80
  -4  10  -2   13.00    6.00
   4 -10   2   -7.10    8.60
  -5  10  -2   27.50    7.50
   5 -10   2   17.10   11.60
  -6  10  -2   -3.40    8.00
   6 -10   2    2.30   11.30
  -2  -9   2   74.89   11.60
   1   9  -2  106.09    9.10
  -1  -9   2  122.99   13.10
   0   9  -2   12.80    4.30
   0  -9   2   13.40    7.60
  -1   9  -2  308.47   15.70
   1  -9   2  287.07   20.80
  -2   9  -2  142.09   10.30
   2  -9   2  171.28   17.10
  -3   9  -2  105.39    9.50
   3  -9   2  115.69   14.80
  -4   9  -2   39.20    7.00
   4  -9   2   16.00   10.40
  -5   9  -2   16.20    6.90
   5  -9   2   23.80   11.10
  -6   9  -2   17.20    7.90
   6  -9   2   21.00   11.70
   2   8  -2   37.80    5.50
  -2  -8   2   48.80    8.80
   1   8  -2  102.29    8.40
  -1  -8   2   84.89   10.70
   0   8  -2    8.20    4.10
   0  -8   2    6.60    6.50
  -1   8  -2   -0.90    3.80
   1  -8   2    3.60    6.80
  -2   8  -2  260.97   14.20
   2  -8   2  266.07   19.40
  -3   8  -2   34.20    5.90
   3  -8   2   49.70   10.70
  -4   8  -2  119.69   10.60
   4  -8   2  112.39   15.00
  -5   8  -2   58.09    9.00
   5  -8   2   58.49   12.90
  -6   8  -2   27.40    8.50
   6  -8   2   43.80   12.70
  -7   8  -2   22.90    8.50
   7  -8   2   14.10   12.30
  -3  -7   2   65.09   10.10
   2   7  -2  110.49    8.10
  -2  -7   2  100.19   11.60
   1   7  -2  253.87   13.10
  -1  -7   2  222.18   15.70
   0   7  -2  100.49    8.00
   0  -7   2   90.79   10.30
  -1   7  -2   29.50    4.70
   1  -7   2   27.80    7.30
  -2   7  -2   23.10    4.70
   2  -7   2   13.50    7.30
  -3   7  -2   80.19    8.10
   3  -7   2   84.99   12.10
  -4   7  -2   24.60    6.40
   4  -7   2   25.40    9.80
  -5   7  -2   35.80    7.70
   5  -7   2   38.20   11.10
  -6   7  -2   84.09   10.30
   6  -7   2   84.19   14.00
  -7   7  -2   23.70   10.80
  -7   7  -2   12.90    8.00
   7  -7   2   31.40   12.20
   3   6  -2   -1.20    4.10
  -3  -6   2   13.10    6.20
   2   6  -2  127.49    8.40
  -2  -6   2  129.89   10.80
   1   6  -2  166.38    9.80
  -1  -6   2  170.38   11.60
   0   6  -2    3.30    3.30
   0  -6   2    5.60    4.60
  -1   6  -2   62.89    6.20
   1  -6   2   73.19    8.40
  -2   6  -2   37.30    4.80
   2  -6   2   31.50    7.20
  -3   6  -2   20.60    5.10
   3  -6   2   11.50    7.50
  -4   6  -2  262.37   15.00
   4  -6   2  229.38   19.20
  -5   6  -2  197.88   14.10
   5  -6   2  184.48   18.20
  -6   6  -2   80.39    9.80
   6  -6   2   83.69   13.90
  -7   6  -2   60.79    9.20
  -7   6  -2   53.79   12.00
   3   5  -2  307.57   15.30
  -3  -5   2  307.17   17.10
   2   5  -2  235.68   11.50
  -2  -5   2  211.28   12.80
   1   5  -2  695.33   30.40
  -1  -5   2  726.83   31.50
   0   5  -2  290.77   14.00
   0  -5   2  278.77   15.00
  -1   5  -2    8.20    3.20
   1  -5   2    5.30    4.80
  -2   5  -2  269.07   13.20
   2  -5   2  243.88   15.70
  -3   5  -2   52.69    6.10
   3  -5   2   52.49    8.80
  -4   5  -2   73.79    6.70
  -4   5  -2   93.89    8.70
   4  -5   2  103.99   12.40
  -5   5  -2  101.99   10.00
   5  -5   2   99.19   13.40
  -6   5  -2   85.09    9.60
  -6   5  -2  103.59   13.30
   6  -5   2   82.59   13.80
  -7   5  -2   83.19    9.50
  -7   5  -2   82.39   12.70
  -8   5  -2   -6.80    8.00
   4   4  -2  909.61   38.00
  -4  -4   2  878.21   39.40
   3   4  -2  118.19    8.00
  -3  -4   2  116.39    9.20
   2   4  -2  622.64   26.20
  -2  -4   2  593.24   26.70
   1   4  -2  247.18   12.70
  -1  -4   2  281.37   13.40
   0   4  -2  154.38    8.90
   0  -4   2  150.08    9.60
  -1   4  -2  965.10   42.50
   1  -4   2 1077.59   44.30
  -2   4  -2 1058.09   43.90
   2  -4   2 1028.80   45.90
  -3   4  -2  282.97   13.60
  -3   4  -2  300.97   14.90
   3  -4   2  314.47   18.20
  -4   4  -2 1140.79   46.60
  -4   4  -2 1085.49   47.20
   4  -4   2 1075.19   50.49
  -5   4  -2  971.60   41.10
  -5   4  -2  885.71   41.00
   5  -4   2  923.81   45.20
  -6   4  -2  144.79   11.90
  -6   4  -2  150.78   15.20
  -7   4  -2   70.59    8.90
  -7   4  -2   71.49   11.40
  -8   4  -2    8.30    9.30
   4   3  -2  233.98   12.30
   3   3  -2  453.15   20.20
   2   3  -2  118.79    7.60
   1   3  -2  419.76   18.40
   0   3  -2  241.18   12.50
   0  -3   2  299.67   13.30
  -1   3  -2  509.95   22.20
   1  -3   2  518.05   23.50
  -2   3  -2 1394.66   56.99
   2  -3   2 1372.56   58.89
  -3   3  -2  696.73   28.30
  -3   3  -2  598.94   28.30
   3  -3   2  656.03   31.20
  -4   3  -2   52.19    6.40
  -4   3  -2   69.29    6.80
   4  -3   2   61.49    9.40
  -5   3  -2  622.34   29.30
  -5   3  -2  631.24   31.50
  -5   3  -2  599.44   28.30
  -6   3  -2   28.50    8.50
  -6   3  -2    5.30    5.20
  -6   3  -2   26.70    9.80
  -7   3  -2  252.87   20.00
  -8   3  -2   40.10   10.20
   4   2  -2   46.70    5.40
  -4  -2   2   31.10    4.20
   3   2  -2   30.60    4.10
  -3  -2   2   25.50    3.30
   2   2  -2  209.08   10.50
   1   2  -2 1918.51   75.59
  -1  -2   2 1823.82   75.19
   0   2  -2 4167.88  174.48
   0  -2   2 4561.34  174.88
  -1   2  -2  333.87   15.00
   1  -2   2  342.97   16.50
  -2   2  -2  149.39    8.20
   2  -2   2  153.48   10.90
  -3   2  -2   70.79    7.00
  -3   2  -2   64.89    5.70
  -3   2  -2   56.49    7.10
   3  -2   2   55.39    8.00
  -4   2  -2  236.98   14.50
  -4   2  -2  210.48   12.00
  -5   2  -2  117.49    9.10
  -5   2  -2  103.09   11.30
  -5   2  -2  116.39   11.60
  -6   2  -2   83.09    8.60
  -6   2  -2   94.19   10.90
  -6   2  -2   95.49   11.60
  -7   2  -2   16.20    8.00
  -8  -1   2   25.70   11.30
  -5  -1   2  158.18   10.60
  -4  -1   2  227.68   11.90
   3   1  -2  280.37   13.40
  -3  -1   2  270.27   12.80
   2   1  -2  139.49    7.80
   1   1  -2 3558.44  142.59
   0   1  -2 2422.26   99.49
   0  -1   2 2544.65   99.89
  -1   1  -2  192.28    9.10
  -1   1  -2  182.98   10.30
   1  -1   2  210.98   11.80
  -2   1  -2 1418.36   59.29
  -2   1  -2 1431.26   57.89
  -3   1  -2  631.34   29.00
  -3   1  -2  645.44   27.20
  -4   1  -2   27.90    5.70
  -4   1  -2   31.40    4.40
  -5   1  -2  177.38   11.30
  -5   1  -2  213.28   14.90
  -6   1  -2  249.08   17.90
  -7   1  -2   -2.00    7.40
  -8   0   2   52.49   12.20
  -7   0   2   12.70    9.10
  -5   0   2   19.70    5.30
  -4   0   2  249.68   13.20
  -3   0   2  154.58    8.60
   2   0  -2 1491.25   60.89
   1   0  -2 2767.12  107.59
  -1   0   2 2588.84  107.89
   0   0  -2 4181.78  170.38
   0   0  -2 4357.26  170.68
   0   0  -2 4112.19  170.38
   0   0   2 4430.36  170.38
  -1   0  -2  877.91   36.20
  -1   0  -2  850.71   34.90
  -2   0  -2  263.47   13.20
  -2   0  -2  260.97   11.50
  -3   0  -2   27.60    4.80
  -3   0  -2   22.50    3.10
  -4   0  -2  215.88   13.20
  -4   0  -2  213.78   10.90
  -5   0  -2  439.46   20.60
  -5   0  -2  461.35   23.70
  -6   0  -2  272.07   18.80
  -7   0  -2   93.19   12.40
  -8   1   2    7.30   10.30
  -7   1   2  214.78   19.30
  -7   1   2  232.98   15.60
  -6   1   2   14.60    8.20
  -5   1   2    3.90    5.00
  -5   1   2   -0.60    6.60
  -4   1   2  433.76   21.20
  -4   1   2  449.36   23.00
   3  -1  -2  376.46   18.00
  -3   1   2  364.46   19.10
   2  -1  -2 1098.19   44.70
  -2   1   2 1075.09   45.60
   1  -1  -2 8341.97  327.47
   1  -1  -2 8028.70  327.17
  -1   1   2 8276.87  327.67
   0  -1  -2 2097.49   84.69
   0  -1  -2 2105.89   84.19
  -1  -1  -2 1368.46   56.39
  -2  -1  -2  172.08   10.20
  -3  -1  -2  636.14   28.70
  -4  -1  -2  323.37   17.40
  -5  -1  -2  527.95   26.80
  -6  -1  -2  307.57   19.80
  -8   2   2   57.69   12.20
  -7   2   2  169.88   17.20
  -7   2   2  149.59   13.50
  -6   2   2  111.29   11.90
  -6   2   2  126.49   13.40
   5  -2  -2   24.20    7.60
  -5   2   2   18.80    6.20
  -5   2   2   35.00    8.00
   4  -2  -2   80.29    8.40
  -4   2   2   85.19    8.70
   3  -2  -2  116.89    8.80
  -3   2   2  106.19    9.70
   2  -2  -2  168.78    8.50
  -2   2   2  120.59    8.90
   1  -2  -2 5971.70  231.08
  -1   2   2 5594.64  231.38
   0  -2  -2 1673.53   68.19
  -1  -2  -2  542.15   23.90
  -2  -2  -2 3668.03  148.39
  -3  -2  -2  115.99    8.80
  -4  -2  -2  306.17   16.90
  -5  -2  -2  549.15   27.20
  -6  -2  -2  213.68   15.70
  -8   3   2    0.00   12.20
  -8   3   2   19.90   11.10
  -7   3   2   20.90    7.90
  -7   3   2   34.00   10.50
  -6   3   2  125.49   13.20
  -6   3   2  144.79   14.20
  -6   3   2  130.69   12.90
   5  -3  -2   60.49    9.00
  -5   3   2   54.49    9.30
   4  -3  -2  311.97   16.90
  -4   3   2  269.47   16.60
   3  -3  -2  214.48   12.50
  -3   3   2  203.08   12.60
   2  -3  -2  133.69    8.70
  -2   3   2  149.99    9.60
   1  -3  -2  267.17   12.90
   0  -3  -2  159.48    8.40
   0   3   2  126.99    6.70
  -1  -3  -2 1234.38   51.79
  -2  -3  -2  217.58   12.50
  -3  -3  -2 1672.73   70.09
  -4  -3  -2  271.37   15.90
  -5  -3  -2   49.00    7.80
  -6  -3  -2  195.38   15.30
  -8   4   2   52.09    9.80
  -8   4   2   54.99   11.90
  -7   4   2   51.89    9.40
  -7   4   2   53.39   10.50
   6  -4  -2  129.49   14.50
  -6   4   2  119.29   12.10
  -6   4   2  119.09   12.80
   5  -4  -2  522.35   28.10
  -5   4   2  550.24   27.90
  -5   4   2  542.35   27.00
   4  -4  -2    0.80    5.40
  -4   4   2   -1.70    5.30
  -4   4   2    1.50    5.00
   3  -4  -2  155.38   11.30
  -3   4   2  194.58   12.00
   2  -4  -2   17.10    4.40
  -2   4   2   23.90    3.80
   1  -4  -2  550.54   23.70
  -1   4   2  499.05   22.30
   0  -4  -2  368.56   17.10
   0   4   2  340.37   15.10
  -1  -4  -2 1066.99   45.70
  -2  -4  -2  201.68   12.60
  -3  -4  -2  193.18   13.00
  -4  -4  -2   87.39    9.40
  -5  -4  -2  112.89   11.60
  -8   5   2   43.60    9.30
   7  -5  -2   11.60    9.50
  -7   5   2   18.10    8.60
  -7   5   2   -1.90    7.50
   6  -5  -2  413.16   24.60
  -6   5   2  378.56   22.40
  -6   5   2  376.66   23.40
   5  -5  -2   12.50    7.80
  -5   5   2   16.70    6.80
  -5   5   2   25.90    7.70
   4  -5  -2   47.20    8.40
  -4   5   2   33.60    6.30
  -4   5   2   38.10    7.40
   3  -5  -2   68.79    7.80
  -3   5   2   63.99    7.40
  -3   5   2   68.79    6.40
   2  -5  -2    2.10    3.60
  -2   5   2   -1.00    2.60
   1  -5  -2  189.48   11.10
  -1   5   2  180.18    9.30
   0  -5  -2   49.40    5.90
   0   5   2   50.99    4.00
  -1  -5  -2   68.39    7.10
   1   5   2   55.99    3.90
  -2  -5  -2  218.38   14.20
  -3  -5  -2  104.69   10.70
  -4  -5  -2  213.88   15.60
  -5  -5  -2   29.30    7.70
  -8   6   2   20.10    8.40
   7  -6  -2  115.29   14.80
  -7   6   2  125.09   12.80
  -7   6   2  100.49   12.80
   6  -6  -2   39.00   10.70
  -6   6   2   34.80    9.10
  -6   6   2   31.80    8.50
   5  -6  -2  347.87   22.00
  -5   6   2  326.07   20.00
  -5   6   2  329.27   19.20
   4  -6  -2   10.70    7.20
  -4   6   2    8.70    5.20
   3  -6  -2  141.79   11.60
  -3   6   2  135.39    9.30
   2  -6  -2   50.99    7.10
  -2   6   2   51.19    5.00
   1  -6  -2  170.18   11.40
  -1   6   2  185.08    9.20
   0  -6  -2   19.20    4.50
   0   6   2   17.80    2.90
  -1  -6  -2   36.60    6.20
   1   6   2   30.70    3.00
  -2  -6  -2  368.06   20.50
  -3  -6  -2   79.49   10.30
  -4  -6  -2   58.19    9.70
  -5  -6  -2   -3.40    6.80
   7  -7  -2   81.29   13.70
  -7   7   2   55.39   10.60
   6  -7  -2  112.59   14.60
  -6   7   2   97.69   11.60
  -6   7   2   98.29   11.40
   5  -7  -2   26.40    8.90
  -5   7   2    4.60    6.10
   4  -7  -2   46.40    9.70
  -4   7   2   60.89    7.30
   3  -7  -2  145.79   13.00
  -3   7   2  166.48   10.20
   2  -7  -2  168.48   12.60
  -2   7   2  156.88    9.30
   1  -7  -2  274.97   16.20
  -1   7   2  285.47   13.40
   0  -7  -2  206.08   13.50
   0   7   2  211.88   10.30
  -1  -7  -2   94.79   10.50
   1   7   2   98.79    6.10
  -2  -7  -2  338.87   20.20
  -3  -7  -2  130.69   13.90
  -4  -7  -2   95.09   11.70
   7  -8  -2   18.40   11.00
  -7   8   2    4.60    8.90
   6  -8  -2   61.39   13.10
  -6   8   2   45.70    9.50
   5  -8  -2  138.69   15.20
  -5   8   2  125.29   12.40
   4  -8  -2  253.67   19.60
  -4   8   2  271.17   15.40
   3  -8  -2   71.19   10.10
  -3   8   2   68.09    6.60
   2  -8  -2  218.48   15.70
  -2   8   2  255.77   12.70
   1  -8  -2   34.40    7.10
  -1   8   2   35.10    4.20
   0  -8  -2    6.70    5.90
   0   8   2   10.90    3.00
  -1  -8  -2  113.09   12.40
  -2  -8  -2   30.00    8.30
  -3  -8  -2  240.08   18.00
  -4  -8  -2   24.10    8.60
   7  -9  -2   39.80   13.60
   6  -9  -2   20.00   10.70
  -6   9   2    5.30    7.10
   5  -9  -2   67.29   12.80
  -5   9   2   50.59    7.80
   4  -9  -2   -3.80    7.60
  -4   9   2    2.30    4.70
   3  -9  -2   48.90    9.60
  -3   9   2   61.89    6.50
   2  -9  -2   37.10    7.90
  -2   9   2   29.30    4.40
   1  -9  -2   36.40    8.10
  -1   9   2   30.40    4.10
   0  -9  -2   97.49   11.20
   0   9   2  102.09    7.00
  -1  -9  -2    5.90    6.90
  -2  -9  -2   67.09   10.40
  -3  -9  -2   10.90    7.90
   6 -10  -2   57.59   13.60
  -6  10   2   39.30    9.00
   5 -10  -2   15.90   10.50
  -5  10   2   22.80    6.90
   4 -10  -2   85.79   12.70
  -4  10   2   76.29    8.00
   3 -10  -2   50.19   10.00
  -3  10   2   42.20    5.80
   2 -10  -2   35.00    8.30
  -2  10   2   36.80    5.00
   1 -10  -2   80.69   10.90
  -1  10   2   81.29    6.90
   0 -10  -2    8.90    7.20
  -1 -10  -2   18.70    8.40
  -2 -10  -2    6.10    8.00
  -3 -10  -2    2.80    7.70
   5 -11  -2   34.30   12.00
  -5  11   2   17.70    6.50
   4 -11  -2    5.30    8.60
  -4  11   2    0.00    4.50
   3 -11  -2   18.30    8.60
  -3  11   2   21.50    4.80
   2 -11  -2   45.40    9.60
  -2  11   2   51.49    5.80
   1 -11  -2   -1.60    7.40
   0 -11  -2   60.89   11.20
  -1 -11  -2   20.30    9.30
  -2 -11  -2   29.70    9.90
  -3 -11  -2    1.60   10.30
   4 -12  -2   23.80   11.10
  -4  12   2   16.70    5.40
   3 -12  -2   -0.30    7.60
  -3  12   2    6.10    4.30
   2 -12  -2    5.90    8.00
  -2  12   2    2.40    4.10
   1 -12  -2   31.00    9.50
   0 -12  -2   14.70    9.50
  -1 -12  -2    4.30    9.40
   0  12  -3    7.10    8.00
   0 -12   3   24.10   12.50
  -1  12  -3   20.50    5.60
   1 -12   3    7.40   12.20
  -2  12  -3   35.60    6.50
   2 -12   3   31.90   13.30
  -3  12  -3    1.00    5.00
   3 -12   3    4.50   11.80
   0  11  -3   48.20    7.00
   0 -11   3   53.59   12.90
  -1  11  -3   34.50    5.80
   1 -11   3   20.20   11.60
  -2  11  -3  155.98   11.60
   2 -11   3  183.08   20.00
  -3  11  -3    4.20    5.20
   3 -11   3    2.70   10.40
  -4  11  -3   13.10    6.70
   4 -11   3   13.60   11.70
  -5  11  -3   56.59   10.60
   5 -11   3   81.19   20.20
   1  10  -3   37.40    6.60
  -1 -10   3   49.00   11.30
   0  10  -3   13.50    5.00
   0 -10   3   20.30    9.90
  -1  10  -3   39.30    6.30
   1 -10   3   49.00   11.70
  -2  10  -3   17.90    5.20
   2 -10   3   14.10   10.50
  -3  10  -3   78.19    8.40
   3 -10   3   75.49   14.40
  -4  10  -3   19.50    6.40
   4 -10   3    8.90   10.80
  -5  10  -3   39.40    8.30
   5 -10   3   41.30   13.10
   2   9  -3   72.39   11.00
   1   9  -3   -1.20    4.40
  -1  -9   3    4.40    7.60
   0   9  -3   59.39    6.60
   0  -9   3   57.99   10.70
  -1   9  -3  199.88   12.50
   1  -9   3  183.58   18.20
  -2   9  -3  158.78   11.30
   2  -9   3  162.48   17.80
  -3   9  -3  112.09    9.80
   3  -9   3  117.99   15.20
  -4   9  -3    6.30    5.90
   4  -9   3    0.70    9.90
  -5   9  -3   44.40    8.30
   5  -9   3   16.30   11.20
  -6   9  -3   50.99    9.20
   6  -9   3   23.50   12.50
   2   8  -3  107.99    8.90
  -2  -8   3   92.59   10.60
   1   8  -3   67.29    7.30
  -1  -8   3   74.89    9.80
   0   8  -3  161.48   10.80
   0  -8   3  175.18   15.00
  -1   8  -3  578.14   26.70
   1  -8   3  577.24   31.20
  -2   8  -3  663.63   29.70
   2  -8   3  637.74   34.70
  -3   8  -3  290.57   15.80
   3  -8   3  258.17   21.40
  -4   8  -3  160.78   12.40
   4  -8   3  139.59   16.40
  -5   8  -3    2.40    5.90
   5  -8   3    6.50   10.00
  -6   8  -3   54.49    9.00
   6  -8   3   48.50   13.30
  -7   8  -3   67.39    9.90
  -7   8  -3   63.39   14.20
   7  -8   3   98.59   17.50
   3   7  -3   85.29    8.30
   2   7  -3   36.40    5.50
  -2  -7   3   40.70    7.20
   1   7  -3  369.26   17.60
  -1  -7   3  320.77   19.10
   0   7  -3   87.89    8.10
   0  -7   3  101.69   10.40
  -1   7  -3    7.00    4.10
   1  -7   3   10.30    7.00
  -2   7  -3  462.45   22.10
   2  -7   3  473.75   26.60
  -3   7  -3  229.98   13.60
   3  -7   3  212.98   18.90
  -4   7  -3   13.60    5.70
   4  -7   3    8.00    9.40
  -5   7  -3   73.29    8.90
   5  -7   3   91.19   14.30
  -6   7  -3   67.19    9.20
   6  -7   3   69.29   14.20
  -7   7  -3   18.60   10.70
  -7   7  -3   19.00    7.60
   3   6  -3  530.55   24.40
   2   6  -3   80.79    7.70
  -2  -6   3   92.19    9.00
   1   6  -3   68.59    6.50
  -1  -6   3   65.89    7.30
   0   6  -3  320.27   15.80
   0  -6   3  306.07   17.40
  -1   6  -3  378.26   17.90
   1  -6   3  347.87   20.30
  -2   6  -3   38.30    5.20
   2  -6   3   47.40    8.50
  -3   6  -3  335.37   16.70
   3  -6   3  295.77   20.90
  -4   6  -3  173.18   12.00
   4  -6   3  156.58   17.00
  -5   6  -3   41.90    7.60
   5  -6   3   48.90   11.40
  -6   6  -3    9.80    8.40
  -6   6  -3   27.30    7.00
   6  -6   3   17.90   10.30
  -7   6  -3   87.29   10.10
  -7   6  -3   96.59   14.60
   4   5  -3  108.39    9.20
   3   5  -3   66.59    6.70
  -3  -5   3   51.29    6.40
   2   5  -3  581.64   25.70
   1   5  -3  416.36   19.40
  -1  -5   3  425.66   20.10
   0   5  -3  199.98   11.20
   0  -5   3  200.18   12.50
  -1   5  -3  165.68   10.00
   1  -5   3  176.88   12.40
  -2   5  -3  244.78   12.70
   2  -5   3  232.08   15.80
  -3   5  -3  670.23   29.60
   3  -5   3  657.33   33.30
  -4   5  -3  354.66   18.30
   4  -5   3  346.77   23.10
  -5   5  -3  253.27   15.60
   5  -5   3  266.07   20.70
  -6   5  -3   40.90   10.30
  -6   5  -3   25.80    7.10
  -7   5  -3   39.50    7.70
  -7   5  -3   31.90   10.10
  -8   5  -3   11.90    9.50
   4   4  -3  198.38   12.00
   3   4  -3  297.27   15.20
   2   4  -3  225.48   11.80
   1   4  -3  404.26   18.90
  -1  -4   3  427.46   19.20
   0   4  -3  101.49    7.70
   0  -4   3  107.19    8.70
  -1   4  -3 1685.33   69.79
   1  -4   3 1712.23   71.29
  -2   4  -3  831.12   35.60
   2  -4   3  839.62   38.20
  -3   4  -3  457.95   21.40
   3  -4   3  470.35   24.60
  -4   4  -3  393.46   19.80
  -4   4  -3  409.46   18.50
   4  -4   3  399.46   23.70
  -5   4  -3   24.80    8.10
  -5   4  -3   26.20    5.90
  -6   4  -3   37.00    9.40
  -6   4  -3   20.20    6.00
  -7   4  -3   20.40    8.80
  -8   4  -3   65.49   12.90
   5   3  -3  209.58   12.70
   4   3  -3  320.87   16.10
   3   3  -3  133.19    8.70
   2   3  -3  530.75   23.60
   1   3  -3  407.96   18.80
  -1  -3   3  430.26   18.60
   0   3  -3 1473.45   59.99
   0  -3   3 1448.16   60.39
  -1   3  -3 2133.49   84.79
   1  -3   3 2036.90   85.99
  -2   3  -3 1662.93   68.49
   2  -3   3 1684.93   70.69
  -3   3  -3  838.32   36.50
   3  -3   3  884.91   39.80
  -4   3  -3  651.73   27.00
  -4   3  -3  568.64   26.90
  -4   3  -3  574.54   29.70
  -5   3  -3  142.79   13.80
  -5   3  -3  140.99   12.10
  -5   3  -3  164.28   10.90
  -6   3  -3  111.79   10.00
  -6   3  -3  106.49   12.70
  -7   3  -3   43.30   10.30
  -8   3  -3    7.60    8.80
  -8  -2   3   16.10   13.50
   4   2  -3   69.99    6.80
   3   2  -3   27.90    4.50
   2   2  -3  981.30   41.20
   1   2  -3  545.45   23.50
   0   2  -3 1395.26   56.89
   0  -2   3 1393.76   57.29
  -1   2  -3  634.04   27.10
   1  -2   3  644.24   28.60
  -2   2  -3 1102.79   46.30
  -2   2  -3 1092.49   48.00
   2  -2   3 1176.48   49.10
  -3   2  -3 1054.79   46.30
  -3   2  -3 1061.99   44.10
  -4   2  -3  605.24   27.00
  -4   2  -3  625.74   30.00
  -5   2  -3 1154.38   50.79
  -5   2  -3 1068.79   46.90
  -6   2  -3   73.99   10.80
  -7   2  -3  128.39   14.60
  -8   2  -3   48.60   10.90
  -8  -1   3   25.40   11.50
  -7  -1   3   36.70   10.20
   4   1  -3   35.00    5.50
   3   1  -3  197.78   10.80
   2   1  -3  250.57   12.50
   1   1  -3 9999.00  398.56
   0   1  -3 1852.81   77.49
   0   1  -3 1950.50   77.39
   0  -1   3 1948.91   76.99
  -1   1  -3  133.49    6.90
  -1   1  -3  137.39    8.30
  -2   1  -3 2337.67   92.59
  -2   1  -3 2257.97   94.19
  -3   1  -3   95.69    8.50
  -3   1  -3   94.09    6.00
  -4   1  -3  213.08   11.10
  -4   1  -3  215.38   14.20
  -5   1  -3  189.78   14.50
  -5   1  -3  178.38   10.80
  -6   1  -3   24.50    7.80
  -7   1  -3   -0.30    7.90
  -8   0   3    6.90   10.00
  -7   0   3  117.99   14.20
  -6   0   3  135.69   14.00
  -5   0   3   19.80    8.20
  -5   0   3   -0.10    5.10
  -4   0   3  130.59    8.30
   3   0  -3  938.91   38.50
  -3   0   3  863.01   39.70
   2   0  -3  597.84   25.00
  -2   0   3  544.25   25.70
   1   0  -3 6149.88  244.38
   1   0  -3 6241.48  245.18
  -1   0   3 6019.50  245.38
   0   0  -3 2108.89   89.29
   0   0  -3 2254.77   89.79
   0   0   3 2300.57   89.29
  -1   0  -3  540.15   22.00
  -1   0  -3  519.95   23.30
  -2   0  -3 1245.88   52.29
  -3   0  -3  288.67   12.90
  -3   0  -3  294.87   15.40
  -4   0  -3    0.70    4.30
  -4   0  -3    6.30    2.60
  -5   0  -3   88.99   10.00
  -6   0  -3   82.09   11.30
  -7   0  -3   13.70    8.70
  -8   1   3   28.60   11.20
  -7   1   3   11.20    9.60
  -6   1   3  213.78   18.40
  -5   1   3  466.75   25.10
  -5   1   3  431.06   22.10
   4  -1  -3  250.07   14.30
  -4   1   3  240.38   15.70
   3  -1  -3  175.18   10.00
  -3   1   3  169.18   11.80
   2  -1  -3  644.74   26.70
   2  -1  -3  677.43   27.80
  -2   1   3  596.14   28.20
   1  -1  -3  291.27   13.10
   1  -1  -3  285.27   12.50
  -1   1   3  254.57   13.20
   0  -1  -3  992.50   41.90
   0  -1  -3 1031.00   41.30
  -1  -1  -3  182.68   10.00
  -1  -1  -3  157.68    7.50
  -2  -1  -3  440.46   21.00
  -3  -1  -3  225.98   13.20
  -4  -1  -3   59.29    7.50
  -5  -1  -3    7.00    6.20
  -6  -1  -3  109.89   12.10
  -7  -1  -3    1.30    7.80
  -8   2   3   10.10   10.40
  -7   2   3    7.30    9.10
  -6   2   3   59.19   10.40
   5  -2  -3  432.16   22.70
  -5   2   3  403.86   23.70
   4  -2  -3  325.47   17.20
  -4   2   3  316.87   18.50
   3  -2  -3  408.86   19.20
  -3   2   3  413.56   20.70
   2  -2  -3 1811.42   74.09
  -2   2   3 1827.72   74.99
   1  -2  -3 3475.85  135.59
  -1   2   3 3264.47  135.79
   0  -2  -3  701.63   30.10
  -1  -2  -3   39.80    5.20
  -2  -2  -3  158.58   10.50
  -3  -2  -3  218.08   13.20
  -4  -2  -3  679.43   31.80
  -5  -2  -3   11.60    6.00
  -6  -2  -3   50.49    9.00
  -8   3   3   -9.40   10.60
  -8   3   3    8.70    7.90
  -7   3   3   83.49   11.00
  -7   3   3  100.99   14.20
   6  -3  -3  132.79   14.30
  -6   3   3  121.89   13.60
   5  -3  -3  275.57   17.40
  -5   3   3  270.67   18.40
   4  -3  -3  446.06   22.10
  -4   3   3  435.56   22.80
   3  -3  -3  769.42   34.00
  -3   3   3  791.62   35.00
   2  -3  -3 1455.45   62.49
  -2   3   3 1573.44   63.09
   1  -3  -3 3957.40  159.28
   0  -3  -3  392.66   18.50
  -1  -3  -3  164.18   11.00
  -2  -3  -3  541.25   25.50
  -3  -3  -3  466.75   23.20
  -4  -3  -3    7.80    5.70
  -5  -3  -3  103.09   11.50
  -6  -3  -3   15.60    7.40
  -8   4   3   24.70   11.20
  -8   4   3    8.60    8.40
  -7   4   3   19.80    8.60
  -7   4   3   -1.00    8.30
   6  -4  -3  260.57   18.90
  -6   4   3  284.77   20.20
  -6   4   3  261.37   18.30
   5  -4  -3  153.78   13.60
  -5   4   3  144.69   13.90
   4  -4  -3   26.60    6.50
  -4   4   3   32.00    7.40
   3  -4  -3  488.55   23.60
  -3   4   3  507.55   24.20
   2  -4  -3   80.29    7.40
   1  -4  -3  209.08   11.70
   0  -4  -3  146.39    9.90
   0   4   3  146.69    7.20
  -1  -4  -3   64.89    7.20
  -2  -4  -3   54.09    7.10
  -3  -4  -3   27.00    6.80
  -4  -4  -3  204.58   14.60
  -5  -4  -3   37.90    8.20
  -6  -4  -3   65.69   10.30
  -8   5   3    4.20    8.90
  -8   5   3   16.80   10.90
  -7   5   3   94.09   12.30
  -7   5   3   96.89   12.90
   6  -5  -3  129.79   14.90
  -6   5   3  111.59   12.60
  -6   5   3  126.79   14.00
   5  -5  -3  143.79   14.00
  -5   5   3  158.88   13.10
  -5   5   3  138.49   14.00
   4  -5  -3  263.97   17.00
  -4   5   3  261.57   15.80
  -4   5   3  294.07   17.80
   3  -5  -3   66.49    7.80
  -3   5   3   75.39    8.00
   2  -5  -3  346.47   17.50
  -2   5   3  331.87   15.90
   1  -5  -3  248.68   13.30
  -1   5   3  239.48   11.50
   0  -5  -3  262.07   14.10
   0   5   3  248.58   11.40
  -1  -5  -3   37.20    6.20
  -2  -5  -3   35.00    7.00
  -3  -5  -3   42.30    8.20
  -4  -5  -3   59.79    9.30
  -5  -5  -3   15.90    7.30
  -8   6   3   15.10    9.50
   7  -6  -3   37.60   12.50
  -7   6   3   14.90    9.50
  -7   6   3   29.60   10.20
   6  -6  -3  181.58   17.20
  -6   6   3  188.88   16.00
  -6   6   3  151.58   16.00
   5  -6  -3  212.58   17.30
  -5   6   3  230.38   15.80
  -5   6   3  219.18   17.00
   4  -6  -3  307.27   19.20
  -4   6   3  297.17   16.70
   3  -6  -3   80.69    9.10
  -3   6   3   87.19    7.70
   2  -6  -3  217.18   13.80
  -2   6   3  229.08   11.60
   1  -6  -3  169.78   11.30
  -1   6   3  170.98    8.90
   0  -6  -3  142.89   10.60
   0   6   3  140.69    7.30
  -1  -6  -3    4.40    5.20
   1   6   3    1.40    1.80
  -2  -6  -3   -5.30    5.90
  -3  -6  -3   12.00    7.80
  -4  -6  -3   32.20    8.40
  -5  -6  -3   65.69   11.00
   7  -7  -3   94.59   14.30
  -7   7   3  126.59   13.90
  -7   7   3   84.79   12.40
   6  -7  -3    3.60    8.80
  -6   7   3    3.60    8.10
  -6   7   3   20.00    8.30
   5  -7  -3  136.69   14.80
  -5   7   3  116.39   11.30
   4  -7  -3   41.40    9.30
  -4   7   3   52.59    7.10
   3  -7  -3  146.19   12.80
  -3   7   3  146.19    9.90
   2  -7  -3  103.89   10.80
  -2   7   3  118.19    7.70
   1  -7  -3  634.94   31.10
  -1   7   3  683.63   28.20
   0  -7  -3   42.50    7.10
   0   7   3   45.90    4.40
  -1  -7  -3   28.00    6.90
  -2  -7  -3  334.77   21.10
  -3  -7  -3  105.29   12.40
  -4  -7  -3   33.20    9.50
  -5  -7  -3   36.50   10.10
   7  -8  -3   53.59   13.30
  -7   8   3   39.90   10.30
   6  -8  -3   66.99   12.70
  -6   8   3   49.90    9.70
   5  -8  -3   14.70    8.90
  -5   8   3   24.50    7.00
   4  -8  -3   60.99   10.70
  -4   8   3   73.49    8.00
   3  -8  -3   27.90    7.90
  -3   8   3   26.20    5.00
   2  -8  -3   38.30    7.80
  -2   8   3   36.30    4.60
   1  -8  -3    6.70    5.90
  -1   8   3    3.90    2.80
   0  -8  -3  104.79   11.30
   0   8   3  108.59    6.70
  -1  -8  -3   -8.60    6.10
  -2  -8  -3   86.09   11.10
  -3  -8  -3   39.50    9.50
  -4  -8  -3    3.00    8.30
   7  -9  -3   79.99   15.40
   6  -9  -3  102.69   15.30
  -6   9   3   57.69    9.90
   5  -9  -3   33.70   10.50
  -5   9   3   22.40    7.00
   4  -9  -3   67.69   11.00
  -4   9   3   58.39    7.30
   3  -9  -3    5.50    7.30
  -3   9   3   17.20    4.30
   2  -9  -3    4.20    6.40
  -2   9   3    4.30    3.40
   1  -9  -3   46.70    8.30
  -1   9   3   41.90    4.60
   0  -9  -3   70.49   10.20
  -1  -9  -3   66.59   10.00
  -2  -9  -3   33.00    9.40
  -3  -9  -3   34.80    9.60
  -4  -9  -3    1.40    8.10
   6 -10  -3   27.40   12.30
  -6  10   3   15.00    7.60
   5 -10  -3   56.79   12.50
  -5  10   3   52.99    8.10
   4 -10  -3   18.60    8.90
  -4  10   3    9.90    5.20
   3 -10  -3   22.90    8.60
  -3  10   3   20.20    4.80
   2 -10  -3   19.20    7.60
  -2  10   3   24.70    4.30
   1 -10  -3    9.00    7.30
  -1  10   3    6.00    3.40
   0 -10  -3   46.30    9.80
  -1 -10  -3   17.30    8.20
  -2 -10  -3    6.70    8.10
  -3 -10  -3   19.20    9.00
   5 -11  -3   75.29   13.90
  -5  11   3   37.80    7.40
   4 -11  -3   27.80   10.30
  -4  11   3   17.10    5.10
   3 -11  -3   48.30    9.90
  -3  11   3   30.00    5.30
   2 -11  -3   -3.20    6.60
  -2  11   3    7.40    3.80
   1 -11  -3   60.79   10.30
   0 -11  -3    6.70    7.60
  -1 -11  -3   -3.50    7.90
  -2 -11  -3    2.50    8.60
  -4  12   3   14.80    5.60
   3 -12  -3   25.70    9.60
  -3  12   3   27.20    5.20
   2 -12  -3   49.10   10.80
   1 -12  -3    4.80    8.30
   0 -12  -3    0.10    7.90
  -1 -12  -3    3.10    8.80
   0  12  -4    5.10    5.90
  -1  12  -4   63.19    7.90
   1 -12   4   86.19   16.70
  -2  12  -4   47.30    7.40
   2 -12   4   61.39   14.90
  -3  12  -4   32.90    7.20
   3 -12   4   38.50   13.80
   1  11  -4    7.40    7.80
   0  11  -4   24.60    6.40
   0 -11   4   17.20   11.50
  -1  11  -4   19.40    6.00
   1 -11   4   25.10   11.50
  -2  11  -4  143.49   11.60
   2 -11   4  140.39   18.50
  -3  11  -4  115.89   11.00
   3 -11   4  103.49   16.60
  -4  11  -4   18.60    7.10
   4 -11   4   40.20   14.30
   1  10  -4  278.57   16.60
   0  10  -4   30.60    6.60
   0 -10   4   33.20   10.80
  -1  10  -4   23.40    6.20
   1 -10   4   35.80   11.20
  -2  10  -4  283.67   16.40
   2 -10   4  290.37   23.90
  -3  10  -4  104.69   10.00
   3 -10   4   99.29   16.20
  -4  10  -4  136.29   12.70
   4 -10   4  111.69   17.20
  -5  10  -4    9.10    7.30
   5 -10   4   18.80   11.80
   2   9  -4   16.10    5.80
   1   9  -4    1.70    5.00
  -1  -9   4    0.70    7.20
   0   9  -4   22.30    5.90
   0  -9   4   26.70    9.60
  -1   9  -4   49.20    7.00
   1  -9   4   70.09   12.30
  -2   9  -4   28.30    6.30
   2  -9   4   29.80   10.90
  -3   9  -4  602.84   27.90
   3  -9   4  529.15   34.20
  -4   9  -4  107.79   10.50
   4  -9   4  113.49   17.50
  -5   9  -4    9.50    6.80
   5  -9   4   11.70   10.80
  -6   9  -4   52.19    9.30
   6  -9   4   33.80   13.60
   2   8  -4   94.69    9.20
   1   8  -4  176.28   12.20
  -1  -8   4  164.98   14.40
   0   8  -4  718.03   31.90
   0  -8   4  676.73   35.30
  -1   8  -4  643.84   29.80
   1  -8   4  641.84   34.10
  -2   8  -4  162.18   11.60
   2  -8   4  193.78   18.40
  -3   8  -4  161.38   12.40
   3  -8   4  187.68   19.20
  -4   8  -4  115.89   11.10
   4  -8   4  103.49   15.60
  -5   8  -4   44.80    7.90
   5  -8   4   34.70   12.60
  -6   8  -4   23.00    7.50
   6  -8   4   43.20   13.40
  -7   8  -4   23.70    8.00
   3   7  -4   25.00    5.60
   2   7  -4  137.19   10.00
  -2  -7   4  123.69   11.10
   1   7  -4  131.09   10.30
  -1  -7   4  138.19   11.90
   0   7  -4   78.79    7.70
   0  -7   4   67.39    9.80
  -1   7  -4 1023.50   43.90
   1  -7   4  989.40   47.10
  -2   7  -4  129.69   10.40
   2  -7   4  128.39   14.50
  -3   7  -4  144.09   11.10
   3  -7   4  142.79   15.70
  -4   7  -4  214.08   13.60
   4  -7   4  171.88   19.20
  -5   7  -4   21.30    6.40
   5  -7   4   15.40   10.30
  -6   7  -4   64.99   12.20
  -6   7  -4   51.69    8.50
   6  -7   4   47.80   13.20
  -7   7  -4   75.59    9.70
  -7   7  -4  116.59   16.00
   4   6  -4   58.39    7.80
   3   6  -4   76.19    7.60
   2   6  -4  112.79    9.10
   1   6  -4  345.17   17.60
  -1  -6   4  346.87   18.40
   0   6  -4  466.35   21.90
   0  -6   4  444.56   23.50
  -1   6  -4   90.39    8.50
   1  -6   4  104.09   11.40
  -2   6  -4   72.89    7.50
   2  -6   4   88.79   11.40
  -3   6  -4  233.38   13.50
   3  -6   4  230.68   18.70
  -4   6  -4  684.63   30.70
   4  -6   4  633.04   35.80
  -5   6  -4  113.29   10.60
   5  -6   4  110.99   15.20
  -6   6  -4   73.49    8.90
  -6   6  -4   69.49   12.30
  -7   6  -4   67.59    9.00
  -7   6  -4   66.19   12.50
   4   5  -4   96.69    9.50
   3   5  -4  206.38   12.60
   2   5  -4  442.06   20.90
   1   5  -4  294.27   15.50
  -1  -5   4  317.47   16.10
   0   5  -4   16.20    4.20
   0  -5   4   17.20    5.40
  -1   5  -4  178.78   10.90
   1  -5   4  168.58   12.90
  -2   5  -4  160.48   10.00
   2  -5   4  144.59   13.30
  -3   5  -4   27.00    5.10
   3  -5   4   21.40    8.10
  -4   5  -4  640.44   28.60
   4  -5   4  590.44   32.90
  -5   5  -4  141.79   10.90
  -5   5  -4  132.09   14.80
   5  -5   4  146.39   16.10
  -6   5  -4    6.90    7.60
  -6   5  -4    3.10    5.10
  -7   5  -4    8.10    9.30
   5   4  -4  218.88   13.80
   4   4  -4  144.89   11.00
   3   4  -4  137.09   10.00
   2   4  -4  812.32   35.10
   1   4  -4   66.69    6.70
  -1  -4   4   69.69    6.70
   0   4  -4 1008.30   43.80
   0  -4   4 1064.19   44.70
  -1   4  -4  621.74   27.40
   1  -4   4  616.44   29.20
  -2   4  -4   83.79    7.00
   2  -4   4   82.69    9.30
  -3   4  -4  939.61   39.30
   3  -4   4  889.31   42.80
  -4   4  -4  406.96   20.00
  -4   4  -4  427.06   23.60
   4  -4   4  409.26   25.20
  -5   4  -4  256.67   14.20
  -5   4  -4  238.08   18.10
  -6   4  -4   10.60    5.20
  -6   4  -4   16.40    8.20
  -7   4  -4   21.80    9.20
   5   3  -4  266.37   15.20
   4   3  -4   68.49    7.50
   3   3  -4  168.58   10.90
   2   3  -4 1001.20   42.40
   1   3  -4  906.31   39.40
  -1  -3   4  954.70   38.90
   0   3  -4   10.60    3.70
   0  -3   4    3.80    4.10
  -1   3  -4  586.94   25.80
   1  -3   4  587.84   27.50
  -2   3  -4  435.16   20.10
   2  -3   4  455.75   22.90
  -3   3  -4   60.29    6.10
  -3   3  -4   71.49    8.50
   3  -3   4   65.59    9.40
  -4   3  -4   96.19   10.70
  -4   3  -4  104.79    9.10
  -4   3  -4   94.09    7.80
  -5   3  -4  328.57   16.80
  -5   3  -4  334.47   21.00
  -6   3  -4   57.89   10.50
  -6   3  -4   35.80    6.10
  -7   3  -4    1.40    8.00
  -8   3  -4   71.19   12.40
   5   2  -4  309.57   17.00
   4   2  -4  339.67   17.30
   3   2  -4  435.06   20.60
   2   2  -4 1497.55   61.99
   1   2  -4 1722.13   70.49
   0   2  -4  961.90   40.30
   0   2  -4  961.90   40.60
   0  -2   4  976.10   40.90
   0  -2   4  966.40   39.60
  -1   2  -4 2864.31  116.69
  -1   2  -4 2924.41  117.89
  -2   2  -4  276.17   13.00
  -2   2  -4  269.47   15.00
  -3   2  -4  558.84   24.20
  -3   2  -4  553.14   26.70
  -4   2  -4  332.97   16.20
  -4   2  -4  353.16   19.80
  -5   2  -4  266.57   18.10
  -5   2  -4  248.78   13.40
  -6   2  -4  219.38   17.40
  -7   2  -4   -0.60    7.70
  -8   2  -4   -4.40    9.20
  -8  -1   4    2.30   10.30
  -7  -1   4   12.50    9.10
  -6  -1   4  215.08   17.90
   4   1  -4   35.20    5.70
   3   1  -4  173.68   10.60
   2   1  -4  451.85   20.80
   1   1  -4 1057.59   43.00
  -1  -1   4 1001.00   43.00
   0   1  -4  571.84   25.00
   0   1  -4  582.94   24.80
   0  -1   4  579.34   24.20
  -1   1  -4 1278.97   51.79
  -1   1  -4 1258.57   52.99
  -2   1  -4  222.68   10.60
  -2   1  -4  223.98   12.90
  -3   1  -4   47.80    6.40
  -3   1  -4   46.30    4.30
  -4   1  -4  668.93   28.90
  -4   1  -4  688.23   32.50
  -5   1  -4  493.95   26.50
  -6   1  -4  155.08   14.90
  -7   1  -4   65.19   12.10
  -8   0   4  -11.60    9.20
  -7   0   4   50.99   10.90
  -6   0   4   56.69   10.50
  -5   0   4  175.88   15.70
   4   0  -4  261.77   14.70
  -4   0   4  272.47   17.10
   3   0  -4  517.85   23.60
  -3   0   4  509.95   24.90
   2   0  -4 1419.56   57.29
  -2   0   4 1340.87   57.69
   1   0  -4 3803.22  153.38
   1   0  -4 3814.22  152.58
  -1   0   4 3828.92  153.38
   0   0  -4 1662.43   68.59
   0   0  -4 1716.23   69.19
  -1   0  -4    5.40    2.10
  -1   0  -4    2.30    3.10
  -2   0  -4  355.46   15.50
  -2   0  -4  367.16   17.80
  -3   0  -4  266.77   14.40
  -3   0  -4  242.68   11.40
  -4   0  -4  453.05   23.20
  -5   0  -4  277.57   18.10
  -6   0  -4  148.99   14.80
  -7   0  -4   16.30    8.90
  -8   1   4   90.49   14.10
  -7   1   4   30.60   10.30
  -6   1   4   67.99   11.40
  -5   1   4  220.58   17.00
   4  -1  -4  132.89    9.60
  -4   1   4  135.29   12.00
   3  -1  -4  127.29    9.10
   3  -1  -4  117.29    7.30
  -3   1   4  103.89   10.20
   2  -1  -4  325.07   16.20
   2  -1  -4  331.57   14.70
  -2   1   4  336.17   17.00
   1  -1  -4  917.91   37.60
   1  -1  -4  881.21   37.20
  -1   1   4  885.81   37.70
   0  -1  -4  653.43   28.40
   0  -1  -4  661.63   27.70
  -1  -1  -4  274.47   14.50
  -1  -1  -4  271.77   12.20
  -2  -1  -4  299.57   15.80
  -3  -1  -4  422.06   21.10
  -4  -1  -4   37.00    6.80
  -5  -1  -4   81.49    9.90
  -6  -1  -4   16.30    7.70
  -7  -1  -4    0.10    8.00
  -8   2   4   -0.90   10.60
  -7   2   4    9.70    9.50
  -6   2   4   36.60    9.90
   5  -2  -4   96.09   10.50
  -5   2   4   78.79   11.20
   4  -2  -4   69.39    7.10
  -4   2   4   55.79    8.40
   3  -2  -4  329.17   15.00
  -3   2   4  280.57   16.50
   2  -2  -4  905.41   37.30
  -2   2   4  859.21   38.60
   1  -2  -4 1546.45   62.79
   1  -2  -4 1550.64   62.69
  -1   2   4 1491.15   63.09
   0  -2  -4  968.50   41.20
   0  -2  -4  972.70   40.00
  -1  -2  -4 1058.89   45.40
  -2  -2  -4  324.57   17.00
  -3  -2  -4  359.46   18.90
  -4  -2  -4   98.39   10.00
  -5  -2  -4   12.20    6.20
  -6  -2  -4   10.00    7.00
  -7  -2  -4   21.80    9.30
  -8   3   4   14.80   10.90
  -8   3   4   20.00    9.00
  -7   3   4   18.40    9.70
  -6   3   4   -3.40    8.30
   5  -3  -4  804.42   36.30
  -5   3   4  745.83   37.50
   4  -3  -4  174.28   11.80
  -4   3   4  167.48   13.50
   3  -3  -4  393.36   18.00
  -3   3   4  338.47   19.10
   2  -3  -4 1959.60   76.59
  -2   3   4 1758.62   76.89
   1  -3  -4 1155.28   48.80
   0  -3  -4  489.95   23.10
  -1  -3  -4  223.38   13.30
  -2  -3  -4  392.96   20.20
  -3  -3  -4   29.60    6.50
  -4  -3  -4   84.19    9.80
  -5  -3  -4   10.10    6.50
  -6  -3  -4   11.60    7.90
  -8   4   4   17.30   11.10
  -8   4   4   16.80    9.50
  -7   4   4   34.30   10.50
  -7   4   4   23.80    9.10
   6  -4  -4   50.69    9.50
  -6   4   4   45.00   10.50
   5  -4  -4  242.18   16.30
  -5   4   4  219.58   17.30
   4  -4  -4  371.76   19.80
  -4   4   4  356.26   21.10
   3  -4  -4  178.98   11.70
  -3   4   4  212.08   13.30
   2  -4  -4   55.79    6.10
   1  -4  -4 1511.05   63.19
   0  -4  -4  805.42   35.90
  -1  -4  -4   12.90    4.90
  -2  -4  -4  129.99   11.20
  -3  -4  -4   57.39    8.80
  -4  -4  -4  293.17   18.40
  -5  -4  -4  111.29   12.10
  -6  -4  -4    0.30    7.30
  -8   5   4   -0.90   10.70
  -8   5   4    0.50    9.10
  -7   5   4   12.40    9.40
  -7   5   4   14.50    9.80
   6  -5  -4  320.57   21.80
  -6   5   4  363.76   21.90
  -6   5   4  314.97   22.40
   5  -5  -4   87.09   10.70
  -5   5   4   91.49   11.60
   4  -5  -4  159.98   12.90
  -4   5   4  153.68   14.00
   3  -5  -4   16.60    5.40
   2  -5  -4   79.19    8.30
   1  -5  -4  169.28   10.90
   0  -5  -4    2.20    4.10
   0   5   4    3.40    2.00
  -1  -5  -4  243.68   15.40
  -2  -5  -4   76.79    9.90
  -3  -5  -4  115.99   12.90
  -4  -5  -4   24.00    8.00
  -5  -5  -4   21.20    8.30
  -6  -5  -4   14.70    8.90
  -8   6   4   -3.80   10.50
  -8   6   4    6.50   12.70
  -7   6   4   40.80   11.30
  -7   6   4   51.59   11.00
   6  -6  -4  180.88   17.40
  -6   6   4  176.68   16.70
  -6   6   4  188.08   17.70
   5  -6  -4   87.19   11.50
  -5   6   4   78.99   11.40
  -5   6   4   82.09   10.30
   4  -6  -4   74.69    9.90
  -4   6   4   80.69    8.60
   3  -6  -4   87.99   10.30
  -3   6   4  107.39    8.70
   2  -6  -4   46.10    7.00
  -2   6   4   46.20    5.20
   1  -6  -4   60.19    6.80
  -1   6   4   63.19    5.20
   0  -6  -4  681.33   33.70
   0   6   4  782.12   30.70
  -1  -6  -4  184.08   14.20
  -2  -6  -4   35.10    8.50
  -3  -6  -4   10.90    8.00
  -4  -6  -4   18.80    8.50
  -5  -6  -4   23.40    9.60
  -7   7   4   26.90   10.30
  -7   7   4   27.40   10.50
   6  -7  -4  116.89   14.40
  -6   7   4   98.39   12.70
  -6   7   4   96.39   12.70
   5  -7  -4   33.50    9.30
  -5   7   4   49.70    8.40
   4  -7  -4  256.97   18.30
  -4   7   4  287.87   16.00
   3  -7  -4   59.49    9.00
  -3   7   4   56.29    6.50
   2  -7  -4  217.18   14.70
  -2   7   4  219.48   11.60
   1  -7  -4   49.00    7.30
  -1   7   4   54.09    5.20
   0  -7  -4   98.39   10.80
   0   7   4  109.19    6.40
  -1  -7  -4  112.09   11.60
  -2  -7  -4  182.68   15.70
  -3  -7  -4   17.50    8.30
  -4  -7  -4   18.30    8.90
  -5  -7  -4   12.50    9.20
   7  -8  -4   17.20   12.30
  -7   8   4   14.40   10.10
   6  -8  -4   48.40   12.20
  -6   8   4   65.19   10.60
   5  -8  -4  119.59   14.00
  -5   8   4  103.89   11.00
   4  -8  -4    2.00    6.80
  -4   8   4    2.00    4.90
   3  -8  -4  189.98   15.30
  -3   8   4  198.28   11.70
   2  -8  -4   61.59    9.30
  -2   8   4   64.09    6.30
   1  -8  -4    3.00    5.80
  -1   8   4    2.60    2.70
   0  -8  -4  106.69   12.10
   0   8   4  116.19    7.40
  -1  -8  -4  122.09   13.60
  -2  -8  -4   17.70    8.00
  -3  -8  -4   55.19   10.80
  -4  -8  -4    9.70    8.70
  -5  -8  -4    3.40    8.80
   6  -9  -4   12.70   10.50
  -6   9   4    9.60    7.70
   5  -9  -4   22.30   10.00
  -5   9   4   35.70    7.30
   4  -9  -4   34.40    8.90
  -4   9   4   38.30    6.30
   3  -9  -4   90.29   11.30
  -3   9   4   84.09    7.90
   2  -9  -4   42.50    8.70
  -2   9   4   44.50    5.00
   1  -9  -4   88.99   11.20
  -1   9   4   92.09    6.80
   0  -9  -4   64.39    9.80
  -1  -9  -4  126.09   13.80
  -2  -9  -4  139.89   15.00
  -3  -9  -4   -2.40    8.00
  -4  -9  -4    6.50    8.90
   6 -10  -4    3.60   10.60
  -6  10   4   23.60    9.90
   5 -10  -4   17.70   10.80
  -5  10   4    8.40    6.20
   4 -10  -4   44.80   10.20
  -4  10   4   58.09    7.20
   3 -10  -4    0.50    7.20
  -3  10   4   11.60    4.40
   2 -10  -4   40.50    9.20
  -2  10   4   49.30    5.50
   1 -10  -4    1.20    6.40
   0 -10  -4   56.09   10.00
  -1 -10  -4  100.19   12.60
  -2 -10  -4   70.09   11.50
  -3 -10  -4   16.20   10.10
   5 -11  -4    6.50   10.50
  -5  11   4   26.90    7.10
   4 -11  -4   24.00    9.60
  -4  11   4   13.20    5.40
   3 -11  -4   -2.40    7.20
  -3  11   4    4.70    4.20
   2 -11  -4   19.60    8.10
  -2  11   4   24.30    4.80
   1 -11  -4   31.20    9.20
   0 -11  -4    9.00    8.20
  -1 -11  -4   19.20    9.60
  -2 -11  -4   11.10    9.10
  -4  12   4   30.60    6.10
   3 -12  -4    1.90    7.70
  -3  12   4   18.70    5.20
   2 -12  -4   38.00    9.80
   1 -12  -4   22.90    9.20
   0 -12  -4    3.00    8.10
   0  12  -5   29.50    7.30
  -1  12  -5   28.30    6.90
   1 -12   5   38.60   13.30
  -2  12  -5   12.00    6.30
   2 -12   5   15.50   13.00
  -3  12  -5   69.89   13.20
   3 -12   5  147.09   20.60
   1  11  -5   40.00    7.80
   0  11  -5   52.79    8.40
  -1  11  -5   35.70    7.50
   1 -11   5   57.29   13.80
  -2  11  -5    4.80    5.80
   2 -11   5   -1.40   10.70
  -3  11  -5   29.10    7.40
   3 -11   5   20.20   13.10
  -4  11  -5   37.60    8.30
   4 -11   5   36.40   14.70
   2  10  -5   26.40   11.00
   1  10  -5   -1.50    5.90
   0  10  -5   17.90    6.60
   0 -10   5    8.40    9.20
  -1  10  -5    9.10    5.70
   1 -10   5    4.90    9.10
  -2  10  -5   99.49    9.90
   2 -10   5  111.59   16.70
  -3  10  -5   16.20    6.50
   3 -10   5   19.90   12.00
  -4  10  -5   13.50    6.60
   4 -10   5   30.70   12.50
  -5  10  -5    8.70    7.50
   5 -10   5   -4.80   11.10
   2   9  -5   29.30    6.70
   1   9  -5   34.70    6.90
   0   9  -5  190.38   13.70
   0  -9   5  191.48   18.00
  -1   9  -5   73.89    8.60
   1  -9   5   77.29   12.80
  -2   9  -5   69.89    8.60
   2  -9   5   40.60   11.90
  -3   9  -5   55.39    8.10
   3  -9   5   64.99   14.40
  -4   9  -5   68.29    9.00
   4  -9   5   49.10   14.00
  -5   9  -5   54.19    9.00
   5  -9   5   29.40   13.80
  -6   9  -5   28.70    8.30
   3   8  -5   18.60    6.20
   2   8  -5   13.90    5.60
   1   8  -5  180.78   13.50
  -1  -8   5  177.88   14.40
   0   8  -5  186.08   13.10
   0  -8   5  137.59   15.30
  -1   8  -5   80.59    8.60
   1  -8   5   88.29   12.80
  -2   8  -5   49.99    7.50
   2  -8   5   51.99   11.80
  -3   8  -5   45.50    7.50
   3  -8   5   43.20   12.60
  -4   8  -5  108.99   10.80
   4  -8   5  108.99   15.80
  -5   8  -5   99.09   10.30
   5  -8   5   66.09   14.40
  -6   8  -5    8.70    7.10
  -6   8  -5   -5.20    7.90
   6  -8   5   -3.50   10.60
   3   7  -5   77.99    8.20
   2   7  -5   -2.90    5.20
   1   7  -5  138.99   11.30
  -1  -7   5  130.69   11.90
   0   7  -5  438.56   22.60
   0  -7   5  470.15   25.20
  -1   7  -5  145.69   11.00
   1  -7   5  139.49   14.30
  -2   7  -5    8.80    5.30
   2  -7   5    1.80    8.40
  -3   7  -5   77.29    8.50
   3  -7   5   69.59   12.70
  -4   7  -5  349.17   18.30
   4  -7   5  266.07   23.80
  -5   7  -5   73.79    9.00
   5  -7   5   67.09   13.80
  -6   7  -5   57.99    8.50
  -6   7  -5   43.70   11.00
  -7   7  -5   27.10    7.70
   4   6  -5  162.98   12.60
   3   6  -5   52.29    7.30
   2   6  -5   49.90    6.80
   1   6  -5  145.99   11.50
  -1  -6   5  161.08   12.00
   0   6  -5  266.27   15.20
   0  -6   5  267.37   17.00
  -1   6  -5  389.36   19.40
   1  -6   5  362.06   22.10
  -2   6  -5   65.39    7.40
   2  -6   5   52.49   10.10
  -3   6  -5  146.59   11.20
   3  -6   5  132.59   15.00
  -4   6  -5  130.19   10.90
   4  -6   5  128.99   15.70
  -5   6  -5  139.49   11.60
  -5   6  -5  128.49   14.90
   5  -6   5  124.79   16.20
  -6   6  -5   35.70   10.30
  -6   6  -5   38.00    7.20
  -7   6  -5   55.39   12.60
  -7   6  -5   40.70    8.50
   4   5  -5   12.20    6.20
   3   5  -5  148.89   11.30
   2   5  -5  134.89   10.40
   1   5  -5  198.48   12.30
  -1  -5   5  201.98   12.40
   0   5  -5   -0.10    4.10
   0  -5   5    1.30    5.00
  -1   5  -5 1050.69   42.80
   1  -5   5  915.91   44.30
  -2   5  -5   70.39    7.20
   2  -5   5   69.79    9.80
  -3   5  -5  320.37   16.50
   3  -5   5  284.07   20.30
  -4   5  -5  363.56   22.10
  -4   5  -5  351.36   18.50
   4  -5   5  361.36   24.40
  -5   5  -5   63.49    7.50
  -5   5  -5   79.79   11.30
  -6   5  -5  108.29   10.60
  -6   5  -5  111.29   13.80
  -7   5  -5   16.90   10.00
   5   4  -5  180.38   13.40
   4   4  -5  324.77   18.00
   3   4  -5  264.67   15.30
   2   4  -5  127.39    9.70
   1   4  -5  211.08   12.40
  -1  -4   5  236.98   12.40
   0   4  -5  530.55   24.20
   0  -4   5  524.65   24.90
  -1   4  -5  196.48   10.80
   1  -4   5  160.38   12.50
  -2   4  -5  277.37   14.80
   2  -4   5  296.87   17.80
  -3   4  -5   82.19    7.60
  -3   4  -5   95.19   10.60
   3  -4   5   70.49   10.70
  -4   4  -5   44.00    8.20
  -4   4  -5   48.70    6.20
  -5   4  -5   79.19    7.60
  -5   4  -5   57.49   10.00
  -6   4  -5   20.10    8.00
  -6   4  -5   18.80    5.40
  -7   4  -5   13.70    9.40
   5   3  -5   70.49    8.60
   4   3  -5  159.08   12.10
   3   3  -5   33.50    6.10
   2   3  -5  487.65   22.70
   1   3  -5  231.68   12.20
  -1  -3   5  215.48   11.20
   0   3  -5  525.95   24.00
   0  -3   5  537.15   23.10
   0  -3   5  537.75   24.60
  -1   3  -5  172.18    9.50
   1  -3   5  154.18   11.70
  -2   3  -5  831.02   37.90
  -2   3  -5  848.92   36.00
  -3   3  -5  207.98   13.80
  -3   3  -5  191.38   11.10
  -4   3  -5  429.26   23.60
  -4   3  -5  431.06   20.30
  -5   3  -5  118.19    9.30
  -5   3  -5  139.19   13.90
  -6   3  -5  101.79   13.10
  -7   3  -5   95.69   13.30
  -7  -2   5   10.30    8.90
   5   2  -5  296.27   16.90
   4   2  -5  127.59   10.60
   3   2  -5  125.99    9.80
   2   2  -5 1379.76   57.79
   1   2  -5  288.47   14.20
  -1  -2   5  259.17   14.20
   0   2  -5  669.93   28.60
   0   2  -5  659.73   28.30
   0  -2   5  630.54   27.30
  -1   2  -5  340.57   17.30
  -1   2  -5  345.47   16.00
  -2   2  -5  302.27   16.20
  -2   2  -5  292.47   14.00
  -3   2  -5   23.30    3.80
  -3   2  -5   11.10    4.50
  -4   2  -5   68.89    6.10
  -4   2  -5   50.99    8.50
  -5   2  -5  138.89   14.00
  -5   2  -5  131.99    9.10
  -6   2  -5  132.29   14.70
  -7   2  -5   39.80   10.20
  -8  -1   5   -1.60   16.70
  -7  -1   5   34.00   10.50
  -6  -1   5   10.10    8.30
   5   1  -5  157.08   12.40
  -5  -1   5  194.98   16.10
   4   1  -5   45.40    6.90
  -4  -1   5   33.40    7.90
   3   1  -5  182.88   11.30
  -3  -1   5  154.28   12.60
   2   1  -5   18.00    4.70
  -2  -1   5   18.70    5.40
   1   1  -5 2103.39   83.29
   1   1  -5 2007.30   84.19
  -1  -1   5 2064.69   84.09
   0   1  -5   54.39    5.10
   0   1  -5   58.09    6.10
   0  -1   5   48.40    4.90
  -1   1  -5 1820.52   72.59
  -1   1  -5 1745.03   73.89
  -2   1  -5  172.28    8.80
  -2   1  -5  171.98   11.30
  -3   1  -5  331.97   14.90
  -3   1  -5  316.27   17.90
  -4   1  -5 1374.86   57.49
  -4   1  -5 1423.56   61.19
  -5   1  -5  172.58   14.40
  -6   1  -5   61.79   10.30
  -7   1  -5   40.80   10.80
  -8   0   5   45.10   12.10
  -7   0   5    3.50    9.00
  -6   0   5   36.00   10.00
  -5   0   5  135.99   14.50
   4   0  -5  250.07   14.70
  -4   0   5  274.77   17.20
   3   0  -5   66.59    7.10
  -3   0   5   74.19    8.20
   2   0  -5 2382.66   97.09
  -2   0   5 2363.16   97.39
   1   0  -5  480.75   21.20
   1   0  -5  469.65   20.10
  -1   0   5  434.26   20.70
   0   0  -5 1125.39   46.90
   0   0  -5 1137.29   47.50
  -1   0  -5   41.80    5.70
  -1   0  -5   45.80    4.20
  -2   0  -5  160.28    8.00
  -2   0  -5  155.88   10.60
  -3   0  -5  199.78    9.60
  -3   0  -5  210.38   13.00
  -4   0  -5  513.05   26.20
  -5   0  -5  158.38   14.00
  -6   0  -5  101.99   12.20
  -7   0  -5   15.60    9.10
  -8   1   5   23.20   11.40
  -7   1   5   21.10    9.90
  -6   1   5    7.10    8.00
  -5   1   5  117.39   12.60
  -4   1   5  388.76   21.40
   3  -1  -5  118.89    9.30
  -3   1   5  134.89   10.90
   2  -1  -5  154.78   10.40
   2  -1  -5  175.08    8.80
  -2   1   5  162.58   11.00
   1  -1  -5  606.64   26.30
   1  -1  -5  602.34   25.90
  -1   1   5  569.14   26.10
   0  -1  -5  712.63   30.90
   0  -1  -5  745.63   31.90
  -1  -1  -5  427.36   19.20
  -1  -1  -5  464.85   21.50
  -2  -1  -5  576.84   24.80
  -2  -1  -5  623.14   27.80
  -3  -1  -5   33.30    6.20
  -4  -1  -5  295.57   17.90
  -5  -1  -5   38.90    8.10
  -6  -1  -5   19.50    7.90
  -7  -1  -5    9.70    8.40
  -8   2   5   54.59   13.30
  -7   2   5   69.29   13.40
  -6   2   5   -4.80    8.00
  -5   2   5  197.58   16.20
   4  -2  -5  899.51   38.50
  -4   2   5  882.41   41.10
   3  -2  -5  175.78    9.70
  -3   2   5  164.18   12.10
   2  -2  -5  694.33   31.70
   2  -2  -5  726.33   31.10
  -2   2   5  752.32   32.40
   1  -2  -5 1214.98   50.99
   1  -2  -5 1197.48   50.39
   0  -2  -5  729.83   32.10
   0  -2  -5  711.83   30.50
  -1  -2  -5 2241.78   92.59
  -2  -2  -5  132.39   10.10
  -3  -2  -5  150.78   11.60
  -4  -2  -5  112.99   11.20
  -5  -2  -5   81.99   10.10
  -6  -2  -5    7.40    7.00
  -7  -2  -5   20.50    9.20
  -8   3   5   11.20   11.00
  -7   3   5   56.99   12.60
  -6   3   5  249.08   20.00
   5  -3  -5    9.80    5.70
  -5   3   5   -3.70    7.30
   4  -3  -5   62.29    7.10
  -4   3   5   50.39    8.50
   3  -3  -5  785.52   32.80
  -3   3   5  701.63   34.10
   2  -3  -5 1625.14   70.09
  -2   3   5 1772.72   70.99
   1  -3  -5  792.92   34.70
   0  -3  -5 2389.16   98.59
  -1  -3  -5  456.35   22.70
  -2  -3  -5  533.95   26.20
  -3  -3  -5  484.85   24.90
  -4  -3  -5   32.30    7.70
  -5  -3  -5   65.99    9.60
  -6  -3  -5   20.50    8.00
  -7  -3  -5   54.79   11.30
  -8   4   5   10.00   11.30
  -8   4   5    8.90    9.80
  -7   4   5  119.29   15.50
  -6   4   5   12.60    9.40
   5  -4  -5   12.20    6.40
  -5   4   5   10.30    8.00
   4  -4  -5  248.38   15.00
  -4   4   5  244.88   17.30
   3  -4  -5   73.49    7.70
  -3   4   5   68.69    8.50
   2  -4  -5  411.26   20.00
   1  -4  -5  127.39    9.70
   0  -4  -5  359.56   18.90
  -1  -4  -5   67.79    8.40
  -2  -4  -5  226.68   15.60
  -3  -4  -5   70.59    9.60
  -4  -4  -5  178.78   14.90
  -5  -4  -5    1.90    6.80
  -6  -4  -5   39.80    9.90
  -8   5   5   -1.00    9.80
  -8   5   5    3.20   11.50
  -7   5   5   17.80   10.10
  -7   5   5    0.20   10.30
   6  -5  -5    7.90   10.70
  -6   5   5    6.00    9.20
   5  -5  -5   15.30    7.10
  -5   5   5   19.90    8.60
   4  -5  -5  134.29   12.00
  -4   5   5  155.48   14.30
   3  -5  -5  403.26   21.20
   2  -5  -5  431.56   21.70
   1  -5  -5  113.39    9.80
   0  -5  -5  187.58   13.00
  -1  -5  -5  850.51   39.70
  -2  -5  -5   87.49   10.90
  -3  -5  -5  158.88   15.10
  -4  -5  -5   26.40    8.50
  -5  -5  -5   78.99   11.30
  -6  -5  -5    0.70    8.70
  -7   6   5    7.70   10.10
  -7   6   5   -6.00    9.50
   6  -6  -5   -3.50    7.70
  -6   6   5    2.40    9.00
  -6   6   5    6.40    8.30
   5  -6  -5    9.80    7.40
  -5   6   5   16.90    9.10
   4  -6  -5  157.28   13.50
   3  -6  -5  330.97   19.50
   2  -6  -5  144.09   11.90
   1  -6  -5  532.35   26.50
  -1   6   5  549.54   23.60
   0  -6  -5  124.49   12.00
   0   6   5  108.59    6.50
  -1  -6  -5  262.47   18.00
  -2  -6  -5  158.58   15.80
  -3  -6  -5   76.39   11.60
  -4  -6  -5   19.80    8.70
  -5  -6  -5   13.80    8.90
  -7   7   5   66.09   12.50
  -7   7   5   31.10   11.10
   6  -7  -5   13.20    9.40
  -6   7   5   11.00    9.70
  -6   7   5    6.70    8.20
   5  -7  -5   77.89   11.70
  -5   7   5  104.89   11.20
   4  -7  -5    9.70    6.80
  -4   7   5   19.50    6.30
   3  -7  -5  131.99   13.20
  -3   7   5  142.99   10.20
   2  -7  -5  500.15   27.30
  -2   7   5  564.74   24.20
   1  -7  -5   41.40    7.80
  -1   7   5   51.19    4.80
   0  -7  -5  116.29   13.10
   0   7   5  155.08    7.80
  -1  -7  -5  126.09   13.10
  -2  -7  -5   30.70    9.60
  -3  -7  -5   62.59   11.70
  -4  -7  -5   30.20   10.30
  -5  -7  -5   -5.20    8.60
  -7   8   5   43.00   14.80
   6  -8  -5  122.69   15.20
  -6   8   5  120.99   13.50
   5  -8  -5   45.50   10.80
  -5   8   5   55.69    9.10
   4  -8  -5   58.59   10.00
  -4   8   5   82.69    8.70
   3  -8  -5  121.29   13.60
  -3   8   5  136.79    9.80
   2  -8  -5    1.20    6.40
  -2   8   5    3.70    3.50
   1  -8  -5  154.58   13.90
  -1   8   5  164.88    9.10
   0  -8  -5   46.60    8.90
  -1  -8  -5  132.69   13.80
  -2  -8  -5  205.58   18.50
  -3  -8  -5   27.20    9.80
  -4  -8  -5   -1.30    8.40
   6  -9  -5   90.19   13.90
  -6   9   5   38.10    9.90
   5  -9  -5   13.40    9.20
  -5   9   5   -7.00    6.20
   4  -9  -5   48.00   10.10
  -4   9   5   42.90    6.90
   3  -9  -5   43.90    9.10
  -3   9   5   43.10    5.70
   2  -9  -5  153.28   14.80
  -2   9   5  182.98   10.30
   1  -9  -5   37.20    8.50
  -1   9   5   27.60    4.40
   0  -9  -5   20.30    7.80
  -1  -9  -5   91.59   12.80
  -2  -9  -5   75.49   11.90
  -3  -9  -5   29.80   10.50
  -4  -9  -5  -17.10    8.30
   6 -10  -5    3.00   10.60
   5 -10  -5    5.90    9.20
  -5  10   5   14.10    6.60
   4 -10  -5   11.00    8.50
  -4  10   5    9.50    5.20
   3 -10  -5   15.80    7.70
  -3  10   5   13.70    4.60
   2 -10  -5   77.89   11.00
  -2  10   5   89.59    7.90
   1 -10  -5   65.09   10.70
   0 -10  -5   82.69   12.10
  -1 -10  -5   39.00   10.00
  -2 -10  -5   45.60   11.30
  -3 -10  -5    1.10    9.00
   5 -11  -5   30.40   12.30
  -5  11   5   36.30    7.40
   4 -11  -5   -4.50    7.60
  -4  11   5    6.70    5.30
   3 -11  -5   22.40    8.40
  -3  11   5    0.60    4.50
   2 -11  -5   25.80    9.30
   1 -11  -5   28.70    8.60
   0 -11  -5    3.20    8.10
  -1 -11  -5   12.80    9.50
   2 -12  -5    0.80   11.60
   1 -12  -5   -4.80   14.40
   0  12  -6    7.40    6.70
  -1  12  -6    5.30    6.50
  -2  12  -6   -1.40    6.20
   2 -12   6   36.80   14.40
   1  11  -6   36.80    8.40
   0  11  -6   29.90    7.50
  -1  11  -6    6.00    6.60
   1 -11   6   -8.60    9.80
  -2  11  -6    7.20    6.30
   2 -11   6    8.40   11.60
  -3  11  -6   71.69    9.70
   3 -11   6   83.29   17.30
   4 -11   6   12.10   14.20
   2  10  -6   31.80    8.40
   1  10  -6   12.50    7.40
   0  10  -6  100.89   10.90
  -1  10  -6   67.79    9.50
   1 -10   6   85.39   14.30
  -2  10  -6    9.60    6.30
   2 -10   6    4.50   10.50
  -3  10  -6   37.60    8.00
   3 -10   6   27.40   12.90
  -4  10  -6   13.90    7.20
   4 -10   6   48.20   14.80
  -5  10  -6   14.10   11.70
   2   9  -6   14.60    6.80
   1   9  -6   46.10    8.20
   0   9  -6  307.17   18.50
   0  -9   6  279.07   21.30
  -1   9  -6  123.09   12.10
   1  -9   6  101.59   14.60
  -2   9  -6  207.38   14.80
   2  -9   6  190.58   21.10
  -3   9  -6    9.50    6.30
   3  -9   6   25.90   11.90
  -4   9  -6   29.80    7.70
   4  -9   6   32.90   13.00
  -5   9  -6   69.09    9.90
   5  -9   6   59.29   15.30
   3   8  -6   32.30    7.10
   2   8  -6  159.08   12.50
   1   8  -6  214.18   15.10
   0   8  -6   44.40    8.30
   0  -8   6   49.50    9.70
  -1   8  -6  378.26   20.80
   1  -8   6  394.86   25.60
  -2   8  -6   25.90    6.90
   2  -8   6   25.00   10.50
  -3   8  -6   17.10    6.60
   3  -8   6   19.40   10.70
  -4   8  -6   99.39   10.80
   4  -8   6  106.49   16.80
  -5   8  -6   92.19   10.50
   5  -8   6   71.29   14.40
  -6   8  -6    7.10    8.40
  -6   8  -6    4.40    6.70
   4   7  -6  174.48   13.40
   3   7  -6   73.99    8.50
   2   7  -6   13.40    6.70
   1   7  -6  204.18   14.40
  -1  -7   6  183.08   14.20
   0   7  -6  196.08   14.20
   0  -7   6  176.68   15.50
  -1   7  -6   25.80    6.50
   1  -7   6   16.20    8.60
  -2   7  -6   83.09    9.10
   2  -7   6   92.79   13.00
  -3   7  -6   96.49    9.80
   3  -7   6   71.89   13.30
  -4   7  -6    6.60    5.60
   4  -7   6    8.80   10.30
  -5   7  -6   76.09   12.00
  -5   7  -6   94.99   10.00
   5  -7   6   81.29   14.90
  -6   7  -6   -4.30    7.30
  -6   7  -6   -3.80    5.80
   4   6  -6   21.00    6.70
   3   6  -6  244.18   15.00
   2   6  -6  121.29   11.40
   1   6  -6   -3.70    5.50
  -1  -6   6    5.50    5.70
   0   6  -6 1320.57   56.79
   0  -6   6 1308.27   57.89
  -1   6  -6  129.89   10.60
   1  -6   6  130.59   13.20
  -2   6  -6   69.09    8.00
   2  -6   6   67.19   11.50
  -3   6  -6  136.59   11.20
   3  -6   6  145.49   15.90
  -4   6  -6   99.29    9.60
  -4   6  -6  106.99   12.90
   4  -6   6   60.09   13.10
  -5   6  -6   33.80    6.80
  -5   6  -6   36.00    9.30
  -6   6  -6  167.98   13.70
  -6   6  -6  195.18   18.10
   5   5  -6  170.38   14.80
   4   5  -6  173.68   13.40
   3   5  -6  245.48   15.10
   2   5  -6  316.97   17.50
   1   5  -6  318.87   17.50
  -1  -5   6  322.17   17.10
   0   5  -6  637.34   29.10
   0  -5   6  612.34   29.60
  -1   5  -6  533.85   24.60
   1  -5   6  497.25   26.50
  -2   5  -6   24.50    5.40
   2  -5   6    5.10    7.10
  -3   5  -6  446.76   21.80
  -3   5  -6  447.16   24.60
   3  -5   6  417.06   26.20
  -4   5  -6  146.49   14.30
  -4   5  -6  165.38   11.40
  -5   5  -6   43.30    8.90
  -5   5  -6   47.80    7.30
  -6   5  -6  177.48   17.80
  -6   5  -6  180.08   13.20
  -7   5  -6   -1.20    8.20
   5   4  -6  343.97   20.50
   4   4  -6   45.10    8.00
   3   4  -6  379.86   20.00
   2   4  -6  237.78   14.20
   1   4  -6  460.65   21.40
  -1  -4   6  426.86   20.50
   0   4  -6   48.80    6.30
   0  -4   6   52.29    6.70
  -1   4  -6  718.53   31.40
   1  -4   6  684.23   32.90
  -2   4  -6  185.68   13.70
  -2   4  -6  203.98   11.60
   2  -4   6  175.68   15.10
  -3   4  -6  121.09   11.70
  -3   4  -6  110.79    9.20
  -4   4  -6  201.88   12.50
  -4   4  -6  203.28   15.60
  -5   4  -6  115.99   10.00
  -5   4  -6  126.99   13.70
  -6   4  -6   -2.00    7.50
  -7   4  -6   25.20   10.00
  -7  -3   6   45.90   11.30
   6   3  -6  164.98   14.70
   5   3  -6  162.08   13.70
   4   3  -6  561.74   27.50
   3   3  -6  310.57   17.20
   2   3  -6 1004.20   43.50
   1   3  -6  123.49    9.20
   1   3  -6  106.59    7.60
  -1  -3   6  124.09    9.40
   0   3  -6 1317.97   55.19
   0   3  -6 1368.16   55.69
   0  -3   6 1267.47   53.79
  -1   3  -6  265.47   15.50
  -1   3  -6  288.57   14.20
  -2   3  -6  461.85   21.10
  -2   3  -6  451.05   23.10
  -3   3  -6  210.18   14.40
  -3   3  -6  194.38   11.50
  -4   3  -6   61.89    9.30
  -4   3  -6   52.59    6.40
  -5   3  -6   30.50    5.50
  -5   3  -6   34.80    8.80
  -6   3  -6   92.89   12.30
  -7   3  -6   66.89   12.00
  -7  -2   6   26.10   10.50
  -6  -2   6   28.90    9.90
   5   2  -6  650.53   30.80
  -5  -2   6  622.24   33.10
   4   2  -6  271.47   16.60
  -4  -2   6  275.87   18.60
   3   2  -6  968.40   41.60
  -3  -2   6  916.01   42.40
   2   2  -6  965.50   41.30
  -2  -2   6  930.91   41.50
   1   2  -6 1618.14   64.79
   1   2  -6 1518.35   63.49
  -1  -2   6 1529.15   64.19
   0   2  -6  121.49    8.20
   0   2  -6  104.89    8.20
   0  -2   6  103.99    6.60
  -1   2  -6  627.44   26.90
  -1   2  -6  598.04   28.20
  -2   2  -6  372.26   19.20
  -2   2  -6  344.87   16.60
  -3   2  -6   71.49    6.20
  -3   2  -6   86.99    9.10
  -4   2  -6   19.30    4.10
  -4   2  -6   17.90    6.70
  -5   2  -6  152.98   14.30
  -6   2  -6   61.89   10.20
  -7   2  -6   80.09   12.80
  -7  -1   6    1.90    9.10
  -6  -1   6   25.70    9.50
   5   1  -6    5.80    6.20
  -5  -1   6    6.90    8.00
   4   1  -6  585.14   27.50
  -4  -1   6  550.24   28.80
   3   1  -6   93.29    9.00
  -3  -1   6  101.19    9.90
   2   1  -6 2052.59   81.99
  -2  -1   6 1902.41   81.79
   1   1  -6 1787.52   72.39
   1   1  -6 1831.52   73.49
  -1  -1   6 1706.23   72.79
   0   1  -6  962.80   41.20
   0   1  -6  979.10   41.60
   0  -1   6  982.60   40.40
  -1   1  -6  336.87   15.90
  -1   1  -6  347.87   17.50
  -2   1  -6   -0.40    3.70
  -2   1  -6    3.40    2.50
  -3   1  -6  419.76   18.80
  -3   1  -6  423.56   22.20
  -4   1  -6   97.09   10.60
  -4   1  -6   71.59    6.20
  -5   1  -6    3.40    5.70
  -6   1  -6    7.50    7.70
  -7   1  -6  164.08   18.00
  -7   0   6   99.59   13.80
  -6   0   6   93.89   12.60
  -5   0   6  200.88   16.70
   4   0  -6  421.66   22.10
  -4   0   6  448.66   23.80
   3   0  -6  241.08   14.00
  -3   0   6  222.58   14.60
   2   0  -6  219.98   13.20
  -2   0   6  238.98   13.60
   1   0  -6   90.99    8.00
   1   0  -6   83.69    6.80
  -1   0   6   92.39    7.70
   0   0  -6  225.58   12.30
   0   0  -6  245.58   13.10
  -1   0  -6  297.47   14.20
  -1   0  -6  305.77   16.20
  -2   0  -6  149.29   11.00
  -2   0  -6  158.28    8.20
  -3   0  -6  188.08   13.30
  -3   0  -6  194.58    9.60
  -4   0  -6  665.13   32.70
  -5   0  -6   10.00    6.50
  -6   0  -6   21.60    8.40
  -7   0  -6    1.60    8.60
  -8   1   6   18.00   12.10
  -7   1   6   49.30   11.70
  -6   1   6   17.80    9.10
  -5   1   6  108.39   12.50
   4  -1  -6  210.88   14.60
  -4   1   6  246.28   16.70
   3  -1  -6  710.93   33.80
  -3   1   6  796.22   35.00
   2  -1  -6  154.78    8.70
   2  -1  -6  151.88   10.70
  -2   1   6  152.48   10.80
   1  -1  -6  448.46   20.50
   1  -1  -6  443.86   20.90
  -1   1   6  436.06   20.60
   0  -1  -6  127.89    8.50
   0  -1  -6  134.69    9.70
  -1  -1  -6  126.49    9.80
  -1  -1  -6  122.39    7.40
  -2  -1  -6  147.79    7.80
  -2  -1  -6  152.08   11.20
  -3  -1  -6   41.10    6.90
  -4  -1  -6  142.09   12.60
  -5  -1  -6   -6.30    5.60
  -6  -1  -6   24.50    8.50
  -7  -1  -6   16.30    9.00
  -8   2   6   -7.60   10.30
  -7   2   6   37.60   11.30
  -6   2   6   45.60   11.00
  -5   2   6  158.88   15.10
   4  -2  -6  324.37   16.40
  -4   2   6  344.87   20.00
   3  -2  -6 1068.29   47.90
   3  -2  -6 1103.69   46.30
  -3   2   6 1146.09   48.70
   2  -2  -6  392.96   20.00
   2  -2  -6  427.76   19.30
  -2   2   6  410.26   20.40
   1  -2  -6  294.97   16.20
   1  -2  -6  309.67   15.40
   0  -2  -6   92.99    8.80
   0  -2  -6   70.09    6.60
  -1  -2  -6  229.48   11.10
  -1  -2  -6  220.38   13.90
  -2  -2  -6  112.69   10.10
  -3  -2  -6   81.69    9.10
  -4  -2  -6   28.10    6.80
  -5  -2  -6   49.50    8.50
  -6  -2  -6   19.10    7.90
  -7  -2  -6   27.90   10.00
  -8   3   6   55.49   13.60
  -7   3   6   67.99   13.00
  -6   3   6  243.28   19.80
  -5   3   6   36.70    9.30
   4  -3  -6  744.63   34.50
  -4   3   6  820.72   37.50
   3  -3  -6  432.36   19.60
  -3   3   6  365.96   20.90
   2  -3  -6  610.54   28.30
  -2   3   6  654.73   29.30
   1  -3  -6  451.15   20.60
   1  -3  -6  427.06   21.50
   0  -3  -6  498.75   21.90
   0  -3  -6  487.15   24.30
  -1  -3  -6  476.95   20.50
  -1  -3  -6  469.65   24.10
  -2  -3  -6  251.07   16.10
  -3  -3  -6   -4.60    5.40
  -4  -3  -6    2.20    5.90
  -5  -3  -6   82.89   11.00
  -6  -3  -6   12.80    7.90
  -8   4   6   16.60   12.30
  -7   4   6  262.37   22.60
  -6   4   6  226.18   19.90
   5  -4  -6   27.40    7.00
  -5   4   6   25.10    9.60
   4  -4  -6  289.47   16.70
  -4   4   6  319.67   19.80
   3  -4  -6  206.48   13.10
  -3   4   6  209.48   14.70
   2  -4  -6  433.86   21.40
   1  -4  -6  615.54   29.00
   0  -4  -6   74.39    8.60
  -1  -4  -6  182.08   14.10
  -2  -4  -6   39.50    8.00
  -3  -4  -6   12.60    6.80
  -4  -4  -6   32.20    8.10
  -5  -4  -6    1.10    7.20
  -6  -4  -6  -10.10    7.70
  -7   5   6   52.89   13.50
  -6   5   6   98.69   13.80
   5  -5  -6   46.00    8.20
  -5   5   6   45.30   10.30
   4  -5  -6   49.20    7.70
  -4   5   6   49.40    9.40
   3  -5  -6  298.37   17.50
   2  -5  -6   83.99    8.70
   1  -5  -6  126.89   11.20
   0  -5  -6   14.10    6.30
  -1  -5  -6  102.19   11.60
  -2  -5  -6   85.99   11.50
  -3  -5  -6  136.19   14.70
  -4  -5  -6   17.00    8.10
  -5  -5  -6    3.80    7.70
  -6  -5  -6   16.40    9.70
  -7   6   6    7.00   10.10
  -7   6   6  -10.90    9.90
  -6   6   6   59.69   11.70
   5  -6  -6   28.00    8.10
  -5   6   6   25.70    9.60
   4  -6  -6   16.00    6.90
   3  -6  -6   72.39    9.60
   2  -6  -6  355.86   20.30
   1  -6  -6   10.80    6.30
   0  -6  -6  206.98   15.80
   0   6   6  195.58   10.00
  -1  -6  -6  138.39   14.90
  -2  -6  -6   11.60    8.70
  -3  -6  -6   17.00    9.10
  -4  -6  -6   18.30    9.20
  -5  -6  -6    3.20    8.70
  -7   7   6    6.50   10.80
  -7   7   6   12.80   11.40
   6  -7  -6   18.00   11.90
  -6   7   6    6.80    9.10
  -6   7   6   15.00    9.50
   5  -7  -6   32.80    9.00
  -5   7   6   31.70    8.50
   4  -7  -6   20.50    7.80
   3  -7  -6   15.40    7.00
   2  -7  -6   17.40    7.20
  -2   7   6   16.70    4.20
   1  -7  -6   51.59    8.60
  -1   7   6   60.69    5.80
   0  -7  -6    7.50    7.80
  -1  -7  -6   27.20    8.80
  -2  -7  -6   12.30    8.40
  -3  -7  -6   54.49   11.80
  -4  -7  -6   -6.60    8.50
  -5  -7  -6    0.10    9.70
   6  -8  -6   24.00   10.70
  -6   8   6   40.60   10.40
   5  -8  -6   22.40    9.30
  -5   8   6   35.40    8.50
   4  -8  -6   24.30    8.40
  -4   8   6   23.20    6.70
   3  -8  -6   57.89    9.80
  -3   8   6   54.39    6.80
   2  -8  -6   10.90    6.90
  -2   8   6    4.90    4.00
   1  -8  -6   86.99   11.00
  -1   8   6   76.79    6.50
   0  -8  -6    5.30    7.10
  -1  -8  -6    9.30    8.10
  -2  -8  -6   56.09   12.00
  -3  -8  -6   15.40    9.80
  -4  -8  -6   -1.10    9.30
   6  -9  -6   41.20   11.70
  -6   9   6   33.90    9.90
   5  -9  -6   71.29   12.40
  -5   9   6   67.59    9.50
   4  -9  -6   34.60    9.40
  -4   9   6   34.30    6.70
   3  -9  -6   59.49   10.60
  -3   9   6   78.69    7.50
   2  -9  -6    4.60    7.30
  -2   9   6    8.90    3.90
   1  -9  -6   83.09   11.20
   0  -9  -6   43.80    9.50
  -1  -9  -6   61.29   11.20
  -2  -9  -6   93.49   13.60
  -3  -9  -6   67.79   13.20
   5 -10  -6   19.70   10.50
  -5  10   6   26.00    7.30
   4 -10  -6   44.70   10.90
  -4  10   6   36.50    6.60
   3 -10  -6   10.10    8.70
  -3  10   6   18.80    5.10
   2 -10  -6   -4.60    6.80
  -2  10   6    3.80    5.10
   1 -10  -6    3.00    7.00
   0 -10  -6    8.20    7.60
  -1 -10  -6   35.90   10.10
  -2 -10  -6   10.50   10.00
   4 -11  -6   13.00    9.00
  -4  11   6    0.50    5.00
   3 -11  -6   14.80    8.40
  -3  11   6   -0.10    4.70
   2 -11  -6   22.80    9.20
   1 -11  -6   -0.20    7.20
   0 -11  -6    7.40    8.80
  -1 -11  -6   10.10   12.10
   1  11  -7   11.10    8.40
   0  11  -7   -8.80    7.10
  -1  11  -7   36.30    8.80
  -2  11  -7   34.10    8.60
   2 -11   7   68.59   15.00
  -3  11  -7   -5.10    7.20
   3 -11   7    9.10   12.50
   2  10  -7   54.39    9.50
   1  10  -7   49.80    9.70
   0  10  -7  145.79   14.60
  -1  10  -7   43.70    9.00
   1 -10   7   24.90   11.20
  -2  10  -7   95.09   10.70
   2 -10   7   85.39   15.70
  -3  10  -7  102.09   11.30
   3 -10   7  120.09   18.00
  -4  10  -7   -0.70    7.00
   4 -10   7   -6.00   12.10
   3   9  -7   96.49   10.70
   2   9  -7   11.10    7.40
   1   9  -7  157.38   14.70
   0   9  -7  225.08   17.20
  -1   9  -7  138.99   13.10
   1  -9   7  162.78   18.50
  -2   9  -7   59.49    9.00
   2  -9   7   48.20   12.40
  -3   9  -7   18.40    7.00
   3  -9   7   12.30   12.10
  -4   9  -7   27.90    8.10
   4  -9   7    5.50   11.80
  -5   9  -7    6.40    7.40
  -5   9  -7   17.60   10.10
   5  -9   7   18.50   13.20
   3   8  -7   66.39    9.20
   2   8  -7  155.28   14.20
   1   8  -7  114.09   11.80
   0   8  -7  327.37   20.40
   0  -8   7  326.17   21.80
  -1   8  -7   66.89    9.80
   1  -8   7   60.99   11.70
  -2   8  -7   24.60    7.40
   2  -8   7   33.10   11.50
  -3   8  -7    9.80    6.40
   3  -8   7   -3.10    9.50
  -4   8  -7   59.69    9.10
   4  -8   7   48.80   13.60
  -5   8  -7   33.00    8.10
  -5   8  -7   44.00   11.10
  -6   8  -7   40.10    8.50
   4   7  -7    7.50    6.70
   3   7  -7   53.99    8.40
   2   7  -7  263.37   17.00
   1   7  -7  137.39   13.50
   0   7  -7   26.80    8.10
   0  -7   7   25.30    8.30
  -1   7  -7  157.68   13.90
   1  -7   7  170.38   16.60
  -2   7  -7    1.70    5.90
   2  -7   7    6.90    9.00
  -3   7  -7  124.99   11.30
   3  -7   7  108.99   15.20
  -4   7  -7   33.20    9.20
  -4   7  -7   51.39    8.00
   4  -7   7   38.70   12.60
  -5   7  -7  110.69   14.60
  -5   7  -7  127.29   11.70
  -6   7  -7   52.89   11.30
  -6   7  -7   97.69   10.30
   4   6  -7  104.29   10.80
   3   6  -7   25.80    7.30
   2   6  -7   69.09    9.30
   1   6  -7  287.67   18.00
  -1  -6   7  288.17   20.70
   0   6  -7  271.27   17.80
   0  -6   7  298.07   18.30
  -1   6  -7  121.89   11.50
   1  -6   7  150.08   14.80
  -2   6  -7   53.89    7.80
   2  -6   7   70.09   11.60
  -3   6  -7  434.86   21.60
  -3   6  -7  427.36   24.60
   3  -6   7  360.76   26.30
  -4   6  -7   76.89    8.70
  -4   6  -7   47.00    9.30
  -5   6  -7   10.20    7.20
  -5   6  -7    9.80    5.70
  -6   6  -7   49.60   10.40
  -6   6  -7   56.19    8.50
   5   5  -7  115.69   12.30
   4   5  -7   18.60    7.40
   3   5  -7  246.48   15.90
   2   5  -7  147.59   12.70
   1   5  -7   67.99    8.40
  -1  -5   7   61.39    7.00
   0   5  -7  513.75   24.90
   0  -5   7  471.15   24.60
  -1   5  -7   19.00    6.20
   1  -5   7   20.40    7.50
  -2   5  -7  482.65   25.10
  -2   5  -7  453.95   22.40
   2  -5   7  433.76   26.30
  -3   5  -7   43.30    8.70
  -3   5  -7   43.20    6.60
  -4   5  -7   47.90    9.00
  -4   5  -7   72.59    8.30
  -5   5  -7   39.00    7.00
  -5   5  -7   35.50    8.80
  -6   5  -7   -2.00    6.90
   6   4  -7  167.48   16.80
  -6  -4   7  213.48   19.70
   5   4  -7   35.30    8.80
   4   4  -7  241.18   16.60
   3   4  -7  137.59   12.10
   2   4  -7  208.78   14.30
   1   4  -7  199.48   11.40
   1   4  -7  191.18   13.00
  -1  -4   7  189.58   12.90
   0   4  -7  796.52   36.30
   0   4  -7  836.92   36.80
  -1   4  -7  548.55   25.90
  -1   4  -7  555.74   27.20
  -2   4  -7  147.99   10.50
  -2   4  -7  157.78   12.50
  -3   4  -7  243.48   14.10
  -3   4  -7  253.37   16.70
  -4   4  -7   33.20    5.80
  -4   4  -7   17.90    6.90
  -5   4  -7   36.90    8.90
  -5   4  -7   39.30    6.40
  -6   4  -7  119.79   14.90
  -7  -3   7   19.70   10.80
   6   3  -7   11.80    7.90
  -6  -3   7   -5.10    9.00
   5   3  -7  151.08   14.40
  -5  -3   7  149.88   15.60
   4   3  -7  109.49   11.10
  -4  -3   7  126.49   13.50
   3   3  -7  229.68   15.00
  -3  -3   7  229.98   17.10
   2   3  -7  245.08   14.90
  -2  -3   7  242.68   15.50
   1   3  -7  479.45   21.80
   1   3  -7  484.65   23.10
  -1  -3   7  467.55   22.20
   0   3  -7   64.99    7.20
   0   3  -7   71.69    7.10
   0  -3   7   58.39    5.30
  -1   3  -7  206.18   13.40
  -1   3  -7  219.48   12.30
  -2   3  -7  300.47   15.50
  -2   3  -7  308.77   17.80
  -3   3  -7  109.89    8.50
  -3   3  -7  112.09   11.50
  -4   3  -7   45.20    5.90
  -4   3  -7   42.20    8.90
  -5   3  -7  112.09   13.20
  -6   3  -7   18.70    7.50
  -7   3  -7   53.09   11.70
  -7  -2   7   23.60   10.60
   6   2  -7   66.59   10.50
  -6  -2   7   90.19   13.10
   5   2  -7  -10.90    6.80
  -5  -2   7   -9.50    8.10
   4   2  -7  174.68   14.00
  -4  -2   7  157.18   15.50
   3   2  -7  332.97   18.80
  -3  -2   7  336.47   19.70
   2   2  -7  262.27   15.30
  -2  -2   7  270.97   15.70
   1   2  -7  177.08   10.40
   1   2  -7  208.18   12.10
  -1  -2   7  171.38   10.80
   0   2  -7  183.38   10.90
   0   2  -7  180.28   10.60
   0  -2   7  163.28    9.10
  -1   2  -7  435.06   20.30
  -1   2  -7  441.66   21.90
  -2   2  -7  294.97   17.60
  -2   2  -7  310.57   15.10
  -3   2  -7  117.89   11.70
  -3   2  -7  110.99    8.10
  -4   2  -7  140.79    9.00
  -4   2  -7  126.19   12.80
  -5   2  -7    2.20    6.00
  -6   2  -7    9.20    6.80
  -7   2  -7  108.69   14.90
  -7  -1   7   59.99   11.70
  -6  -1   7   45.50   10.50
   5   1  -7  300.67   19.40
  -5  -1   7  345.07   21.70
   4   1  -7  153.88   13.10
  -4  -1   7  136.89   13.20
   3   1  -7  481.15   24.50
  -3  -1   7  493.85   24.90
   2   1  -7  747.83   33.00
  -2  -1   7  707.03   32.70
   1   1  -7   68.09    6.40
   1   1  -7   77.99    7.40
  -1  -1   7   79.09    7.10
   0   1  -7   85.09    7.50
   0   1  -7   81.69    7.90
  -1   1  -7   65.89    6.00
  -1   1  -7   68.49    7.50
  -2   1  -7  176.68   12.30
  -2   1  -7  181.08    9.90
  -3   1  -7 1060.99   44.70
  -3   1  -7 1072.69   47.90
  -4   1  -7  137.39   12.70
  -5   1  -7   29.50    8.00
  -6   1  -7  160.78   16.50
  -7   1  -7   -2.30    8.50
  -7   0   7    1.10    8.90
  -6   0   7   81.09   12.20
   5   0  -7  135.69   13.20
  -5   0   7  148.39   14.90
   4   0  -7  209.38   15.10
  -4   0   7  238.68   17.10
   3   0  -7  159.28   12.40
  -3   0   7  181.98   13.50
   2   0  -7    8.20    5.00
  -2   0   7   11.10    5.20
   1   0  -7  150.08   10.30
   1   0  -7  155.88    9.30
  -1   0   7  136.59    9.60
   0   0  -7   98.29    8.30
   0   0  -7   85.09    7.50
  -1   0  -7  292.07   16.40
  -1   0  -7  294.07   14.30
  -2   0  -7  185.58    9.90
  -2   0  -7  189.08   13.20
  -3   0  -7   96.19    6.80
  -3   0  -7  117.79   11.20
  -4   0  -7  194.88   15.20
  -5   0  -7   56.29    9.50
  -6   0  -7   11.00    7.50
  -7   0  -7   20.60   10.30
  -7   1   7   18.60   10.40
  -6   1   7   49.70   11.10
  -5   1   7  158.58   16.20
   4  -1  -7    3.90    6.10
  -4   1   7    3.70    7.10
   3  -1  -7   87.99    9.30
  -3   1   7   99.19    9.80
   2  -1  -7  241.58   12.50
   2  -1  -7  248.48   14.50
  -2   1   7  230.18   14.30
   1  -1  -7   33.80    5.60
   1  -1  -7   42.20    5.50
  -1   1   7   31.70    5.20
   0  -1  -7  658.03   29.80
   0  -1  -7  646.04   28.70
  -1  -1  -7  215.48   13.60
  -1  -1  -7  221.68   11.30
  -2  -1  -7   12.40    5.40
  -2  -1  -7   10.60    2.90
  -3  -1  -7  844.72   39.00
  -4  -1  -7   19.20    6.20
  -5  -1  -7   21.40    7.40
  -6  -1  -7   44.40   10.10
  -7   2   7   -2.90   10.00
  -6   2   7   48.80   10.80
  -5   2   7   49.50    9.90
  -4   2   7   96.29   10.90
   3  -2  -7  335.37   15.90
   3  -2  -7  321.27   18.00
  -3   2   7  307.97   18.50
   2  -2  -7  261.57   15.50
   2  -2  -7  275.07   14.40
  -2   2   7  274.97   15.50
   1  -2  -7   69.09    7.00
   1  -2  -7   68.39    7.40
   0  -2  -7  167.58   10.00
   0  -2  -7  167.48   12.00
  -1  -2  -7   67.29    6.10
  -1  -2  -7   79.19    8.50
  -2  -2  -7  496.25   25.20
  -3  -2  -7  109.89   10.90
  -4  -2  -7   71.49    9.20
  -5  -2  -7   43.20    8.60
  -6  -2  -7   15.90    8.00
  -7   3   7   17.00   10.60
  -6   3   7  285.77   21.80
  -5   3   7  317.37   21.50
   4  -3  -7  135.59   10.10
  -4   3   7  150.08   14.70
   3  -3  -7  215.18   12.30
  -3   3   7  175.08   13.80
   2  -3  -7  117.79    9.80
   2  -3  -7  112.59   10.10
  -2   3   7  120.69   10.50
   1  -3  -7  234.58   13.00
   1  -3  -7  224.08   14.50
   0  -3  -7   70.39    6.60
   0  -3  -7   67.59    8.60
  -1  -3  -7  266.57   17.10
  -1  -3  -7  274.27   13.10
  -2  -3  -7  227.68   15.80
  -3  -3  -7   59.49    8.80
  -4  -3  -7  116.29   12.30
  -5  -3  -7    1.20    6.20
  -6  -3  -7   16.80    8.50
  -7   4   7  131.49   16.80
  -6   4   7   23.40   11.10
  -5   4   7  100.29   13.10
   4  -4  -7  113.49   10.30
  -4   4   7  128.69   13.90
   3  -4  -7   68.19    7.80
  -3   4   7   72.99    9.20
   2  -4  -7  606.14   28.70
   1  -4  -7  111.59   10.80
   0  -4  -7   97.69   10.60
  -1  -4  -7  161.28   14.60
  -2  -4  -7   -1.10    6.50
  -3  -4  -7  214.88   16.40
  -4  -4  -7   72.89   10.70
  -5  -4  -7  146.79   15.30
  -6  -4  -7   58.29   11.40
  -7   5   7    5.00   11.20
  -6   5   7   21.40   10.90
   5  -5  -7   -4.80    7.90
  -5   5   7    9.30    8.90
   4  -5  -7    4.10    5.50
  -4   5   7   16.80    8.40
   3  -5  -7  132.29   11.70
   2  -5  -7  399.96   21.40
   1  -5  -7  691.03   33.50
   0  -5  -7  462.15   25.80
  -1  -5  -7  179.88   16.70
  -2  -5  -7  441.96   26.40
  -3  -5  -7   37.00    8.90
  -4  -5  -7  108.69   12.80
  -5  -5  -7   61.99   10.80
  -7   6   7   36.50   12.40
  -6   6   7   -1.30    9.60
   5  -6  -7   39.30    8.80
  -5   6   7   28.10   10.60
   4  -6  -7   62.99    8.80
   3  -6  -7    7.20    6.30
   2  -6  -7   14.70    6.80
   1  -6  -7  102.19   11.40
   0  -6  -7   43.90    9.20
  -1  -6  -7  147.89   16.90
  -2  -6  -7   99.39   13.20
  -3  -6  -7  221.78   19.60
  -4  -6  -7   52.39   11.40
  -5  -6  -7   16.70   10.10
  -7   7   7    9.30   11.50
  -6   7   7   32.20   10.60
   5  -7  -7   36.60    9.10
   4  -7  -7   49.80    8.70
   3  -7  -7   62.09   10.00
   2  -7  -7   77.49   10.50
   1  -7  -7   75.19   10.60
  -1   7   7   83.59    7.00
   0  -7  -7   50.89    9.70
  -1  -7  -7   27.80    9.30
  -2  -7  -7  137.09   16.60
  -3  -7  -7   81.69   13.40
  -4  -7  -7   -1.00    9.20
  -6   8   7   47.90   11.40
   5  -8  -7    0.60    7.60
  -5   8   7    4.50    7.40
   4  -8  -7   21.30    8.10
  -4   8   7   31.20    7.20
   3  -8  -7   82.69   11.70
  -3   8   7   99.09    9.70
   2  -8  -7   -4.90    6.60
  -2   8   7   -2.60    4.00
   1  -8  -7   18.40    7.70
   0  -8  -7   33.40    9.60
  -1  -8  -7   44.00   10.70
  -2  -8  -7   16.80    9.50
  -3  -8  -7   20.10   10.70
   6  -9  -7   20.50   16.80
  -6   9   7   16.40   14.50
   5  -9  -7   33.40   10.20
  -5   9   7   30.30    8.30
   4  -9  -7   39.00    9.90
  -4   9   7   31.10    7.00
   3  -9  -7   16.70    8.20
  -3   9   7   23.80    5.80
   2  -9  -7  105.49   12.90
  -2   9   7  117.59    9.00
   1  -9  -7   11.00    8.20
   0  -9  -7  152.38   16.30
  -1  -9  -7   -5.10    8.30
  -2  -9  -7   24.30   11.40
  -3  -9  -7    1.10   11.00
   5 -10  -7   36.90   10.80
  -5  10   7   24.50    7.90
   4 -10  -7   20.80    9.50
  -4  10   7   25.70    6.50
   3 -10  -7   38.10   10.60
  -3  10   7   29.30    5.80
   2 -10  -7   12.50    8.10
   1 -10  -7   65.59   11.40
   0 -10  -7   -3.60    7.70
  -1 -10  -7   85.79   13.60
   4 -11  -7   23.30   10.60
  -4  11   7   22.70    6.30
   3 -11  -7   37.50   11.00
   2 -11  -7   34.40   10.00
   1 -11  -7    9.40    8.80
   1  11  -8    0.80    8.10
   0  11  -8   16.20    9.80
  -1  11  -8   25.10    8.60
  -2  11  -8   -2.30    8.20
   2 -11   8   23.50   12.70
   2  10  -8   15.80    8.60
   1  10  -8   83.39   12.10
   0  10  -8   -7.80    8.10
  -1  10  -8   19.40    8.50
  -2  10  -8  124.79   13.00
   2 -10   8  151.18   19.50
  -3  10  -8    7.50    7.50
   3 -10   8  -10.10   11.10
   4 -10   8   -5.40   13.20
   3   9  -8   44.20    9.10
   2   9  -8    7.40    8.50
   1   9  -8   21.30    8.90
   0   9  -8   76.59   11.40
  -1   9  -8  147.09   14.20
   1  -9   8  123.59   16.10
  -2   9  -8   99.09   11.80
   2  -9   8   95.79   15.60
  -3   9  -8   60.89    9.50
   3  -9   8   36.70   13.60
  -4   9  -8   13.70    7.80
  -4   9  -8   16.80   10.00
   4  -9   8  -10.90   11.40
  -5   9  -8  120.69   19.70
   4   8  -8    0.60    7.30
   3   8  -8   30.60    8.20
   2   8  -8   87.19   11.50
   1   8  -8  143.79   14.00
   0   8  -8   82.29   11.20
  -1   8  -8  150.08   14.60
   1  -8   8   93.19   14.30
  -2   8  -8  104.39   11.60
   2  -8   8   91.99   14.30
  -3   8  -8  117.49   11.90
   3  -8   8  100.09   16.00
  -4   8  -8   75.69    9.90
  -4   8  -8   68.69   12.20
  -5   8  -8   24.80    7.70
  -5   8  -8   36.40   10.50
   4   7  -8   -0.40    7.10
   3   7  -8   33.70    8.30
   2   7  -8   43.40    9.10
   1   7  -8   15.20    8.00
   0   7  -8   44.80    9.40
   0  -7   8   35.90    8.70
  -1   7  -8    9.80    7.20
   1  -7   8    7.00    8.20
  -2   7  -8  129.79   12.70
   2  -7   8  143.69   16.10
  -3   7  -8   64.79    9.00
  -3   7  -8   70.69   11.60
   3  -7   8   71.79   13.50
  -4   7  -8  101.39   13.90
  -4   7  -8  124.49   11.70
  -5   7  -8   38.20    7.60
  -5   7  -8   31.70    9.40
  -6   7  -8   43.40    8.10
   5   6  -8    3.00    8.10
   4   6  -8   -0.10    7.10
   3   6  -8   -7.80    6.90
   2   6  -8  217.68   16.40
   1   6  -8  160.38   14.30
   0   6  -8    2.60    7.00
   0  -6   8    3.10    6.30
  -1   6  -8  285.37   18.20
  -1   6  -8  309.27   19.10
   1  -6   8  276.17   19.90
  -2   6  -8  172.58   15.30
  -2   6  -8  173.98   13.50
  -3   6  -8  623.64   32.80
  -3   6  -8  616.44   29.80
  -4   6  -8   40.80    9.00
  -4   6  -8   63.59    8.40
  -5   6  -8   29.60    9.10
  -5   6  -8   28.20    6.90
  -6   6  -8   26.00    9.90
  -6  -5   8   16.50   12.40
   5   5  -8   68.29   10.60
   4   5  -8   34.70    8.30
   3   5  -8   35.80    8.10
   2   5  -8   -2.80    7.00
   1   5  -8  224.68   13.90
   1   5  -8  242.08   16.20
  -1  -5   8  251.77   15.50
   0   5  -8  293.67   17.30
   0   5  -8  275.47   17.00
  -1   5  -8  116.39   11.50
  -1   5  -8  113.89   10.90
  -2   5  -8  308.97   17.30
  -2   5  -8  304.67   19.30
  -3   5  -8  263.77   15.50
  -3   5  -8  260.47   18.10
  -4   5  -8   29.30    8.00
  -4   5  -8   33.50    6.80
  -5   5  -8    2.90    6.70
  -5   5  -8   13.20    5.80
  -6   5  -8    9.80    8.80
   6   4  -8   36.70    9.90
  -6  -4   8   38.00   12.10
   5   4  -8   15.70    8.50
  -5  -4   8   18.20   10.20
   4   4  -8   38.50    8.50
  -4  -4   8   46.40   11.00
   3   4  -8  132.99   13.10
  -3  -4   8  152.28   15.60
   2   4  -8  276.17   17.80
  -2  -4   8  330.37   19.00
   1   4  -8  738.43   34.60
   1   4  -8  737.03   33.10
  -1  -4   8  771.62   33.50
   0   4  -8  674.33   31.10
   0   4  -8  651.53   31.30
  -1   4  -8   90.79    9.20
  -1   4  -8  101.69   10.40
  -2   4  -8  467.85   24.80
  -2   4  -8  459.75   22.70
  -3   4  -8   53.19    8.90
  -3   4  -8   60.89    7.40
  -4   4  -8   86.69    8.60
  -4   4  -8   69.19   10.60
  -5   4  -8   65.49   10.90
  -5   4  -8   59.29    7.50
  -6   4  -8   10.60    6.80
   6   3  -8  124.39   13.70
  -6  -3   8  132.09   15.90
   5   3  -8   36.00    9.30
  -5  -3   8   29.50   10.80
   4   3  -8   45.60    9.00
  -4  -3   8   52.19   10.70
   3   3  -8  175.48   14.10
  -3  -3   8  179.18   15.40
   2   3  -8   64.99    8.80
  -2  -3   8   86.59    9.50
   1   3  -8  257.27   15.40
   1   3  -8  246.08   13.30
  -1  -3   8  246.48   14.10
   0   3  -8  387.56   19.60
   0   3  -8  363.16   19.10
  -1   3  -8  292.07   17.60
  -1   3  -8  314.67   16.20
  -2   3  -8   95.39    8.50
  -2   3  -8  109.29   11.10
  -3   3  -8  337.37   20.80
  -3   3  -8  343.07   17.30
  -4   3  -8  331.87   21.00
  -4   3  -8  314.97   16.60
  -5   3  -8   26.80    7.50
  -6   3  -8   26.10    8.20
  -7  -2   8   13.90   10.10
   6   2  -8   19.50    8.90
  -6  -2   8   21.80   10.80
   5   2  -8  177.68   16.50
  -5  -2   8  187.68   17.60
   4   2  -8   15.40    7.60
  -4  -2   8    3.60    8.20
   3   2  -8   11.40    6.90
  -3  -2   8   14.80    7.40
   2   2  -8  140.59   11.90
  -2  -2   8  158.48   12.50
   1   2  -8  984.40   42.90
   1   2  -8 1035.00   44.30
  -1  -2   8 1008.30   43.00
   0   2  -8 1131.69   49.00
   0   2  -8 1182.68   49.00
   0  -2   8 1112.59   47.20
  -1   2  -8  705.93   32.40
  -1   2  -8  677.53   30.80
  -2   2  -8  327.37   16.20
  -2   2  -8  319.77   18.80
  -3   2  -8  758.92   33.30
  -3   2  -8  767.32   36.80
  -4   2  -8  412.76   23.70
  -4   2  -8  411.76   20.00
  -5   2  -8  118.99   13.50
  -6   2  -8   25.20    8.60
  -7  -1   8   10.30    9.80
   6   1  -8  102.79   12.90
  -6  -1   8  124.39   14.30
   5   1  -8   32.00    8.70
  -5  -1   8   42.60    9.90
   4   1  -8   56.69    9.40
  -4  -1   8   54.69    9.90
   3   1  -8   19.20    7.20
  -3  -1   8   46.50    8.60
   2   1  -8  930.81   42.30
  -2  -1   8  968.90   41.90
   1   1  -8  156.48    9.50
   1   1  -8  139.69   10.80
  -1  -1   8  154.88   10.20
   0   1  -8  981.00   43.00
   0   1  -8 1015.60   43.60
  -1   1  -8  879.71   37.50
  -1   1  -8  853.61   39.20
  -2   1  -8  613.04   29.50
  -2   1  -8  581.54   26.50
  -3   1  -8  332.77   19.80
  -3   1  -8  327.97   16.00
  -4   1  -8  286.47   19.00
  -5   1  -8   78.79   11.20
  -6   1  -8    6.50    7.80
  -7   0   8    4.10   10.10
  -6   0   8   74.49   12.40
   5   0  -8  156.18   14.60
  -5   0   8  154.38   16.60
   4   0  -8   61.19    9.70
  -4   0   8   72.09   10.50
   3   0  -8  477.75   25.30
  -3   0   8  494.35   25.20
   2   0  -8  261.87   13.50
   2   0  -8  288.27   16.40
  -2   0   8  267.97   15.70
   1   0  -8  357.86   17.70
   1   0  -8  353.46   18.50
  -1   0   8  359.96   17.90
   0   0  -8 1046.40   44.30
   0   0  -8 1019.40   44.80
  -1   0  -8 1058.39   47.30
  -1   0  -8 1087.39   45.40
  -2   0  -8   80.59    6.70
  -2   0  -8   77.89    9.20
  -3   0  -8  829.52   39.20
  -4   0  -8  294.87   19.20
  -5   0  -8   87.49   11.50
  -6   0  -8   91.29   12.70
  -7   1   8   -4.30    9.80
  -6   1   8   37.00   11.20
  -5   1   8    8.40    8.90
   4  -1  -8   63.79    9.60
  -4   1   8   62.79   10.00
   3  -1  -8  108.69   10.80
  -3   1   8  106.59   10.90
   2  -1  -8  198.98   13.70
   2  -1  -8  203.88   11.60
  -2   1   8  210.58   13.80
   1  -1  -8  425.36   21.40
   1  -1  -8  439.16   21.30
   0  -1  -8  129.99    9.40
   0  -1  -8  131.99   10.60
  -1  -1  -8  270.97   13.70
  -1  -1  -8  261.27   15.90
  -2  -1  -8  320.47   15.20
  -2  -1  -8  320.67   18.70
  -3  -1  -8   31.20    7.30
  -4  -1  -8  175.98   14.60
  -5  -1  -8   39.50    8.60
  -6  -1  -8   34.90    9.30
  -7   2   8   14.10   10.40
  -6   2   8   70.49   12.10
  -5   2   8   63.69   11.10
   4  -2  -8  143.89   13.50
  -4   2   8  160.28   15.00
   3  -2  -8  268.67   14.50
   3  -2  -8  291.37   17.60
  -3   2   8  302.07   18.00
   2  -2  -8   91.09    9.40
   2  -2  -8   90.89    8.70
  -2   2   8   92.69   10.00
   1  -2  -8  103.99    9.50
   1  -2  -8  109.29   10.20
   0  -2  -8  558.74   27.50
   0  -2  -8  553.84   25.30
  -1  -2  -8  378.56   17.70
  -1  -2  -8  370.16   20.70
  -2  -2  -8  452.75   24.10
  -3  -2  -8  337.87   19.70
  -4  -2  -8   35.00    7.80
  -5  -2  -8   27.70    8.10
  -6  -2  -8    5.30    8.20
  -7   3   8   21.90   11.20
  -6   3   8   41.80   11.50
  -5   3   8  113.69   13.80
  -4   3   8  125.89   13.80
   3  -3  -8   43.90    6.30
  -3   3   8   44.00    8.50
   2  -3  -8    1.50    5.50
   2  -3  -8    5.30    5.70
   1  -3  -8  708.63   31.60
   1  -3  -8  688.03   33.10
   0  -3  -8  112.59    9.10
   0  -3  -8  142.39   13.10
  -1  -3  -8  242.08   17.10
  -1  -3  -8  260.07   13.10
  -2  -3  -8  211.08   15.50
  -3  -3  -8   47.70    8.30
  -4  -3  -8   26.30    7.40
  -5  -3  -8   17.20    7.60
  -6  -3  -8    1.70   13.20
  -7   4   8   44.10   13.20
  -6   4   8   38.60   11.30
  -5   4   8  104.09   13.50
   4  -4  -8   63.19    7.30
  -4   4   8   66.39   10.60
   3  -4  -8  132.09   11.40
  -3   4   8  172.78   14.10
   2  -4  -8   44.50    7.70
   1  -4  -8  303.87   18.70
   0  -4  -8  323.97   20.50
  -1  -4  -8  364.76   22.70
  -2  -4  -8  201.48   16.50
  -3  -4  -8  240.38   17.50
  -4  -4  -8   59.69   10.10
  -5  -4  -8   20.20    8.50
  -7   5   8   26.80   13.20
  -6   5   8   -4.50    9.40
  -5   5   8  246.68   20.20
   4  -5  -8  112.19   11.30
  -4   5   8  151.18   15.30
   3  -5  -8  269.07   17.30
   2  -5  -8  704.23   33.70
   1  -5  -8  326.67   20.60
   0  -5  -8  589.14   31.50
  -1  -5  -8  153.08   16.60
  -2  -5  -8  146.49   15.40
  -3  -5  -8  170.68   16.20
  -4  -5  -8   94.99   13.00
  -5  -5  -8    8.40    8.50
  -7   6   8   10.20   11.90
  -6   6   8   -6.20   10.10
  -5   6   8    1.90    9.30
   4  -6  -8  247.18   16.90
   3  -6  -8   66.59    9.60
   2  -6  -8  126.89   13.10
   1  -6  -8  227.98   17.70
   0  -6  -8  184.28   16.50
  -1  -6  -8   39.30   10.50
  -2  -6  -8  126.69   14.60
  -3  -6  -8   50.59   11.20
  -4  -6  -8   50.19   11.60
   5  -7  -8   66.19   10.90
   4  -7  -8   35.40    8.50
   3  -7  -8  169.78   15.10
   2  -7  -8   25.60    7.80
   1  -7  -8   25.60    8.50
   0  -7  -8   -4.00    7.50
  -1  -7  -8   77.69   12.50
  -2  -7  -8   49.70   12.30
  -3  -7  -8   68.69   13.30
  -4  -7  -8    3.80   10.10
  -6   8   8   35.00   11.20
   5  -8  -8    4.10    7.90
  -5   8   8   27.20    9.00
   4  -8  -8   25.50    8.50
  -4   8   8   11.80    6.90
   3  -8  -8   35.80    8.90
  -3   8   8   57.59    7.60
   2  -8  -8    4.60    7.40
  -2   8   8    2.30    4.70
   1  -8  -8   12.40    7.90
   0  -8  -8   77.59   12.30
  -1  -8  -8   15.20    9.20
  -2  -8  -8   25.40   10.60
  -3  -8  -8    7.50   10.50
   5  -9  -8   43.20   10.60
  -5   9   8   48.40    9.70
   4  -9  -8   19.50    8.80
  -4   9   8   25.90    7.10
   3  -9  -8   11.50    8.30
  -3   9   8   13.80    5.90
   2  -9  -8   49.50   10.40
   1  -9  -8   18.50    8.70
   0  -9  -8   12.20    8.90
  -1  -9  -8   12.30   10.20
  -2  -9  -8    1.20    9.80
   4 -10  -8   31.10   10.00
  -4  10   8   36.60    7.40
   3 -10  -8   43.80   10.70
  -3  10   8   42.90    7.20
   2 -10  -8   77.39   12.50
   1 -10  -8   33.50   10.30
   0 -10  -8   54.39   11.60
   2  10  -9    6.30    9.00
   1  10  -9  211.08   18.50
   0  10  -9   37.90   10.70
  -1  10  -9   11.10    9.60
  -2  10  -9   27.50    9.60
   2 -10   9   38.50   13.10
   3 -10   9    0.20   11.50
   3   9  -9   17.60    8.60
   2   9  -9  120.09   13.90
   1   9  -9    7.80    9.10
   0   9  -9   54.89   11.70
  -1   9  -9  218.88   18.80
  -2   9  -9  190.88   16.90
   2  -9   9  150.48   18.60
  -3   9  -9   91.79   11.60
  -3   9  -9   71.69   13.10
   3  -9   9   58.99   15.40
  -4   9  -9   75.39   14.30
  -4   9  -9  106.09   12.10
   3   8  -9   18.40    8.80
   2   8  -9  302.67   21.20
   1   8  -9  323.67   22.10
   0   8  -9  143.09   15.00
  -1   8  -9   33.90    9.70
   1  -8   9    0.00    9.10
  -2   8  -9  271.27   20.70
  -2   8  -9  225.38   17.60
   2  -8   9  209.68   22.20
  -3   8  -9  118.09   12.90
  -3   8  -9  125.19   15.80
  -4   8  -9   20.40    7.50
  -4   8  -9    2.20    7.60
  -5   8  -9  192.98   15.90
   4   7  -9   24.80    8.80
   3   7  -9    4.50    7.80
   2   7  -9  111.39   13.10
   1   7  -9  666.53   34.30
   0   7  -9   35.20    9.40
  -1   7  -9  149.09   14.30
  -1   7  -9  150.58   14.90
  -2   7  -9   26.00    7.90
  -2   7  -9   21.90    8.10
  -3   7  -9  138.59   15.10
  -3   7  -9  131.19   12.50
  -4   7  -9  202.18   18.10
  -4   7  -9  209.58   15.10
  -5   7  -9   60.39    9.00
  -5   7  -9   46.10   11.30
   5   6  -9   13.10    8.80
  -5  -6   9   39.50   13.10
   4   6  -9   26.10    8.50
  -4  -6   9   55.59   12.50
   3   6  -9  196.58   16.90
  -3  -6   9  269.47   20.50
   2   6  -9  181.38   16.10
  -2  -6   9  174.08   17.20
   1   6  -9  205.78   17.00
   0   6  -9  349.96   20.80
   0   6  -9  400.06   22.80
  -1   6  -9  112.49   12.30
  -1   6  -9  102.79   11.50
  -2   6  -9  123.79   12.50
  -2   6  -9  139.29   13.30
  -3   6  -9  296.67   18.20
  -3   6  -9  307.77   20.70
  -4   6  -9   53.59    8.20
  -4   6  -9   30.40    8.70
  -5   6  -9   38.00    7.60
  -5   6  -9   23.70    8.90
  -6  -5   9   46.70   14.20
   5   5  -9   17.20    8.80
  -5  -5   9   11.80   11.30
   4   5  -9   96.39   12.30
  -4  -5   9  160.48   16.60
   3   5  -9   82.99   11.10
  -3  -5   9  100.49   13.30
   2   5  -9   44.00    9.80
  -2  -5   9   78.79   10.60
   1   5  -9  882.61   41.10
   0   5  -9  548.15   27.10
   0   5  -9  536.45   27.60
  -1   5  -9  263.07   17.50
  -1   5  -9  276.87   17.00
  -2   5  -9  137.99   13.30
  -2   5  -9  151.18   12.00
  -3   5  -9  130.89   13.30
  -3   5  -9  113.69   10.90
  -4   5  -9   29.40    8.60
  -4   5  -9   40.20    7.20
  -5   5  -9   14.70    8.30
  -5   5  -9   26.50    6.50
   6   4  -9   52.79   11.60
  -6  -4   9   67.29   14.60
   5   4  -9  169.38   17.60
  -5  -4   9  270.77   21.80
   4   4  -9   13.20    8.20
  -4  -4   9   25.80   10.80
   3   4  -9   36.20    8.90
  -3  -4   9   40.10   10.00
   2   4  -9  157.98   14.80
  -2  -4   9  195.38   14.10
   1   4  -9  215.08   15.00
  -1  -4   9  177.18   12.60
   0   4  -9  844.42   37.90
   0   4  -9  805.32   37.60
  -1   4  -9  251.97   15.10
  -1   4  -9  227.08   15.90
  -2   4  -9  181.08   12.80
  -2   4  -9  186.18   14.80
  -3   4  -9   21.10    7.00
  -3   4  -9    9.60    5.00
  -4   4  -9   40.00    9.00
  -4   4  -9   44.50    7.00
  -5   4  -9    7.70    6.50
  -6   4  -9    7.60    7.10
   6   3  -9   32.50   10.30
  -6  -3   9   36.50   11.60
   5   3  -9   16.40    9.10
  -5  -3   9   15.10   10.20
   4   3  -9   52.19    9.90
  -4  -3   9   54.49   11.20
   3   3  -9  129.09   12.30
  -3  -3   9  141.59   14.00
   2   3  -9   69.79    9.40
  -2  -3   9   70.59    9.40
   1   3  -9  581.24   27.10
   1   3  -9  612.54   29.00
  -1  -3   9  581.64   26.90
   0   3  -9  173.98   12.20
   0   3  -9  166.68   12.30
  -1   3  -9  117.49   10.20
  -1   3  -9  131.59   11.90
  -2   3  -9  394.86   19.90
  -2   3  -9  407.36   22.80
  -3   3  -9    5.70    4.00
  -3   3  -9    9.20    5.80
  -4   3  -9   85.09    8.50
  -4   3  -9   75.59   10.80
  -5   3  -9  146.69   14.80
  -6   3  -9    5.40    6.60
   6   2  -9   53.49   11.00
  -6  -2   9   74.99   13.20
   5   2  -9   96.39   12.70
  -5  -2   9  126.39   14.80
   4   2  -9  106.39   12.30
  -4  -2   9  139.89   14.10
   3   2  -9   96.49   11.00
  -3  -2   9   96.19   11.50
   2   2  -9  769.72   37.70
  -2  -2   9  856.61   37.30
   1   2  -9  574.74   27.80
   1   2  -9  551.64   26.20
  -1  -2   9  598.84   26.60
   0   2  -9  228.28   14.40
   0   2  -9  239.08   14.40
  -1   2  -9  645.34   29.20
  -1   2  -9  631.94   30.80
  -2   2  -9  114.19    9.10
  -2   2  -9  112.19   11.60
  -3   2  -9   14.40    4.20
  -3   2  -9   15.10    6.10
  -4   2  -9  149.09   13.80
  -5   2  -9    9.70    6.80
  -6   2  -9   37.60    9.70
  -7  -1   9    6.30   10.70
   6   1  -9   16.10    9.80
  -6  -1   9   13.00   10.40
   5   1  -9   83.09   12.00
  -5  -1   9   83.69   12.90
   4   1  -9   22.70    8.80
  -4  -1   9   17.90    9.10
   3   1  -9  454.05   24.80
  -3  -1   9  441.86   24.10
   2   1  -9  192.58   14.60
  -2  -1   9  229.88   14.50
   1   1  -9  162.68   12.50
   1   1  -9  152.68   10.70
  -1  -1   9  178.38   11.10
   0   1  -9  336.87   18.20
   0   1  -9  336.87   18.00
  -1   1  -9   36.20    7.00
  -1   1  -9   34.30    5.60
  -2   1  -9   75.99    9.30
  -2   1  -9   72.19    7.10
  -3   1  -9  182.18   14.60
  -3   1  -9  170.98   10.60
  -4   1  -9   73.59   10.40
  -5   1  -9   38.50    9.20
  -6   1  -9   13.30    8.60
  -7   0   9   15.30   11.10
  -6   0   9  130.49   15.60
   5   0  -9  176.08   15.80
  -5   0   9  196.68   18.30
   4   0  -9  443.76   25.30
  -4   0   9  452.15   25.40
   3   0  -9   12.30    7.40
  -3   0   9   13.30    7.20
   2   0  -9   54.29    6.00
   2   0  -9   51.99    8.60
  -2   0   9   60.89    8.00
   1   0  -9  305.47   16.10
   1   0  -9  288.87   16.80
  -1   0   9  282.77   15.70
   0   0  -9  101.29    9.90
   0   0  -9  105.29    9.50
  -1   0  -9  366.16   17.60
  -1   0  -9  323.67   19.20
  -2   0  -9  475.85   25.20
  -2   0  -9  485.55   22.20
  -3   0  -9   12.30    6.30
  -4   0  -9    1.80    5.50
  -5   0  -9   80.19   11.40
  -6   0  -9   20.20    8.70
  -7   1   9   22.20   11.10
  -6   1   9  152.78   16.00
   5  -1  -9  292.77   21.30
  -5   1   9  339.67   22.10
   4  -1  -9   73.79   10.40
  -4   1   9   81.49   11.10
   3  -1  -9  261.57   17.80
  -3   1   9  285.47   18.70
   2  -1  -9   26.40    7.20
   2  -1  -9   19.00    5.10
  -2   1   9   26.00    6.70
   1  -1  -9   42.40    7.00
   1  -1  -9   29.40    6.80
   0  -1  -9  254.47   14.60
   0  -1  -9  265.47   16.30
  -1  -1  -9  472.35   24.40
  -1  -1  -9  477.25   22.00
  -2  -1  -9  527.55   26.30
  -2  -1  -9  480.05   25.90
  -3  -1  -9  269.27   17.70
  -4  -1  -9   55.29    8.90
  -5  -1  -9  121.69   13.90
  -7   2   9   43.30   12.60
  -6   2   9    3.30    9.30
  -5   2   9   57.89   11.50
   4  -2  -9  154.58   14.20
  -4   2   9  147.59   15.80
   3  -2  -9   18.40    7.40
   3  -2  -9   11.50    4.90
  -3   2   9   10.70    7.60
   2  -2  -9  118.99   11.90
   2  -2  -9   97.69    9.70
  -2   2   9  122.99   11.20
   1  -2  -9  480.85   24.30
   1  -2  -9  437.26   22.90
   0  -2  -9   27.30    5.60
   0  -2  -9   32.20    7.50
  -1  -2  -9  280.57   14.60
  -1  -2  -9  288.37   18.00
  -2  -2  -9   76.89   10.10
  -3  -2  -9  214.58   15.90
  -4  -2  -9   34.20    8.00
  -5  -2  -9   46.10    9.30
  -7   3   9   93.49   15.30
  -6   3   9   73.09   13.90
  -5   3   9   37.70   10.40
  -4   3   9  193.08   16.70
   3  -3  -9   28.50    8.30
   3  -3  -9   15.30    5.10
  -3   3   9   16.90    7.80
   2  -3  -9  153.58   12.80
   2  -3  -9  179.28   13.20
   1  -3  -9   14.40    7.40
   1  -3  -9   32.20    6.10
   0  -3  -9  165.58   14.80
   0  -3  -9  147.29   10.70
  -1  -3  -9  114.09   12.30
  -2  -3  -9  152.88   14.20
  -3  -3  -9   17.40    6.90
  -4  -3  -9    5.80    6.40
  -5  -3  -9   -6.50    6.20
  -7   4   9   -5.60   11.50
  -6   4   9   11.80   10.80
  -5   4   9   74.29   12.30
  -4   4   9   41.20   10.00
   3  -4  -9  133.99   11.50
   2  -4  -9   20.20    6.60
   1  -4  -9   67.19    9.80
   0  -4  -9  122.49   13.40
  -1  -4  -9   38.10    9.60
  -2  -4  -9   66.89   10.40
  -3  -4  -9   18.10    7.50
  -4  -4  -9   -2.70    6.50
  -5  -4  -9   17.50    8.60
  -7   5   9  -12.90   18.90
  -6   5   9   74.29   13.50
  -5   5   9   40.50   11.10
   4  -5  -9  117.79   12.90
   3  -5  -9   37.00    7.50
   2  -5  -9   36.60    8.30
   1  -5  -9   63.49   10.60
   0  -5  -9   54.89   11.10
  -1  -5  -9    2.40    8.10
  -2  -5  -9   28.30    9.40
  -3  -5  -9   27.50    9.00
  -4  -5  -9   54.59   10.80
  -6   6   9   34.10   12.20
   4  -6  -9   -3.00    6.10
   3  -6  -9  318.17   19.80
   2  -6  -9  201.78   15.90
   1  -6  -9   14.20    7.80
   0  -6  -9   61.49   11.20
  -1  -6  -9   -7.70    8.30
  -2  -6  -9   37.00   10.50
  -3  -6  -9   39.90   10.50
  -4  -6  -9   32.90   11.00
   4  -7  -9   56.29    9.90
   3  -7  -9   19.10    8.00
   2  -7  -9  126.09   14.30
   1  -7  -9    2.90    7.70
   0  -7  -9   96.19   13.70
  -1  -7  -9   60.09   12.20
  -2  -7  -9   20.90   10.90
  -3  -7  -9   69.89   13.50
   4  -8  -9   31.40    9.20
   3  -8  -9    4.00    7.60
   2  -8  -9  -14.50    6.60
  -2   8   9   -1.70    5.70
   1  -8  -9    3.20    7.90
   0  -8  -9    0.50    8.90
  -1  -8  -9   31.30   12.10
  -2  -8  -9   17.00   10.40
   5  -9  -9   32.70   15.10
  -5   9   9   26.20    9.80
   4  -9  -9   17.00    8.80
  -4   9   9   28.00    8.00
   3  -9  -9   34.60   10.10
  -3   9   9   46.10    7.80
   2  -9  -9   14.00    8.80
   1  -9  -9   17.90    9.70
   0  -9  -9   10.20    9.90
  -1  -9  -9    8.90   10.20
   4 -10  -9   14.30    8.90
  -4  10   9    3.10    7.10
   3 -10  -9   12.40    9.30
   2 -10  -9   20.30   10.30
   1 -10  -9   18.30    9.70
   1  10 -10   68.99   15.20
   0  10 -10    9.10   10.80
  -1  10 -10   53.79   16.00
   2   9 -10  112.39   14.80
   1   9 -10  464.25   29.00
   0   9 -10  104.69   14.80
  -1   9 -10    6.80    9.30
  -2   9 -10   18.00    9.10
  -2   9 -10    5.20    8.10
  -3   9 -10   24.50    9.40
  -3   9 -10   17.60    9.10
   3   8 -10    8.40    8.90
   2   8 -10    4.80    9.90
   1   8 -10   52.49   12.30
   0   8 -10   70.09   12.60
  -1   8 -10   53.09   11.10
  -2   8 -10   32.20    9.40
  -2   8 -10   44.50    9.80
  -3   8 -10   17.30    8.60
  -3   8 -10   15.10    8.00
  -4   8 -10  184.68   16.00
  -4   8 -10  183.98   19.10
   4   7 -10  114.69   13.30
   3   7 -10    1.60    8.70
   2   7 -10  105.49   13.50
   1   7 -10    3.50    9.30
   0   7 -10  267.77   20.70
  -1   7 -10  120.49   13.60
  -1   7 -10  119.69   13.40
  -2   7 -10  105.69   13.00
  -2   7 -10   93.29   11.70
  -3   7 -10   74.39   10.60
  -3   7 -10   90.39   12.80
  -4   7 -10   95.09   13.50
  -4   7 -10  112.89   12.00
  -5   7 -10  106.89   11.60
   5   6 -10   24.50    9.60
  -5  -6  10   41.30   14.00
   4   6 -10   44.10   10.10
  -4  -6  10   53.79   13.60
   3   6 -10  109.89   13.10
  -3  -6  10  124.49   19.50
   2   6 -10    9.70    9.30
   1   6 -10  131.79   13.90
   0   6 -10  477.05   26.20
  -1   6 -10   80.29   10.50
  -1   6 -10   72.59   10.40
  -2   6 -10  145.99   13.60
  -2   6 -10  157.18   14.80
  -3   6 -10    8.10    6.30
  -3   6 -10   16.70    6.80
  -4   6 -10   91.49   10.60
  -4   6 -10   97.79   12.80
  -5   6 -10   39.60   10.70
  -5   6 -10   51.19    8.40
   5   5 -10   43.80   10.50
  -5  -5  10   59.39   14.20
   4   5 -10  135.89   14.40
  -4  -5  10  181.68   19.40
   3   5 -10   95.79   12.50
  -3  -5  10  162.18   15.50
   2   5 -10   40.90   10.00
   1   5 -10   87.49   11.50
   0   5 -10   48.70    9.10
   0   5 -10   68.19    8.80
  -1   5 -10  178.08   14.60
  -1   5 -10  175.88   14.20
  -2   5 -10   47.40    7.80
  -2   5 -10   52.69    9.50
  -3   5 -10   34.10    6.90
  -3   5 -10   25.10    8.20
  -4   5 -10   39.20    9.50
  -4   5 -10   50.49    8.00
  -5   5 -10    6.90    6.90
   6   4 -10   94.19   14.10
  -6  -4  10  144.69   17.30
   5   4 -10   18.00    9.90
  -5  -4  10   31.40   12.00
   4   4 -10   36.50   10.00
  -4  -4  10   66.39   12.40
   3   4 -10  280.77   19.70
  -3  -4  10  293.27   20.00
   2   4 -10  163.08   15.10
  -2  -4  10  143.09   13.70
   1   4 -10   29.70    8.40
   0   4 -10   20.70    7.10
   0   4 -10   16.00    5.40
  -1   4 -10  246.28   17.00
  -1   4 -10  262.37   16.10
  -2   4 -10   20.70    5.80
  -2   4 -10   15.50    6.90
  -3   4 -10   15.20    6.70
  -3   4 -10   25.60    6.20
  -4   4 -10   82.19   11.30
  -4   4 -10  111.59   10.50
  -5   4 -10   22.50    8.50
   6   3 -10   12.90    9.90
  -6  -3  10   36.20   12.50
   5   3 -10  134.09   15.30
  -5  -3  10  214.18   19.90
   4   3 -10   30.90   10.00
  -4  -3  10   54.49   11.20
   3   3 -10  103.19   12.40
  -3  -3  10  131.99   13.50
   2   3 -10   82.89   10.70
  -2  -3  10   87.29    9.70
   1   3 -10  205.78   14.90
  -1  -3  10  203.58   13.00
   0   3 -10  479.95   24.20
   0   3 -10  459.75   23.80
  -1   3 -10   22.40    6.10
  -1   3 -10   14.70    5.40
  -2   3 -10  363.96   19.20
  -2   3 -10  362.56   21.50
  -3   3 -10   87.69    8.60
  -3   3 -10   59.69    9.50
  -4   3 -10   23.40    7.60
  -5   3 -10   -1.60    6.10
   6   2 -10   20.10   10.30
  -6  -2  10   28.20   11.90
   5   2 -10   44.00   10.40
  -5  -2  10   42.00   11.80
   4   2 -10   20.30    9.20
  -4  -2  10   18.30   10.00
   3   2 -10   40.70    9.00
  -3  -2  10   48.50    9.70
   2   2 -10  261.17   17.80
  -2  -2  10  279.27   16.70
   1   2 -10  136.19   12.50
   1   2 -10  129.79   10.10
  -1  -2  10  135.39   10.40
   0   2 -10  166.78   12.50
   0   2 -10  154.18   12.30
  -1   2 -10  254.87   16.60
  -1   2 -10  244.98   14.80
  -2   2 -10  137.99   10.40
  -2   2 -10  136.49   12.80
  -3   2 -10    3.70    6.00
  -3   2 -10    8.50    4.50
  -4   2 -10   33.00    8.40
  -5   2 -10  100.79   13.20
   6   1 -10   -6.50    9.70
  -6  -1  10   -4.50   10.50
   5   1 -10   53.39   10.90
  -5  -1  10   33.00   11.20
   4   1 -10  122.59   13.90
  -4  -1  10  154.98   14.80
   3   1 -10  274.07   19.20
  -3  -1  10  317.47   19.20
   2   1 -10    6.90    7.10
  -2  -1  10   10.20    6.70
   1   1 -10  248.38   14.20
   1   1 -10  228.68   15.50
  -1  -1  10  239.68   14.20
   0   1 -10  104.49    9.70
   0   1 -10  106.19   10.30
  -1   1 -10   58.99    8.40
  -1   1 -10   59.19    7.40
  -2   1 -10   86.89    8.40
  -2   1 -10   71.99   10.00
  -3   1 -10  154.28   14.40
  -4   1 -10   14.80    7.20
  -5   1 -10   65.39   10.90
  -6   0  10   23.30   10.60
   5   0 -10   45.90   10.70
  -5   0  10   56.19   11.30
   4   0 -10   35.70    9.50
  -4   0  10   50.19    9.90
   3   0 -10   12.80    8.00
  -3   0  10    8.80    7.50
   2   0 -10  286.87   18.50
  -2   0  10  293.87   17.30
   1   0 -10  100.79   10.30
   1   0 -10  100.49   10.00
   0   0 -10  110.29   10.80
   0   0 -10  109.99   10.00
  -1   0 -10   11.70    4.70
  -1   0 -10   17.70    6.10
  -2   0 -10  390.56   18.90
  -2   0 -10  373.56   21.90
  -3   0 -10   24.20    7.00
  -4   0 -10   31.00    7.70
  -5   0 -10   62.19   10.30
  -6   1  10  199.68   20.60
   5  -1 -10   23.10   10.10
  -5   1  10   22.80    9.60
   4  -1 -10  215.88   17.60
  -4   1  10  248.98   18.70
   3  -1 -10    6.10    7.30
  -3   1  10   -5.20    6.80
   2  -1 -10   57.89    9.30
   2  -1 -10   49.50    6.70
  -2   1  10   51.49    8.10
   1  -1 -10  127.29   11.80
   1  -1 -10  118.69   11.60
   0  -1 -10  317.77   18.80
   0  -1 -10  329.87   17.60
  -1  -1 -10   99.69   11.50
  -1  -1 -10  114.49    9.00
  -2  -1 -10  231.98   16.00
  -3  -1 -10   42.60    8.20
  -4  -1 -10   22.80    7.20
  -5  -1 -10   63.99   10.80
  -6   2  10  240.68   21.80
  -5   2  10  219.98   20.20
   4  -2 -10   88.39   11.90
  -4   2  10   77.69   11.60
   3  -2 -10   87.29   10.70
  -3   2  10   65.39   10.20
   2  -2 -10    2.60    6.50
   2  -2 -10    2.80    5.30
   1  -2 -10   95.19   10.60
   1  -2 -10  110.19   10.90
   0  -2 -10  113.09   12.40
   0  -2 -10  108.69    9.80
  -1  -2 -10  132.09   10.60
  -1  -2 -10  157.68   13.70
  -2  -2 -10  198.08   15.50
  -3  -2 -10   43.40    8.40
  -4  -2 -10   46.00    9.30
  -5  -2 -10   88.89   12.20
  -6   3  10  -23.40    9.90
  -5   3  10   40.70   11.40
  -4   3  10   25.00    9.30
   3  -3 -10   41.40    9.50
  -3   3  10   47.90    9.30
   2  -3 -10   88.49    9.80
   2  -3 -10   52.59    8.80
   1  -3 -10   62.19   10.50
   1  -3 -10   52.19    7.50
   0  -3 -10   20.30    5.60
   0  -3 -10   23.80    9.00
  -1  -3 -10    3.40    7.00
  -2  -3 -10  186.98   15.80
  -3  -3 -10  155.98   14.70
  -4  -3 -10   37.20    8.40
  -6   4  10   47.70   12.30
  -5   4  10   25.60   10.50
  -4   4  10  144.29   14.70
   3  -4 -10   13.90    5.60
   2  -4 -10   12.00    7.10
   1  -4 -10   90.89   11.60
   0  -4 -10   14.30    8.60
  -1  -4 -10   76.19   11.40
  -2  -4 -10   57.39   10.40
  -3  -4 -10    6.30    7.10
  -4  -4 -10    6.00    7.30
  -6   5  10    7.80   10.60
  -5   5  10   59.39   12.20
   3  -5 -10   62.69    8.90
   2  -5 -10   12.20    7.10
   1  -5 -10    5.70    8.00
   0  -5 -10   33.80    9.90
  -1  -5 -10   92.79   13.30
  -2  -5 -10   45.70   11.20
  -3  -5 -10   12.60    8.10
  -4  -5 -10   20.10   10.70
  -6   6  10  105.99   16.00
   3  -6 -10  135.99   13.90
   2  -6 -10    3.80    6.90
   1  -6 -10   27.50    9.10
   0  -6 -10   21.90    9.60
  -1  -6 -10   89.79   14.40
  -2  -6 -10  201.38   20.20
  -3  -6 -10   31.70   10.40
   4  -7 -10   18.60    8.60
   3  -7 -10   92.39   11.90
   2  -7 -10   50.49    9.70
   1  -7 -10   37.50   10.00
   0  -7 -10   13.60    9.90
  -1  -7 -10   57.99   12.80
  -2  -7 -10   41.40   12.20
   4  -8 -10   -1.50    7.70
   3  -8 -10   45.40   10.20
   2  -8 -10  103.09   13.50
   1  -8 -10    1.60    9.30
   0  -8 -10   18.70   11.40
  -1  -8 -10   22.50   11.30
   4  -9 -10   15.80    9.30
  -4   9  10   12.20    7.90
   3  -9 -10    6.20    8.40
   2  -9 -10   12.50    9.30
   1  -9 -10    6.50    8.90
   0  -9 -10    0.00    9.20
   1   9 -11   50.59   13.40
   0   9 -11    5.90   10.60
  -1   9 -11   23.70   11.10
   3   8 -11   82.49   13.20
   2   8 -11   28.90   11.70
   1   8 -11   26.20   11.80
   0   8 -11   61.29   12.40
  -1   8 -11   21.60   10.00
  -2   8 -11   41.50   10.10
  -2   8 -11   28.80    8.90
  -3   8 -11   14.40    8.00
  -3   8 -11   19.90    8.40
   3   7 -11   23.50   10.50
   2   7 -11   16.90   11.10
   1   7 -11   42.30   11.90
   0   7 -11  129.89   14.50
  -1   7 -11  104.09   13.60
  -2   7 -11    8.70    7.20
  -2   7 -11   -3.40    7.20
  -3   7 -11  227.38   19.30
  -3   7 -11  222.78   17.50
  -4   7 -11  109.59   14.60
   4   6 -11   13.50    9.70
   3   6 -11   -1.40    9.90
   2   6 -11  128.79   15.10
   1   6 -11   26.60   10.50
   0   6 -11   76.99   11.70
  -1   6 -11  203.98   16.60
  -1   6 -11  206.18   16.90
  -2   6 -11  232.68   16.90
  -2   6 -11  246.98   18.80
  -3   6 -11  112.49   14.20
  -3   6 -11  131.69   12.70
  -4   6 -11  363.86   21.20
  -4   6 -11  348.87   24.80
   5   5 -11   10.50   10.10
  -5  -5  11    5.40   11.40
   4   5 -11   40.70   10.90
  -4  -5  11   46.90   12.50
   3   5 -11    8.50    9.00
   2   5 -11   43.90   11.10
   1   5 -11   22.70    8.90
   0   5 -11   46.70    9.20
  -1   5 -11  180.38   14.90
  -1   5 -11  174.08   14.40
  -2   5 -11  102.79   10.70
  -2   5 -11   95.89   12.40
  -3   5 -11   80.99    9.60
  -3   5 -11   57.59   10.30
  -4   5 -11  110.69   14.10
  -4   5 -11  142.99   12.70
   5   4 -11   70.89   12.60
  -5  -4  11   60.49   13.70
   4   4 -11   64.99   12.20
  -4  -4  11   74.09   13.70
   3   4 -11   10.50    9.30
  -3  -4  11    2.20    8.90
   2   4 -11   15.80    8.10
   1   4 -11  117.29   12.60
   0   4 -11   51.39    8.70
  -1   4 -11   25.20    7.00
  -1   4 -11   36.40    7.30
  -2   4 -11  173.58   13.00
  -2   4 -11  171.68   15.10
  -3   4 -11  186.68   13.30
  -3   4 -11  175.48   15.80
  -4   4 -11   55.99    9.80
  -6  -3  11  112.09   17.40
   5   3 -11   20.90   10.40
  -5  -3  11    2.90   10.90
   4   3 -11   21.20   10.40
  -4  -3  11   24.70   11.20
   3   3 -11   -3.20    7.70
  -3  -3  11    3.20    8.30
   2   3 -11  340.47   22.00
  -2  -3  11  390.86   20.70
   1   3 -11  461.15   25.00
   0   3 -11  143.29   12.70
   0   3 -11  139.29   12.10
  -1   3 -11  413.36   23.30
  -1   3 -11  403.16   21.50
  -2   3 -11  139.89   11.40
  -2   3 -11  159.48   14.10
  -3   3 -11   68.99    8.20
  -3   3 -11   60.79   10.00
  -4   3 -11  132.29   14.80
  -5   3 -11   81.19   12.50
   6   2 -11   15.60   10.50
  -6  -2  11   -3.50   11.00
   5   2 -11   59.49   12.00
  -5  -2  11   57.89   13.60
   4   2 -11   67.09   11.90
  -4  -2  11   67.59   11.80
   3   2 -11  124.49   13.60
  -3  -2  11  147.99   14.70
   2   2 -11   80.79   10.80
  -2  -2  11   95.39   10.30
   1   2 -11   47.20    8.30
  -1  -2  11   30.90    7.30
   0   2 -11  642.54   30.20
   0   2 -11  605.44   30.00
  -1   2 -11   16.80    5.60
  -1   2 -11   11.70    6.00
  -2   2 -11  284.47   16.10
  -2   2 -11  280.37   19.10
  -3   2 -11  217.98   17.30
  -4   2 -11   32.20    8.70
  -5   2 -11   22.80    8.50
   6   1 -11   42.30   12.70
  -6  -1  11   68.29   14.10
   5   1 -11   50.69   11.90
  -5  -1  11   70.69   12.50
   4   1 -11  157.78   15.90
  -4  -1  11  149.29   15.80
   3   1 -11  298.37   21.00
  -3  -1  11  324.87   20.10
   2   1 -11  210.58   16.50
  -2  -1  11  226.88   15.00
   1   1 -11  208.48   14.70
   1   1 -11  181.68   13.40
   0   1 -11   40.80    7.10
   0   1 -11   34.40    6.50
  -1   1 -11  154.68   13.50
  -1   1 -11  178.08   12.40
  -2   1 -11  127.69   10.60
  -2   1 -11  134.89   13.40
  -3   1 -11   27.50    7.90
  -4   1 -11   25.00    8.30
  -5   1 -11    8.20    7.50
   6   0 -11   38.00   12.60
  -6   0  11   32.00   11.70
   5   0 -11   12.70   10.10
  -5   0  11   19.70   10.20
   4   0 -11  116.09   14.10
  -4   0  11  141.29   14.50
   3   0 -11  152.08   15.80
  -3   0  11  198.68   15.80
   2   0 -11   78.89   10.30
  -2   0  11   55.99    8.70
   1   0 -11   51.69    7.70
   1   0 -11   51.19    8.40
   0   0 -11  159.68   12.20
   0   0 -11  148.49   12.70
  -1   0 -11  250.87   15.00
  -1   0 -11  250.57   16.60
  -2   0 -11   53.79    9.00
  -4   0 -11   21.50    8.00
  -5   0 -11   -2.60    7.10
  -6   1  11    1.50   10.40
   5  -1 -11   19.80   10.40
  -5   1  11   18.90   10.40
   4  -1 -11   68.79   11.70
  -4   1  11   63.89   11.50
   3  -1 -11   70.39   11.00
  -3   1  11   72.39   10.40
   2  -1 -11   87.79   10.50
  -2   1  11   75.29    9.50
   1  -1 -11  113.89   11.80
   1  -1 -11   98.09   10.30
   0  -1 -11  183.98   14.80
   0  -1 -11  178.38   12.80
  -1  -1 -11  153.18   13.40
  -1  -1 -11  131.29   10.40
  -2  -1 -11  304.47   19.80
  -3  -1 -11   74.09   10.20
  -4  -1 -11   19.20    7.20
  -6   2  11   52.29   13.80
  -5   2  11    2.10   10.00
   4  -2 -11   70.39   11.70
  -4   2  11   70.19   11.60
   3  -2 -11   13.90    8.40
  -3   2  11   15.90    8.10
   2  -2 -11  151.68   13.10
   2  -2 -11  103.69   10.70
   1  -2 -11  263.37   18.20
   1  -2 -11  259.37   16.50
   0  -2 -11  182.58   15.10
   0  -2 -11  157.98   12.10
  -1  -2 -11  537.85   28.70
  -2  -2 -11   80.59   10.40
  -3  -2 -11   12.90    7.10
  -4  -2 -11   57.49    9.80
  -6   3  11   30.10   12.10
  -5   3  11   -3.10    9.50
  -4   3  11   71.89   11.60
   3  -3 -11  270.87   19.80
   2  -3 -11  262.17   17.10
   2  -3 -11  210.38   15.80
   1  -3 -11   62.99   10.30
   1  -3 -11   53.79    8.10
   0  -3 -11  370.86   23.80
   0  -3 -11  379.16   20.40
  -1  -3 -11   17.50    8.10
  -2  -3 -11  318.57   21.50
  -3  -3 -11  157.48   15.70
  -4  -3 -11   43.60    9.30
  -6   4  11   13.10   11.40
  -5   4  11   15.80   10.80
   2  -4 -11  208.58   16.00
   1  -4 -11   94.89   12.10
   0  -4 -11   12.90    8.90
  -1  -4 -11   96.09   13.50
  -2  -4 -11   13.70    8.30
  -3  -4 -11   36.60    9.30
   3  -5 -11  179.48   16.60
   2  -5 -11  260.27   18.80
   1  -5 -11  116.59   13.70
   0  -5 -11  144.59   16.40
  -1  -5 -11   23.70   10.30
  -2  -5 -11   43.50   11.00
  -3  -5 -11    8.00    8.90
   3  -6 -11   32.70    8.30
   2  -6 -11   40.40    9.40
   1  -6 -11  117.39   14.50
   0  -6 -11   21.40    9.80
  -1  -6 -11   19.60   11.10
  -2  -6 -11   27.40   11.00
   3  -7 -11   33.10    9.00
   2  -7 -11   46.80   10.50
   1  -7 -11   50.29   12.20
   0  -7 -11   24.20   11.60
  -1  -7 -11   31.50   11.70
   3  -8 -11  162.08   17.30
   2  -8 -11    8.60    8.60
   1  -8 -11   63.39   12.70
   0  -8 -11   25.50   11.60
   3  -9 -11   18.90    9.40
   2  -9 -11   49.80   11.40
   1  -9 -11   15.60   11.70
   1   8 -12   11.80   12.40
   0   8 -12   14.00   11.30
  -1   8 -12   73.89   13.00
  -2   8 -12   37.50   15.20
   3   7 -12   60.69   13.90
   2   7 -12  113.99   15.40
   1   7 -12   52.39   13.30
   0   7 -12   60.49   12.40
  -1   7 -12   24.10    9.70
  -2   7 -12  192.98   17.00
  -2   7 -12  155.88   18.10
  -3   7 -12   24.00    8.90
  -3   7 -12   19.60    8.50
   4   6 -12   21.40   14.10
   3   6 -12    5.70   10.90
   2   6 -12    7.40   10.50
   1   6 -12   91.09   13.40
   0   6 -12  137.49   14.80
  -1   6 -12  128.19   13.40
  -2   6 -12  114.39   12.60
  -2   6 -12  111.79   14.00
  -3   6 -12  113.19   12.40
  -3   6 -12  132.19   15.20
  -4   6 -12   34.40    9.60
   4   5 -12    6.10   10.50
   3   5 -12   26.70   10.70
   2   5 -12   86.09   13.30
   1   5 -12  128.49   14.60
   0   5 -12  110.89   12.90
  -1   5 -12   82.09   10.60
  -1   5 -12   46.30   12.70
  -2   5 -12  125.49   12.50
  -2   5 -12  125.19   14.30
  -3   5 -12   34.00    8.00
  -3   5 -12   30.30    8.40
  -4   5 -12   49.50   10.50
   5   4 -12   -0.90   11.20
  -5  -4  12   -3.00   12.30
   4   4 -12    7.80   10.30
  -4  -4  12   -8.20   11.10
   3   4 -12   53.29   11.50
   2   4 -12   23.30    9.60
   1   4 -12   49.80    9.80
   0   4 -12   75.19   10.40
  -1   4 -12   84.89   10.00
  -1   4 -12   80.99   10.60
  -2   4 -12  148.49   12.80
  -2   4 -12  175.68   15.40
  -3   4 -12  124.49   11.50
  -3   4 -12   95.79   12.30
  -4   4 -12   81.09   11.70
   5   3 -12   30.10   11.80
  -5  -3  12   -0.20   11.90
   4   3 -12   90.99   13.90
  -4  -3  12   85.69   13.50
   3   3 -12   23.00   10.10
  -3  -3  12   33.50    9.20
   2   3 -12  236.58   18.50
   1   3 -12   15.40    7.70
   0   3 -12   91.89   10.40
  -1   3 -12   72.29    9.10
  -1   3 -12   69.29    9.80
  -2   3 -12   10.50    5.80
  -2   3 -12   17.60    7.20
  -3   3 -12  154.28   16.00
  -4   3 -12   -3.50    6.50
   5   2 -12   26.50   11.40
  -5  -2  12   34.90   11.30
   4   2 -12  110.59   15.00
  -4  -2  12  167.18   17.40
   3   2 -12  176.78   17.60
  -3  -2  12  186.68   16.60
   2   2 -12  112.49   12.80
  -2  -2  12  100.29   12.00
   1   2 -12  658.63   32.80
   0   2 -12  108.69   10.60
   0   2 -12   67.79    8.90
  -1   2 -12   80.59   10.10
  -1   2 -12   95.29    9.90
  -2   2 -12   58.19    9.80
  -2   2 -12   71.39    8.40
  -3   2 -12   24.20    8.10
  -4   2 -12   59.39   11.00
   5   1 -12   87.59   15.00
  -5  -1  12  106.69   14.00
   4   1 -12   10.00   10.30
  -4  -1  12   -7.40    8.90
   3   1 -12  220.08   19.10
  -3  -1  12  231.18   17.70
   2   1 -12   64.49   10.60
  -2  -1  12   85.59    9.90
   1   1 -12   48.50    8.60
   0   1 -12  117.69   11.70
   0   1 -12   97.89   11.10
  -1   1 -12   41.40    7.00
  -1   1 -12   31.60    7.50
  -2   1 -12   34.80    8.20
  -3   1 -12   25.60    8.10
  -4   1 -12   16.80    7.90
  -6   0  12    9.80   12.20
   5   0 -12   11.60   10.50
  -5   0  12    7.80   10.60
   4   0 -12   85.39   13.30
  -4   0  12   71.19   12.40
   3   0 -12   44.30   10.30
  -3   0  12   29.80    9.10
   2   0 -12  317.27   20.30
  -2   0  12  291.97   18.50
   1   0 -12   45.50    8.60
   0   0 -12   25.60    6.90
   0   0 -12   25.60    6.90
  -1   0 -12    7.20    6.10
  -1   0 -12    5.90    5.10
  -2   0 -12   95.49   11.40
  -3   0 -12   88.89   11.10
  -4   0 -12   52.99   10.20
  -6   1  12   14.30   12.20
   5  -1 -12   97.79   14.90
  -5   1  12  115.09   15.40
   4  -1 -12   76.89   12.50
  -4   1  12   53.09   11.00
   3  -1 -12   91.29   12.40
  -3   1  12   67.49   10.80
   2  -1 -12  135.29   13.40
   1  -1 -12  173.78   14.30
   1  -1 -12  174.38   14.70
   0  -1 -12   48.00    7.70
   0  -1 -12   37.90    8.40
  -1  -1 -12  364.46   22.20
  -2  -1 -12    4.40    6.70
  -3  -1 -12   24.00    8.20
  -4  -1 -12   20.30    8.50
  -6   2  12   18.80   14.20
  -5   2  12   -7.20    9.60
   4  -2 -12   11.10   10.00
  -4   2  12   12.40    9.20
   3  -2 -12   47.60   10.20
  -3   2  12   44.60   10.00
   2  -2 -12  188.08   16.50
   1  -2 -12  196.58   15.20
   1  -2 -12  216.88   17.00
   0  -2 -12  197.38   13.60
   0  -2 -12  186.28   16.40
  -1  -2 -12   35.40    9.10
  -2  -2 -12   18.20    7.90
  -3  -2 -12   51.39    9.90
  -5   3  12    7.20   10.20
  -4   3  12    4.50    9.10
   3  -3 -12   36.30    9.90
   2  -3 -12   87.89   10.90
   1  -3 -12  227.38   18.90
   1  -3 -12  242.38   16.00
   0  -3 -12   55.49   11.00
  -1  -3 -12   63.09   10.70
  -2  -3 -12   34.60    9.50
  -3  -3 -12   14.00    7.90
  -5   4  12   12.80   10.80
   2  -4 -12   40.20    9.10
   1  -4 -12   44.90   10.80
   0  -4 -12   83.29   13.00
  -1  -4 -12   13.10    9.30
  -2  -4 -12   83.49   12.60
  -3  -4 -12   52.79   11.20
   2  -5 -12   10.80    7.80
   1  -5 -12   35.60   10.50
   0  -5 -12    8.50    9.60
  -1  -5 -12   24.20   11.10
  -2  -5 -12   20.10   10.50
   2  -6 -12   -1.30    9.00
   1  -6 -12   18.60   11.20
   0  -6 -12   68.39   13.80
  -1  -6 -12  101.29   15.80
   3  -7 -12    2.50   11.60
   2  -7 -12   12.50    8.70
   1  -7 -12   45.50   11.70
   0  -7 -12   87.39   15.50
  -1  -7 -12    4.20   15.00
   3  -8 -12   24.60    9.50
   2  -8 -12   -5.90    8.40
   1  -8 -12    7.80   10.10
   1   7 -13   -2.00   16.50
   0   7 -13   15.50   10.40
  -1   7 -13   72.89   13.10
   2   6 -13  131.59   17.00
   1   6 -13  176.48   18.20
   0   6 -13   12.30    9.60
  -1   6 -13  107.49   13.20
  -2   6 -13   65.79   10.30
  -3   6 -13   86.19   12.80
   3   5 -13    3.80   11.20
   2   5 -13   58.79   12.80
   1   5 -13   17.80    9.90
   0   5 -13  125.19   14.00
  -1   5 -13   34.20    8.40
  -2   5 -13   74.89   10.10
  -2   5 -13   41.80    9.50
  -3   5 -13   53.99   10.30
  -3   5 -13   51.49    9.10
   4   4 -13    0.40   12.00
   3   4 -13   85.19   13.80
   2   4 -13   25.00   10.70
   1   4 -13  154.38   15.40
   0   4 -13   15.80    8.00
  -1   4 -13   34.30    7.80
  -2   4 -13    5.90    6.80
  -2   4 -13   10.60    6.30
  -3   4 -13   45.40   11.80
  -3   4 -13   48.00   10.50
   4   3 -13   30.00   11.70
  -4  -3  13   22.40   14.40
   3   3 -13   29.00   11.20
   2   3 -13   15.80    9.60
   1   3 -13   27.30    8.70
   0   3 -13    3.10    6.80
  -1   3 -13   14.50    6.70
  -1   3 -13   21.30    7.30
  -2   3 -13   40.30    7.70
  -2   3 -13   31.00    9.00
  -3   3 -13   49.10   10.70
  -5  -2  13   36.10   11.90
   4   2 -13   51.69   13.00
  -4  -2  13   50.99   11.90
   3   2 -13   69.39   12.60
   2   2 -13  133.19   14.40
   1   2 -13   20.70    7.70
   0   2 -13    5.40    6.40
  -1   2 -13   11.00    6.50
  -1   2 -13   -0.10    6.20
  -2   2 -13   47.00    9.60
  -2   2 -13   28.50    8.30
  -3   2 -13   24.30    8.20
   5   1 -13   23.90   12.80
  -5  -1  13   16.70   11.30
   4   1 -13  158.08   17.10
  -4  -1  13  181.08   19.30
   3   1 -13    9.10    9.60
  -3  -1  13   10.50    8.80
   2   1 -13  131.79   13.90
   1   1 -13  324.07   20.60
   0   1 -13   50.59    8.50
  -1   1 -13   47.60    8.10
  -1   1 -13   54.99    9.20
  -2   1 -13   18.00    7.40
  -3   1 -13   11.50    7.80
   5   0 -13   71.49   13.90
  -5   0  13   84.99   14.40
   4   0 -13   -5.30    9.70
  -4   0  13    5.80    9.70
   3   0 -13   54.89   11.80
  -3   0  13   73.19   11.00
   2   0 -13   33.10    9.30
   1   0 -13  253.77   18.10
   0   0 -13  119.89   13.60
   0   0 -13  125.39   11.60
  -1   0 -13   61.19   12.70
  -1   0 -13   67.29   10.20
  -2   0 -13   91.99   12.10
  -3   0 -13   10.90    7.60
   5  -1 -13   -3.90   10.60
  -5   1  13   -3.80   10.40
   4  -1 -13  102.29   14.70
  -4   1  13   83.29   12.90
   3  -1 -13   24.60   10.00
  -3   1  13   14.10    8.80
   2  -1 -13    7.30    8.20
   1  -1 -13   88.99   10.80
   0  -1 -13   60.69   10.20
   0  -1 -13   74.79    9.40
  -1  -1 -13   61.99   10.20
  -2  -1 -13   46.30    9.60
  -3  -1 -13    8.40    8.10
  -5   2  13   62.29   12.70
   4  -2 -13   62.19   13.00
  -4   2  13   42.50   11.20
   3  -2 -13   17.20    9.10
   2  -2 -13   27.10    9.10
   1  -2 -13   12.90    6.80
   1  -2 -13   12.60   10.40
   0  -2 -13  150.78   15.90
  -1  -2 -13   27.60    8.90
  -2  -2 -13   95.29   12.60
  -3  -2 -13   11.50    7.80
  -5   3  13   17.80   11.40
   3  -3 -13   69.69   12.20
   2  -3 -13   26.20    8.40
   1  -3 -13   20.30    9.20
   1  -3 -13   23.80    7.30
   0  -3 -13   78.29   12.90
  -1  -3 -13   68.09   12.30
  -2  -3 -13   16.70    8.90
   1  -4 -13  105.99   14.10
   0  -4 -13   36.40   12.00
  -1  -4 -13  226.88   21.60
  -2  -4 -13   49.40   11.70
   1  -5 -13    0.60   10.20
   0  -5 -13   21.30   11.70
  -1  -5 -13   61.59   13.40
   2  -6 -13   -0.50    8.80
   1  -6 -13  -13.70    9.40
   0  -6 -13   39.10   12.30
  -1  -6 -13    5.30   16.10
   2  -7 -13   16.50    9.20
   1  -7 -13   23.90   11.50
   2   5 -14  101.99   22.20
   1   5 -14  298.37   23.10
   0   5 -14   66.19   12.00
  -1   5 -14   43.80    9.30
  -2   5 -14    2.50    6.70
   2   4 -14  233.78   21.20
   1   4 -14  139.59   15.10
   0   4 -14  207.68   18.00
  -1   4 -14   31.10    8.50
  -2   4 -14   62.39    9.80
  -2   4 -14   59.09   12.20
   3   3 -14  167.08   18.10
   2   3 -14   64.09   12.40
   1   3 -14  314.37   21.90
   0   3 -14  127.49   13.00
  -1   3 -14   47.10    8.80
  -2   3 -14   44.00    9.40
  -2   3 -14   45.00    9.90
  -3   3 -14   55.29   10.90
   3   2 -14   12.00   10.90
   2   2 -14   62.39   11.90
   1   2 -14   57.49   10.60
   0   2 -14   47.60    9.30
  -1   2 -14  105.29   11.40
  -2   2 -14   43.70    9.60
  -3   2 -14    7.10    7.70
   4   1 -14   40.10   12.90
  -4  -1  14   26.10   11.70
   3   1 -14   48.30   11.80
   2   1 -14   87.59   12.80
   1   1 -14   11.50    7.90
   0   1 -14   98.39   11.40
  -1   1 -14   38.30    8.90
  -1   1 -14   46.60   10.20
  -2   1 -14    0.90    6.80
  -3   1 -14   44.60   10.40
   4   0 -14   91.19   15.70
  -4   0  14  117.49   14.30
   3   0 -14   82.49   13.30
  -3   0  14   88.09   12.00
   2   0 -14  177.08   17.60
   1   0 -14  112.49   12.70
   0   0 -14  193.08   15.80
  -1   0 -14  158.28   15.80
  -2   0 -14   36.00    9.30
  -3   0 -14   20.50   10.50
   4  -1 -14   80.49   13.90
  -4   1  14   55.49   12.40
   3  -1 -14   67.79   13.00
   2  -1 -14   96.09   12.30
   1  -1 -14  141.19   13.60
   0  -1 -14  115.99   16.50
  -1  -1 -14  156.68   16.70
  -2  -1 -14   36.30    9.70
   4  -2 -14   46.60   12.50
   3  -2 -14  341.27   24.00
   2  -2 -14  135.29   14.30
   1  -2 -14   60.79   10.00
   0  -2 -14   38.80   11.00
  -1  -2 -14   88.99   13.10
  -2  -2 -14   50.69   10.90
   3  -3 -14  134.39   15.50
   2  -3 -14   58.79   10.80
   0  -3 -14   87.39   14.10
  -1  -3 -14   48.00   11.40
  -2  -3 -14   98.59   14.50
   1  -4 -14   13.20   15.80
   0  -4 -14    9.50   10.80
  -1  -4 -14   33.70   11.80
   1  -5 -14   37.70   12.30
   0  -5 -14   25.90   12.00
   1  -6 -14   32.00   12.30
   0   4 -15   95.19   12.70
   1   3 -15   52.69   11.00
   0   3 -15   45.80   10.00
  -1   3 -15    0.50    7.00
   2   2 -15    3.30    9.90
   1   2 -15    3.80    8.00
   0   2 -15    8.50    7.50
  -1   2 -15   62.19   11.00
   2   1 -15   34.80   10.40
   1   1 -15   -2.10    8.00
   0   1 -15   15.70    8.40
  -2   1 -15   50.79   10.80
   3   0 -15    9.10    9.80
   2   0 -15   80.99   12.90
   1   0 -15    9.50    8.10
   0   0 -15    4.80   10.30
  -1   0 -15   16.30   13.00
   3  -1 -15   31.30   11.50
   2  -1 -15  364.56   24.50
   1  -1 -15   57.69   10.70
  -1  -1 -15   70.29   12.10
   3  -2 -15   15.90   10.40
   2  -2 -15   39.40   10.40
  -1  -2 -15    7.50    9.10
   2  -3 -15   13.60    9.10
   0  -3 -15   18.00   16.10
   0   0   0    0.00    0.00


_computing_structure_solution     'SHELXT 2014/5 (Sheldrick, 2014)'
_computing_structure_solution     'SHELXT 2014/5 (Sheldrick, 2014)'
;
_shelx_hkl_checksum              40812
_olex2_submission_special_instructions 'No special instructions were received'
loop_
_space_group_symop_operation_xyz
'x, y, z'
loop_
_atom_site_label
_atom_site_type_symbol
_atom_site_fract_x
_atom_site_fract_y
_atom_site_fract_z
_atom_site_U_iso_or_equiv
_atom_site_adp_type
_atom_site_occupancy
_atom_site_site_symmetry_order
_atom_site_calc_flag
_atom_site_refinement_flags_posn
Si1 Si 0.12787(15) 0.64542(11) 0.26845(9) 0.0244(3) Uani 1 1 d .
H1 H -0.0298 0.6540 0.2581 0.029 Uiso 1 1 calc R
O1 O -0.0849(5) 0.6770(3) 0.4930(3) 0.0352(8) Uani 1 1 d .
O2 O 0.2046(5) 0.6829(3) 0.6278(3) 0.0344(8) Uani 1 1 d .
O3 O 0.8091(5) 0.2472(3) 0.9028(3) 0.0337(7) Uani 1 1 d .
O4 O 0.5159(5) 0.0614(3) 0.8817(2) 0.0298(7) Uani 1 1 d .
C1 C 0.1566(7) 0.4906(4) 0.3623(3) 0.0236(8) Uani 1 1 d .
H1A H 0.2675 0.4348 0.3409 0.028 Uiso 1 1 calc R
C2 C 0.1188(7) 0.4868(4) 0.4916(3) 0.0242(8) Uani 1 1 d .
C3 C -0.0489(8) 0.4017(5) 0.4001(4) 0.0305(9) Uani 1 1 d .
H3A H -0.1889 0.4349 0.3812 0.037 Uiso 1 1 calc R
H3B H -0.0611 0.2976 0.3969 0.037 Uiso 1 1 calc R
C4 C 0.0651(7) 0.6215(4) 0.5365(3) 0.0251(9) Uani 1 1 d .
C5 C 0.1802(10) 0.8252(5) 0.6655(4) 0.0447(13) Uani 1 1 d .
H5A H 0.2249 0.8922 0.6068 0.067 Uiso 1 1 calc GR
H5B H 0.2724 0.8535 0.7390 0.067 Uiso 1 1 calc GR
H5C H 0.0270 0.8248 0.6759 0.067 Uiso 1 1 calc GR
C6 C 0.2525(7) 0.4061(4) 0.5743(3) 0.0240(8) Uani 1 1 d .
C7 C 0.4812(7) 0.4520(4) 0.6040(3) 0.0249(8) Uani 1 1 d .
H7 H 0.5567 0.5302 0.5675 0.030 Uiso 1 1 calc R
C8 C 0.5945(7) 0.3817(4) 0.6872(3) 0.0264(8) Uani 1 1 d .
H8 H 0.7471 0.4141 0.7072 0.032 Uiso 1 1 calc R
C9 C 0.4887(7) 0.2637(4) 0.7426(3) 0.0250(8) Uani 1 1 d .
C10 C 0.2642(7) 0.2171(4) 0.7094(3) 0.0273(9) Uani 1 1 d .
H10 H 0.1904 0.1355 0.7426 0.033 Uiso 1 1 calc R
C11 C 0.1457(7) 0.2888(4) 0.6277(3) 0.0255(8) Uani 1 1 d .
H11 H -0.0073 0.2574 0.6089 0.031 Uiso 1 1 calc R
C12 C 0.8372(7) 0.1591(5) 1.0041(4) 0.0328(10) Uani 1 1 d .
C13 C 0.6882(7) 0.0152(5) 0.9622(4) 0.0297(9) Uani 1 1 d .
C14 C 0.7595(9) 0.2331(5) 1.1048(4) 0.0413(12) Uani 1 1 d .
H14A H 0.8401 0.3308 1.1155 0.062 Uiso 1 1 calc GR
H14B H 0.7859 0.1827 1.1756 0.062 Uiso 1 1 calc GR
H14C H 0.6028 0.2335 1.0879 0.062 Uiso 1 1 calc GR
C15 C 1.0817(8) 0.1559(6) 1.0316(5) 0.0453(13) Uani 1 1 d .
H15A H 1.1343 0.1156 0.9644 0.068 Uiso 1 1 calc GR
H15B H 1.1039 0.0977 1.0983 0.068 Uiso 1 1 calc GR
H15C H 1.1630 0.2524 1.0497 0.068 Uiso 1 1 calc GR
C16 C 0.5800(8) -0.0687(5) 1.0568(4) 0.0385(11) Uani 1 1 d .
H16A H 0.6924 -0.0989 1.1109 0.058 Uiso 1 1 calc GR
H16B H 0.4778 -0.1521 1.0215 0.058 Uiso 1 1 calc GR
H16C H 0.5004 -0.0089 1.0985 0.058 Uiso 1 1 calc GR
C17 C 0.7989(10) -0.0791(6) 0.8897(5) 0.0459(13) Uani 1 1 d .
H17A H 0.6890 -0.1575 0.8523 0.069 Uiso 1 1 calc GR
H17B H 0.9090 -0.1170 0.9399 0.069 Uiso 1 1 calc GR
H17C H 0.8696 -0.0234 0.8304 0.069 Uiso 1 1 calc GR
C18 C 0.2917(7) 0.8179(4) 0.3357(3) 0.0277(9) Uani 1 1 d .
C19 C 0.1968(8) 0.9406(5) 0.3319(4) 0.0376(11) Uani 1 1 d .
H19 H 0.0526 0.9352 0.2943 0.045 Uiso 1 1 calc R
C20 C 0.3111(10) 1.0688(5) 0.3821(5) 0.0455(13) Uani 1 1 d .
H20 H 0.2460 1.1507 0.3783 0.055 Uiso 1 1 calc R
C21 C 0.5222(10) 1.0769(6) 0.4384(5) 0.0463(13) Uani 1 1 d .
H21 H 0.5994 1.1643 0.4739 0.056 Uiso 1 1 calc R
C22 C 0.6191(9) 0.9602(7) 0.4430(5) 0.0503(13) Uani 1 1 d .
H22 H 0.7632 0.9669 0.4810 0.060 Uiso 1 1 calc R
C23 C 0.5049(8) 0.8313(5) 0.3916(4) 0.0361(11) Uani 1 1 d .
H23 H 0.5735 0.7509 0.3946 0.043 Uiso 1 1 calc R
C24 C 0.2072(7) 0.6027(4) 0.1222(3) 0.0249(8) Uani 1 1 d .
C25 C 0.3969(7) 0.5498(4) 0.1034(4) 0.0276(9) Uani 1 1 d .
H25 H 0.4940 0.5327 0.1681 0.033 Uiso 1 1 calc R
C26 C 0.4449(8) 0.5221(5) -0.0088(4) 0.0312(9) Uani 1 1 d .
H26 H 0.5725 0.4854 -0.0195 0.037 Uiso 1 1 calc R
C27 C 0.3046(8) 0.5487(5) -0.1051(4) 0.0333(10) Uani 1 1 d .
H27 H 0.3384 0.5316 -0.1811 0.040 Uiso 1 1 calc R
C28 C 0.1162(8) 0.6001(5) -0.0892(4) 0.0337(10) Uani 1 1 d .
H28 H 0.0207 0.6176 -0.1544 0.040 Uiso 1 1 calc R
C29 C 0.0668(7) 0.6260(4) 0.0225(3) 0.0271(9) Uani 1 1 d .
H29 H -0.0636 0.6601 0.0321 0.032 Uiso 1 1 calc R
B1 B 0.6079(8) 0.1879(5) 0.8430(4) 0.0253(10) Uani 1 1 d .
loop_
_atom_site_aniso_label
_atom_site_aniso_U_11
_atom_site_aniso_U_22
_atom_site_aniso_U_33
_atom_site_aniso_U_23
_atom_site_aniso_U_13
_atom_site_aniso_U_12
Si1 0.0249(6) 0.0359(6) 0.0139(5) 0.0104(4) 0.0023(4) 0.0088(5)
O1 0.0297(18) 0.0506(19) 0.0286(16) 0.0069(14) 0.0020(13) 0.0167(15)
O2 0.045(2) 0.0419(17) 0.0186(14) 0.0019(13) -0.0022(13) 0.0168(16)
O3 0.0301(18) 0.0409(17) 0.0284(15) 0.0199(14) -0.0004(13) 0.0017(14)
O4 0.0278(17) 0.0395(16) 0.0209(14) 0.0112(13) -0.0038(12) 0.0063(14)
C1 0.031(2) 0.0297(19) 0.0100(16) 0.0060(15) 0.0015(15) 0.0050(18)
C2 0.023(2) 0.037(2) 0.0129(16) 0.0098(16) 0.0034(14) 0.0043(18)
C3 0.031(2) 0.038(2) 0.0190(19) 0.0096(17) -0.0021(16) 0.0011(19)
C4 0.023(2) 0.039(2) 0.0151(17) 0.0107(16) 0.0076(15) 0.0087(18)
C5 0.062(4) 0.048(3) 0.026(2) -0.004(2) -0.001(2) 0.020(3)
C6 0.026(2) 0.035(2) 0.0141(17) 0.0085(16) 0.0043(15) 0.0108(18)
C7 0.026(2) 0.035(2) 0.0150(18) 0.0080(16) 0.0054(15) 0.0054(18)
C8 0.026(2) 0.037(2) 0.0177(18) 0.0050(16) 0.0024(15) 0.0096(18)
C9 0.029(2) 0.033(2) 0.0154(18) 0.0070(16) 0.0027(15) 0.0107(18)
C10 0.029(2) 0.033(2) 0.0205(19) 0.0118(17) 0.0043(16) 0.0040(18)
C11 0.025(2) 0.035(2) 0.0169(18) 0.0078(16) 0.0039(15) 0.0057(18)
C12 0.031(2) 0.042(2) 0.024(2) 0.0175(19) -0.0030(17) 0.005(2)
C13 0.028(2) 0.040(2) 0.0226(19) 0.0158(18) 0.0000(16) 0.0097(19)
C14 0.046(3) 0.045(3) 0.030(2) 0.009(2) -0.005(2) 0.006(2)
C15 0.029(3) 0.063(3) 0.043(3) 0.032(3) 0.000(2) 0.005(2)
C16 0.041(3) 0.044(3) 0.029(2) 0.021(2) 0.002(2) 0.003(2)
C17 0.056(4) 0.050(3) 0.039(3) 0.016(2) 0.008(2) 0.025(3)
C18 0.027(2) 0.038(2) 0.0174(18) 0.0120(17) 0.0023(15) 0.0044(19)
C19 0.038(3) 0.046(3) 0.032(2) 0.013(2) 0.004(2) 0.015(2)
C20 0.059(4) 0.040(3) 0.041(3) 0.003(2) 0.015(3) 0.015(3)
C21 0.047(3) 0.050(3) 0.035(3) -0.003(2) 0.010(2) -0.011(3)
C22 0.031(3) 0.073(4) 0.044(3) 0.002(3) 0.003(2) 0.003(3)
C23 0.027(2) 0.050(3) 0.033(2) 0.005(2) 0.0019(19) 0.010(2)
C24 0.028(2) 0.0290(19) 0.0151(17) 0.0061(16) -0.0002(15) 0.0012(17)
C25 0.023(2) 0.038(2) 0.0218(19) 0.0088(17) -0.0010(16) 0.0067(18)
C26 0.031(2) 0.041(2) 0.025(2) 0.0055(18) 0.0053(17) 0.012(2)
C27 0.044(3) 0.041(2) 0.0158(18) 0.0035(18) 0.0066(17) 0.009(2)
C28 0.036(3) 0.046(3) 0.019(2) 0.0082(19) -0.0017(17) 0.008(2)
C29 0.027(2) 0.036(2) 0.0176(18) 0.0072(16) -0.0007(16) 0.0069(19)
B1 0.024(2) 0.036(2) 0.019(2) 0.0096(19) 0.0051(17) 0.011(2)
loop_
_atom_type_symbol
_atom_type_description
_atom_type_scat_dispersion_real
_atom_type_scat_dispersion_imag
_atom_type_scat_source
C C 0.0033 0.0016 'International Tables Vol C Tables 4.2.6.8 and 6.1.1.4'
H H 0.0000 0.0000 'International Tables Vol C Tables 4.2.6.8 and 6.1.1.4'
B B 0.0013 0.0007 'International Tables Vol C Tables 4.2.6.8 and 6.1.1.4'
O O 0.0106 0.0060 'International Tables Vol C Tables 4.2.6.8 and 6.1.1.4'
Si Si 0.0817 0.0704 'International Tables Vol C Tables 4.2.6.8 and 6.1.1.4'
loop_
_geom_angle_atom_site_label_1
_geom_angle_atom_site_label_2
_geom_angle_atom_site_label_3
_geom_angle
C1 Si1 H1 108.0
C18 Si1 H1 108.0
C18 Si1 C1 112.54(18)
C24 Si1 H1 108.0
C24 Si1 C1 107.77(17)
C24 Si1 C18 112.33(19)
C4 O2 C5 116.3(3)
B1 O3 C12 105.6(3)
B1 O4 C13 106.4(3)
Si1 C1 H1A 114.5
C2 C1 Si1 124.2(3)
C2 C1 H1A 114.5
C3 C1 Si1 118.8(3)
C3 C1 H1A 114.5
C3 C1 C2 59.1(3)
C3 C2 C1 59.6(3)
C3 C2 C6 117.9(3)
C4 C2 C1 112.8(3)
C4 C2 C3 116.3(3)
C4 C2 C6 117.8(3)
C6 C2 C1 119.5(3)
C1 C3 H3A 117.6
C1 C3 H3B 117.6
C2 C3 C1 61.3(3)
C2 C3 H3A 117.6
C2 C3 H3B 117.6
H3A C3 H3B 114.7
O1 C4 O2 121.8(4)
O1 C4 C2 124.5(4)
O2 C4 C2 113.6(3)
O2 C5 H5A 109.5
O2 C5 H5B 109.5
O2 C5 H5C 109.5
H5A C5 H5B 109.5
H5A C5 H5C 109.5
H5B C5 H5C 109.5
C7 C6 C2 121.6(4)
C11 C6 C2 119.3(4)
C11 C6 C7 119.0(3)
C6 C7 H7 120.1
C8 C7 C6 119.7(4)
C8 C7 H7 120.1
C7 C8 H8 119.0
C7 C8 C9 121.9(4)
C9 C8 H8 119.0
C8 C9 B1 123.3(4)
C10 C9 C8 117.5(3)
C10 C9 B1 119.1(4)
C9 C10 H10 119.3
C9 C10 C11 121.4(4)
C11 C10 H10 119.3
C6 C11 C10 120.3(4)
C6 C11 H11 119.8
C10 C11 H11 119.8
O3 C12 C13 102.5(3)
O3 C12 C14 106.5(3)
O3 C12 C15 108.1(3)
C14 C12 C13 113.9(4)
C14 C12 C15 109.5(4)
C15 C12 C13 115.6(4)
O4 C13 C12 101.7(3)
O4 C13 C16 108.7(3)
O4 C13 C17 106.2(3)
C16 C13 C12 115.2(4)
C16 C13 C17 110.5(4)
C17 C13 C12 113.6(4)
C12 C14 H14A 109.5
C12 C14 H14B 109.5
C12 C14 H14C 109.5
H14A C14 H14B 109.5
H14A C14 H14C 109.5
H14B C14 H14C 109.5
C12 C15 H15A 109.5
C12 C15 H15B 109.5
C12 C15 H15C 109.5
H15A C15 H15B 109.5
H15A C15 H15C 109.5
H15B C15 H15C 109.5
C13 C16 H16A 109.5
C13 C16 H16B 109.5
C13 C16 H16C 109.5
H16A C16 H16B 109.5
H16A C16 H16C 109.5
H16B C16 H16C 109.5
C13 C17 H17A 109.5
C13 C17 H17B 109.5
C13 C17 H17C 109.5
H17A C17 H17B 109.5
H17A C17 H17C 109.5
H17B C17 H17C 109.5
C19 C18 Si1 119.4(3)
C23 C18 Si1 123.1(3)
C23 C18 C19 117.4(4)
C18 C19 H19 119.5
C20 C19 C18 121.0(5)
C20 C19 H19 119.5
C19 C20 H20 120.2
C19 C20 C21 119.7(5)
C21 C20 H20 120.2
C20 C21 H21 119.6
C22 C21 C20 120.7(6)
C22 C21 H21 119.6
C21 C22 H22 120.2
C21 C22 C23 119.7(5)
C23 C22 H22 120.2
C18 C23 H23 119.3
C22 C23 C18 121.5(4)
C22 C23 H23 119.3
C25 C24 Si1 125.0(3)
C25 C24 C29 117.1(4)
C29 C24 Si1 117.9(3)
C24 C25 H25 119.4
C26 C25 C24 121.3(4)
C26 C25 H25 119.4
C25 C26 H26 120.0
C25 C26 C27 120.0(4)
C27 C26 H26 120.0
C26 C27 H27 120.0
C28 C27 C26 119.9(4)
C28 C27 H27 120.0
C27 C28 H28 119.9
C27 C28 C29 120.1(4)
C29 C28 H28 119.9
C24 C29 H29 119.2
C28 C29 C24 121.5(4)
C28 C29 H29 119.2
O3 B1 C9 123.3(4)
O4 B1 O3 114.2(3)
O4 B1 C9 122.5(4)
loop_
_geom_bond_atom_site_label_1
_geom_bond_atom_site_label_2
_geom_bond_distance
Si1 H1 1.0000
Si1 C1 1.891(4)
Si1 C18 1.887(5)
Si1 C24 1.883(4)
O1 C4 1.230(5)
O2 C4 1.347(5)
O2 C5 1.467(6)
O3 C12 1.481(5)
O3 B1 1.386(6)
O4 C13 1.485(5)
O4 B1 1.360(6)
C1 H1A 1.0000
C1 C2 1.551(5)
C1 C3 1.526(6)
C2 C3 1.517(6)
C2 C4 1.494(6)
C2 C6 1.523(5)
C3 H3A 0.9900
C3 H3B 0.9900
C5 H5A 0.9800
C5 H5B 0.9800
C5 H5C 0.9800
C6 C7 1.421(6)
C6 C11 1.401(6)
C7 H7 0.9500
C7 C8 1.396(5)
C8 H8 0.9500
C8 C9 1.415(6)
C9 C10 1.403(6)
C9 B1 1.579(5)
C10 H10 0.9500
C10 C11 1.410(5)
C11 H11 0.9500
C12 C13 1.556(7)
C12 C14 1.527(7)
C12 C15 1.535(6)
C13 C16 1.528(6)
C13 C17 1.530(7)
C14 H14A 0.9800
C14 H14B 0.9800
C14 H14C 0.9800
C15 H15A 0.9800
C15 H15B 0.9800
C15 H15C 0.9800
C16 H16A 0.9800
C16 H16B 0.9800
C16 H16C 0.9800
C17 H17A 0.9800
C17 H17B 0.9800
C17 H17C 0.9800
C18 C19 1.414(6)
C18 C23 1.400(6)
C19 H19 0.9500
C19 C20 1.388(8)
C20 H20 0.9500
C20 C21 1.396(9)
C21 H21 0.9500
C21 C22 1.369(8)
C22 H22 0.9500
C22 C23 1.398(8)
C23 H23 0.9500
C24 C25 1.411(6)
C24 C29 1.423(5)
C25 H25 0.9500
C25 C26 1.403(6)
C26 H26 0.9500
C26 C27 1.403(6)
C27 H27 0.9500
C27 C28 1.388(7)
C28 H28 0.9500
C28 C29 1.397(6)
C29 H29 0.9500
