#------------------------------------------------------------------------------
#$Date: 2019-10-28 05:14:12 +0200 (Mon, 28 Oct 2019) $
#$Revision: 219678 $
#$URL: file:///home/coder/svn-repositories/cod/cif/4/51/44/4514490.cif $
#------------------------------------------------------------------------------
#
# This file is available in the Crystallography Open Database (COD),
# http://www.crystallography.net/
#
# All data on this site have been placed in the public domain by the
# contributors.
#
data_4514490
loop_
_publ_author_name
'Chalana, Ashish'
'Karri, Ramesh'
'Das, Ranajit'
'Kumar, Binayak'
'Rai, Rakesh Kumar'
'Saxena, Himani'
'Gupta, Ashish'
'Banerjee, Mainak'
'Jha, Kunal Kumar'
'Roy, Gouriprasanna'
_publ_section_title
;
 Copper-Driven Deselenization: A Strategy for Selective Conversion of
 Copper Ion to Nanozyme and Its Implication for Copper-Related Disorders.
;
_journal_issue                   5
_journal_name_full               'ACS applied materials &amp; interfaces'
_journal_page_first              4766
_journal_page_last               4776
_journal_paper_doi               10.1021/acsami.8b16786
_journal_volume                  11
_journal_year                    2019
_chemical_formula_moiety         'C22 H26 Cl4 Cu2 N4 O4 S2, 2(H2 O)'
_chemical_formula_sum            'C22 H30 Cl4 Cu2 N4 O6 S2'
_chemical_formula_weight         779.52
_space_group_crystal_system      triclinic
_space_group_IT_number           2
_space_group_name_Hall           '-P 1'
_space_group_name_H-M_alt        'P -1'
_symmetry_space_group_name_Hall  '-P 1'
_symmetry_space_group_name_H-M   'P -1'
_atom_sites_solution_hydrogens   mixed
_audit_creation_method           SHELXL-2014/7
_cell_angle_alpha                79.857(5)
_cell_angle_beta                 79.076(4)
_cell_angle_gamma                88.714(5)
_cell_formula_units_Z            1
_cell_length_a                   7.4112(8)
_cell_length_b                   9.1109(10)
_cell_length_c                   11.2644(13)
_cell_measurement_reflns_used    9883
_cell_measurement_temperature    293(2)
_cell_measurement_theta_max      25.77
_cell_measurement_theta_min      2.80
_cell_volume                     735.10(14)
_computing_cell_refinement       'Bruker SAINT'
_computing_data_collection       'Bruker APEX2'
_computing_data_reduction        'Bruker SAINT'
_computing_molecular_graphics    'Bruker SHELXTL'
_computing_publication_material  'Bruker SHELXTL'
_computing_structure_refinement  'SHELXL-2014/7 (Sheldrick, 2014)'
_computing_structure_solution    'SHELXS-97 (Sheldrick 2008)'
_diffrn_ambient_temperature      293(2)
_diffrn_measured_fraction_theta_full 1.000
_diffrn_measured_fraction_theta_max 1.000
_diffrn_measurement_device_type  'Bruker PHOTON100 CMOS'
_diffrn_measurement_method       '\f and \w scans'
_diffrn_radiation_type           MoK\a
_diffrn_radiation_wavelength     0.71073
_diffrn_reflns_av_R_equivalents  0.0409
_diffrn_reflns_av_unetI/netI     0.0292
_diffrn_reflns_Laue_measured_fraction_full 1.000
_diffrn_reflns_Laue_measured_fraction_max 1.000
_diffrn_reflns_limit_h_max       9
_diffrn_reflns_limit_h_min       -9
_diffrn_reflns_limit_k_max       11
_diffrn_reflns_limit_k_min       -11
_diffrn_reflns_limit_l_max       14
_diffrn_reflns_limit_l_min       -14
_diffrn_reflns_number            18511
_diffrn_reflns_point_group_measured_fraction_full 1.000
_diffrn_reflns_point_group_measured_fraction_max 1.000
_diffrn_reflns_theta_full        25.242
_diffrn_reflns_theta_max         26.372
_diffrn_reflns_theta_min         2.271
_diffrn_source                   X-ray
_exptl_absorpt_coefficient_mu    1.997
_exptl_absorpt_correction_type   multi-scan
_exptl_absorpt_process_details   SADABS
_exptl_crystal_colour            Yellow
_exptl_crystal_density_diffrn    1.765
_exptl_crystal_description       Dimond
_exptl_crystal_F_000             396.0
_exptl_crystal_size_max          0.298
_exptl_crystal_size_mid          0.053
_exptl_crystal_size_min          0.037
_exptl_transmission_factor_max   0.929
_exptl_transmission_factor_min   0.881
_refine_diff_density_max         0.867
_refine_diff_density_min         -0.531
_refine_diff_density_rms         0.094
_refine_ls_extinction_method     none
_refine_ls_goodness_of_fit_ref   0.959
_refine_ls_hydrogen_treatment    mixed
_refine_ls_matrix_type           full
_refine_ls_number_parameters     190
_refine_ls_number_reflns         3015
_refine_ls_number_restraints     1
_refine_ls_restrained_S_all      0.959
_refine_ls_R_factor_all          0.0583
_refine_ls_R_factor_gt           0.0423
_refine_ls_shift/su_max          0.001
_refine_ls_shift/su_mean         0.000
_refine_ls_structure_factor_coef Fsqd
_refine_ls_weighting_details
'w=1/[\s^2^(Fo^2^)+(0.0363P)^2^+3.2511P] where P=(Fo^2^+2Fc^2^)/3'
_refine_ls_weighting_scheme      calc
_refine_ls_wR_factor_gt          0.1013
_refine_ls_wR_factor_ref         0.1099
_reflns_Friedel_coverage         0.000
_reflns_number_gt                2450
_reflns_number_total             3015
_reflns_threshold_expression     'I > 2\s(I)'
_cod_data_source_file            am8b16786_si_008.cif
_cod_data_source_block           mo_BzOHSOHCuCl2_0m_a
_cod_depositor_comments
;
The following automatic conversions were performed:

'_exptl_absorpt_correction_type' value 'Multi-Scan' changed to
'multi-scan' according to
/home/data/users/saulius/crontab/automatic-downloads/current/ACS/lib/dictionaries/cif_core.dic
dictionary named 'cif_core.dic' version 2.4.2 from 2011-04-26.

Automatic conversion script
Id: cif_fix_values 4973 2017-02-22 13:04:09Z antanas 
;
_cod_database_code               4514490
_shelx_shelxl_version_number     2014/7
_shelx_space_group_comment
;
The symmetry employed for this shelxl refinement is uniquely defined
by the following loop, which should always be used as a source of
symmetry information in preference to the above space-group names.
They are only intended as comments.
;
_shelx_estimated_absorpt_t_min   0.421
_shelx_estimated_absorpt_t_max   0.881
_shelx_res_file
;

    mo_BzOHSOHCuCl2_0m_a.res created by SHELXL-2014/7

TITL mo_BzOHSOHCuCl2_0m_a.res in P-1
CELL  0.71073   7.4112   9.1109  11.2644   79.857   79.076   88.714
ZERR    4.000   0.0008   0.0010   0.0013    0.005    0.004    0.005
LATT 1
SFAC C  H  Cl Cu N  O  S
UNIT 4  4  4  4  4  4  4
L.S. 30
ACTA
BOND $H
FMAP 2
PLAN 20
SIZE 0.037 0.053 0.298
DFIX 0.820 O3 H6
WGHT    0.036300    3.251100
FVAR       0.75190
CU01  4    0.828742    0.980287    0.138663    11.00000    0.04283    0.02860 =
         0.02322   -0.00362   -0.00378    0.00102
S002  7    0.817999    0.936618    0.350620    11.00000    0.05023    0.02481 =
         0.02327   -0.00427   -0.00542   -0.00080
CL03  3    0.832370    1.223783    0.156334    11.00000    0.05735    0.03088 =
         0.03323   -0.00706   -0.00228    0.00196
CL04  3    0.795369    1.036622   -0.061150    11.00000    0.05312    0.04228 =
         0.02709   -0.00208   -0.01053    0.00014
O2    6    0.748172    0.770098    0.139105    11.00000    0.04728    0.02847 =
         0.03158   -0.00179   -0.00937   -0.00004
N006  5    0.693151    0.704087    0.530065    11.00000    0.02470    0.02402 =
         0.01722   -0.00347   -0.00390    0.00155
N007  5    0.852253    0.634290    0.364635    11.00000    0.02397    0.02805 =
         0.01856   -0.00394   -0.00283    0.00131
O1    6    0.768350    0.721096    0.776146    11.00000    0.05495    0.04916 =
         0.03601   -0.00913   -0.02168    0.00372
AFIX 147
H3    2    0.854817    0.743530    0.805558    11.00000   -1.50000
AFIX   0
C009  1    0.695971    0.549208    0.553066    11.00000    0.02046    0.02732 =
         0.02075   -0.00305   -0.00759    0.00080
C00A  1    0.796102    0.504790    0.448266    11.00000    0.02111    0.02816 =
         0.02162   -0.00339   -0.00728   -0.00047
C00B  1    0.619182    0.445592    0.654899    11.00000    0.02645    0.03340 =
         0.02338   -0.00198   -0.00447   -0.00258
AFIX  43
H00B  2    0.552340    0.474556    0.725421    11.00000   -1.20000
AFIX   0
O3    6    0.514439    0.689920    1.015345    11.00000    0.06767    0.08418 =
         0.06912   -0.00549   -0.03605    0.00305
C00D  1    0.787395    0.753971    0.415173    11.00000    0.02486    0.02930 =
         0.01932   -0.00151   -0.00659   -0.00222
C00E  1    0.599460    0.797557    0.615774    11.00000    0.02983    0.03069 =
         0.02359   -0.00770   -0.00288    0.00659
AFIX  23
H00A  2    0.495543    0.742249    0.668802    11.00000   -1.20000
H00C  2    0.552106    0.884971    0.569384    11.00000   -1.20000
AFIX   0
C00F  1    0.970922    0.639456    0.245198    11.00000    0.02537    0.03516 =
         0.02508   -0.00562    0.00125    0.00069
AFIX  23
H00D  2    1.049767    0.552970    0.248016    11.00000   -1.20000
H00E  2    1.048895    0.727733    0.227164    11.00000   -1.20000
AFIX   0
C00G  1    0.824806    0.356195    0.441129    11.00000    0.03033    0.03147 =
         0.03023   -0.01090   -0.00902    0.00409
AFIX  43
H00G  2    0.893080    0.326722    0.371263    11.00000   -1.20000
AFIX   0
C00H  1    0.647194    0.297318    0.646049    11.00000    0.03580    0.03064 =
         0.03556    0.00442   -0.00961   -0.00837
AFIX  43
H00H  2    0.596841    0.224461    0.712061    11.00000   -1.20000
AFIX   0
C00I  1    0.748362    0.254044    0.541418    11.00000    0.04093    0.02466 =
         0.04440   -0.00563   -0.01592   -0.00103
AFIX  43
H00I  2    0.764722    0.152969    0.539307    11.00000   -1.20000
AFIX   0
C00J  1    0.864129    0.642162    0.144371    11.00000    0.04463    0.03380 =
         0.01860   -0.00583   -0.00130    0.00178
AFIX  23
H00F  2    0.948009    0.646035    0.066478    11.00000   -1.20000
H00J  2    0.789829    0.552090    0.159646    11.00000   -1.20000
AFIX   0
C00K  1    0.720327    0.846740    0.693457    11.00000    0.04973    0.03393 =
         0.03081   -0.01404   -0.01073    0.00247
AFIX  23
H00K  2    0.830774    0.893797    0.641657    11.00000   -1.20000
H00L  2    0.656711    0.919190    0.739499    11.00000   -1.20000
AFIX   0
H7    2    0.523587    0.635294    0.962558    11.00000    0.05559
H6    2    0.409668    0.717817    1.010833    11.00000    0.28320
HKLF 4

REM  mo_BzOHSOHCuCl2_0m_a.res in P-1
REM R1 =  0.0423 for    2450 Fo > 4sig(Fo)  and  0.0583 for all    3015 data
REM    190 parameters refined using      1 restraints

END

WGHT      0.0491      2.1068

REM Highest difference peak  0.867,  deepest hole -0.531,  1-sigma level  0.094
Q1    1   0.6683  1.0351 -0.0327  11.00000  0.05    0.87
Q2    1   0.6631  0.7576  0.0968  11.00000  0.05    0.73
Q3    1   0.8132  0.5725  0.3959  11.00000  0.05    0.46
Q4    1   0.7455  0.5230  0.5016  11.00000  0.05    0.46
Q5    1   0.6774  0.6241  0.5479  11.00000  0.05    0.46
Q6    1   0.7455  0.7246  0.4797  11.00000  0.05    0.44
Q7    1   0.6790  0.5140  0.6040  11.00000  0.05    0.42
Q8    1   0.7144  0.2823  0.5931  11.00000  0.05    0.40
Q9    1   0.9010  0.6278  0.3148  11.00000  0.05    0.38
Q10   1   0.8026  0.6916  0.3615  11.00000  0.05    0.37
Q11   1   0.8824  1.1219  0.1876  11.00000  0.05    0.36
Q12   1   0.6558  0.3894  0.6492  11.00000  0.05    0.36
Q13   1   0.6327  0.7342  0.5471  11.00000  0.05    0.34
Q14   1   0.8129  0.8095  0.1011  11.00000  0.05    0.34
Q15   1   0.6240  0.4630  0.6971  11.00000  0.05    0.34
Q16   1   0.7262  0.2110  0.5330  11.00000  0.05    0.32
Q17   1   0.7374  0.7823  0.1644  11.00000  0.05    0.32
Q18   1   0.5595  0.4384  0.6549  11.00000  0.05    0.32
Q19   1   0.8379  0.4381  0.4423  11.00000  0.05    0.32
Q20   1   0.8302  0.3473  0.4000  11.00000  0.05    0.31
;
_shelx_res_checksum              68545
_shelx_hkl_file
;
   1   0   0 1232.68   36.20
   1   0   0 1246.88   36.50
  -2   0   0 9875.31  284.47
  -2   0   0 9999.00  285.67
  -3   0   0 5498.65  159.68
  -3   0   0 5795.32  157.98
   3   0   0 5283.07  158.88
   3   0   0 5436.26  158.78
   3   0   0 5269.87  157.88
  -4   0   0    0.60    4.70
  -4   0   0    0.50    4.20
   4   0   0    8.70    3.30
   4   0   0    6.70    2.60
   4   0   0    2.50    3.00
  -5   0   0 1123.29   41.80
  -5   0   0 1206.78   39.60
   5   0   0 1240.88   40.80
   5   0   0 1226.88   39.80
   5   0   0 1202.88   38.90
  -6   0   0  820.52   30.10
  -6   0   0  777.42   32.80
   6   0   0  793.22   31.10
   6   0   0  805.42   28.70
   6   0   0  823.52   29.80
  -7   0   0    6.40    7.90
  -7   0   0    6.50    9.50
   7   0   0    1.70    5.00
   7   0   0   14.50    6.30
   7   0   0    4.20    7.20
  -8   0   0  109.69   13.70
  -8   0   0   87.19   14.70
   8   0   0   93.39   12.60
   8   0   0  136.89   17.90
   8   0   0  110.59   12.70
  -9   0   0   56.29   14.50
  -9   0   0   67.19   11.70
   9   0   0   54.09   14.80
   9  -1   0   43.30   10.70
   9  -1   0   11.80   12.30
  -9   1   0   12.00   13.40
  -9   1   0   33.10   10.50
   8  -1   0   59.79   10.10
   8  -1   0   52.19    9.30
  -8   1   0   76.39   12.10
   7  -1   0    0.10    6.20
   7  -1   0    4.00    6.60
   7  -1   0    4.40    5.70
  -7   1   0   10.10    8.70
  -7   1   0    5.20    8.80
   6  -1   0  108.19   10.20
   6  -1   0  134.19   11.30
   6  -1   0   86.09   10.40
  -6   1   0  112.29   10.30
  -6   1   0  104.69   13.10
   5  -1   0 1176.08   38.90
   5  -1   0 1186.38   39.30
   5  -1   0 1166.48   39.90
  -5   1   0 1223.38   38.50
  -5   1   0 1134.89   40.80
   4  -1   0    1.10    2.70
   4  -1   0    1.00    3.00
   4  -1   0   -3.80    2.40
  -4   1   0    1.10    4.30
  -4   1   0    5.40    4.80
   3  -1   0 3519.95  102.89
   3  -1   0 3578.44  103.59
   3  -1   0 3428.46  104.09
  -3   1   0 3756.62  102.49
  -3   1   0 3371.96  100.49
  -3   1   0 3537.15  104.29
  -3   1   0 3384.26  100.59
   2  -1   0 2091.39   61.19
   2  -1   0 2063.19   59.99
   2  -1   0 2071.59   59.99
   2  -1   0 2110.99   62.69
  -2   1   0 2165.88   62.49
  -2   1   0 2044.80   60.29
   1  -1   0 3437.66   98.19
  -1   1   0 3532.55   98.69
  -1   1   0 3297.97   98.19
  -1   1   0 3391.56   99.39
   0  -1   0 1009.20   34.80
   0  -1   0 1201.38   34.40
   0  -1   0 1209.18   33.60
   0   1   0 1040.20   34.20
   0   1   0 1196.48   34.40
   0   1   0 1086.59   34.00
  -1  -1   0   33.40    2.00
  -1  -1   0   36.60    2.50
  -1  -1   0   36.60    3.10
  -1  -1   0   39.50    2.20
  -1  -1   0   34.70    2.50
   1   1   0   32.50    1.80
   1   1   0   35.30    2.10
   1   1   0   31.60    2.50
   1   1   0   35.30    2.60
  -2  -1   0 1560.44   46.30
  -2  -1   0 1656.53   47.30
  -2  -1   0 1619.04   46.50
  -2  -1   0 1544.85   46.40
  -2  -1   0 1617.94   48.00
   2   1   0 1567.14   46.20
   2   1   0 1515.75   46.30
   2   1   0 1532.75   46.40
   2   1   0 1586.54   48.10
  -3  -1   0 1347.57   41.80
  -3  -1   0 1359.46   41.30
  -3  -1   0 1420.66   42.90
  -3  -1   0 1416.86   44.30
   3   1   0 1350.66   41.70
   3   1   0 1417.66   44.10
   3   1   0 1438.06   41.10
   3   1   0 1370.86   40.90
  -4  -1   0   65.79    6.70
  -4  -1   0   49.00    4.70
  -4  -1   0   55.39    7.50
   4   1   0   59.29    4.80
   4   1   0   46.80    6.40
  -5  -1   0  177.48    8.30
  -5  -1   0  172.48   12.00
  -5  -1   0  175.68   13.90
   5   1   0  184.98   12.10
   5   1   0  178.18    9.40
   5   1   0  187.68   10.40
  -6  -1   0  279.27   17.00
  -6  -1   0  311.87   19.40
  -6  -1   0  312.87   11.70
  -6  -1   0  308.27   11.80
   6   1   0  319.17   18.00
   6   1   0  285.17   14.70
   6   1   0  311.07   14.10
  -7  -1   0    4.50    9.90
  -7  -1   0   -1.30    8.50
   7   1   0   -3.00    5.30
   7   1   0   -1.60    7.50
   7   1   0    2.90    4.70
  -8  -1   0  105.39   13.50
  -8  -1   0  101.09   16.20
   8   1   0  109.49   14.60
   8   1   0  107.99   12.20
   8   1   0   99.49   11.70
  -9  -1   0   30.00   13.80
  -9  -1   0   32.80   10.70
   9   1   0    9.90   14.20
   8  -2   0   66.89   10.20
   8  -2   0   70.39   10.80
   8  -2   0   70.69   11.70
  -8   2   0   82.89   13.00
  -8   2   0   70.49   11.30
   7  -2   0   14.40    7.40
   7  -2   0    9.00    6.80
   7  -2   0   13.20    6.50
  -7   2   0    7.40    8.60
  -7   2   0    4.20    8.80
   6  -2   0  471.55   20.90
   6  -2   0  465.05   19.90
   6  -2   0  463.65   21.40
  -6   2   0  429.56   22.40
  -6   2   0  444.66   20.10
   5  -2   0  208.08   12.90
   5  -2   0  208.98   10.90
   5  -2   0  203.98   12.00
  -5   2   0  202.18   12.40
  -5   2   0  201.78   14.00
   4  -2   0  526.85   18.30
   4  -2   0  522.05   20.80
  -4   2   0  530.95   19.00
  -4   2   0  517.95   16.70
  -4   2   0  517.65   17.00
   3  -2   0  898.81   26.90
   3  -2   0  879.61   28.00
   3  -2   0  899.61   30.60
   3  -2   0  902.01   27.00
  -3   2   0  922.11   28.20
  -3   2   0  896.11   30.00
  -3   2   0  894.51   27.60
   2  -2   0  519.45   16.40
   2  -2   0  512.75   18.50
   2  -2   0  506.45   16.50
   2  -2   0  514.95   15.50
  -2   2   0  495.25   16.70
  -2   2   0  512.45   19.40
  -2   2   0  513.75   16.60
  -2   2   0  512.45   17.50
  -2   2   0  514.45   16.50
   1  -2   0  960.10   29.00
   1  -2   0 1002.00   29.10
   1  -2   0  944.91   29.90
  -1   2   0  971.20   30.30
  -1   2   0  999.40   28.60
  -1   2   0  797.32   27.40
  -1   2   0  954.70   29.20
  -1   2   0  952.00   29.10
   0  -2   0   33.00    3.30
   0  -2   0   40.30    3.10
   0   2   0   28.50    3.30
   0   2   0   31.70    3.50
  -1  -2   0  456.35   15.40
  -1  -2   0  443.46   14.70
  -1  -2   0  430.86   15.70
  -1  -2   0  463.95   14.30
  -1  -2   0  479.75   15.40
   1   2   0  453.65   14.30
   1   2   0  444.86   14.70
   1   2   0  457.45   15.30
   1   2   0  469.85   15.60
  -2  -2   0    2.20    3.10
  -2  -2   0    3.80    2.50
  -2  -2   0    3.50    1.80
  -2  -2   0    5.20    3.30
  -2  -2   0    5.00    2.00
  -2  -2   0    4.70    2.40
   2   2   0    4.10    1.70
   2   2   0    5.10    1.50
   2   2   0    3.70    2.40
   2   2   0    6.60    1.90
   2   2   0    3.70    2.10
  -3  -2   0  822.62   26.20
  -3  -2   0  834.42   26.90
  -3  -2   0  874.61   28.00
  -3  -2   0  847.32   28.70
  -3  -2   0  859.61   27.10
   3   2   0  832.62   29.10
   3   2   0  811.32   26.80
   3   2   0  842.82   26.50
   3   2   0  840.82   25.80
   3   2   0  819.72   26.20
  -4  -2   0   14.40    5.90
  -4  -2   0   14.30    5.60
  -4  -2   0   17.00    3.90
  -4  -2   0   17.60    3.90
   4   2   0   18.50    4.30
   4   2   0   21.20    4.00
   4   2   0   24.60    3.10
   4   2   0   23.20    3.90
   4   2   0   19.40    2.90
  -5  -2   0  603.24   25.50
  -5  -2   0  620.24   21.80
  -5  -2   0  553.24   20.50
  -5  -2   0  579.94   23.30
   5   2   0  596.94   20.30
   5   2   0  550.04   24.30
   5   2   0  588.54   19.60
   5   2   0  588.34   21.20
   5   2   0  582.74   19.00
  -6  -2   0   98.79   12.80
  -6  -2   0  110.19    9.40
  -6  -2   0  107.99    9.90
  -6  -2   0   91.09   10.60
   6   2   0  104.99   11.50
   6   2   0  138.39   13.70
   6   2   0  105.99    8.80
   6   2   0   91.99    8.20
  -7  -2   0   -4.10    5.60
  -7  -2   0   -1.80    5.90
  -7  -2   0    9.40   10.20
  -7  -2   0    7.30    8.70
   7   2   0   -8.10    4.90
   7   2   0   -4.90    8.10
  -8  -2   0  123.29   17.20
  -8  -2   0  112.59   14.50
   8   2   0  136.29   11.40
   8   2   0  106.49   11.30
   8   2   0  107.09   15.20
   8  -3   0   -6.30    8.90
   8  -3   0  -10.60    6.30
   8  -3   0    9.60    9.70
  -8   3   0    4.50    7.50
  -8   3   0   13.80   11.10
   7  -3   0  118.19   11.70
   7  -3   0  154.98   15.50
   7  -3   0  120.49   13.20
  -7   3   0  129.19   12.40
  -7   3   0  124.19   16.10
   6  -3   0  250.17   15.90
   6  -3   0  243.08   16.60
   6  -3   0  231.38   12.50
  -6   3   0  202.28   16.30
  -6   3   0  206.98   15.20
  -6   3   0  241.78   10.20
  -6   3   0  230.48   10.70
   5  -3   0   61.49    9.00
   5  -3   0   59.69    6.20
  -5   3   0   66.09    9.00
  -5   3   0   52.39    5.70
  -5   3   0   51.59    6.60
  -5   3   0   59.59    7.60
   4  -3   0  296.87   10.90
   4  -3   0  298.87   10.30
   4  -3   0  286.17   14.50
  -4   3   0  289.47   14.60
  -4   3   0  271.27   12.20
  -4   3   0  298.17   13.20
  -4   3   0  240.68   16.00
   3  -3   0  883.61   27.50
   3  -3   0  901.41   27.40
   3  -3   0  876.91   30.50
   3  -3   0  899.41   25.60
  -3   3   0  888.51   27.80
  -3   3   0  813.42   29.20
  -3   3   0  847.42   32.10
  -3   3   0  914.21   27.60
  -3   3   0  724.83   30.90
   2  -3   0  276.27   11.10
   2  -3   0  259.07   10.50
   2  -3   0  263.87   12.00
  -2   3   0  275.77   10.80
  -2   3   0  258.17   11.30
  -2   3   0  279.37   10.30
  -2   3   0  268.57   13.90
  -2   3   0  265.97   11.00
   1  -3   0 2016.00   61.69
   1  -3   0 2078.99   60.99
   1  -3   0 1897.31   60.89
  -1   3   0 2028.50   59.59
  -1   3   0 2054.39   62.39
  -1   3   0 2064.89   61.39
  -1   3   0 2087.59   61.09
   0  -3   0 3461.85  101.89
   0  -3   0 3418.06  101.19
   0   3   0 3446.06  101.69
   0   3   0 3572.54  102.09
   0   3   0 3386.06  101.59
  -1  -3   0  122.49    6.70
  -1  -3   0  134.59    5.70
  -1  -3   0  116.79    7.30
  -1  -3   0  122.69    6.90
   1   3   0  120.29    7.80
   1   3   0  127.19    6.70
   1   3   0  131.29    6.30
  -2  -3   0 2139.89   62.29
  -2  -3   0 2049.59   61.79
  -2  -3   0 2063.59   62.19
  -2  -3   0 2000.10   60.69
   2   3   0 2044.30   62.29
   2   3   0 2100.09   60.69
   2   3   0 1923.61   59.99
   2   3   0 2076.89   63.09
   2   3   0 2019.90   61.89
  -3  -3   0 2006.80   60.19
  -3  -3   0 1935.11   60.29
  -3  -3   0 1945.31   58.59
  -3  -3   0 2012.60   60.99
   3   3   0 1943.51   60.09
   3   3   0 1984.20   58.39
   3   3   0 1924.21   57.49
   3   3   0 1960.10   62.09
   3   3   0 1953.10   59.59
  -4  -3   0   29.90    7.10
  -4  -3   0   25.30    6.40
  -4  -3   0   30.70    4.50
  -4  -3   0   26.60    5.40
   4   3   0   27.60    6.00
   4   3   0   24.40    3.30
   4   3   0   38.80    5.00
   4   3   0   25.70    5.50
   4   3   0   23.90    3.30
  -5  -3   0  830.32   28.50
  -5  -3   0  860.91   29.90
  -5  -3   0  835.12   31.30
  -5  -3   0  860.41   29.70
  -5  -3   0  825.72   33.00
   5   3   0  855.21   29.40
   5   3   0  872.11   27.30
   5   3   0  880.41   27.80
   5   3   0  857.11   33.50
   5   3   0  860.71   28.20
  -6  -3   0  548.85   22.50
  -6  -3   0  535.15   22.50
  -6  -3   0  538.95   26.60
  -6  -3   0  545.15   24.40
   6   3   0  546.35   19.80
   6   3   0  546.55   19.80
   6   3   0  547.35   19.20
   6   3   0  586.84   26.90
   6   3   0  561.34   19.80
   6   3   0  527.75   20.70
  -7  -3   0   93.69   12.30
  -7  -3   0  118.59   15.20
  -7  -3   0   84.89   13.90
   7   3   0  113.49   14.40
   7   3   0  123.29    9.60
   7   3   0  115.99    8.80
   7   3   0  103.99   11.20
  -8  -3   0  201.38   22.90
  -8  -3   0  141.79   16.20
   8   3   0  146.79   18.00
   8  -4   0  -19.10    9.90
   8  -4   0   23.10   11.00
  -8   4   0    1.60    7.20
   7  -4   0   32.10    9.60
   7  -4   0   26.80    5.40
   7  -4   0   22.20    8.80
  -7   4   0   18.20   10.00
  -7   4   0   17.90    6.20
  -7   4   0   28.90   13.10
   6  -4   0   47.60    4.90
   6  -4   0   44.90    8.50
  -6   4   0   55.09    9.90
  -6   4   0   56.49    6.80
  -6   4   0   48.50    9.10
  -6   4   0   58.09    7.90
   5  -4   0   33.80    4.60
   5  -4   0   10.10    6.50
   5  -4   0   32.50    3.80
   5  -4   0   30.80    4.50
  -5   4   0   42.20    7.00
  -5   4   0   25.50    7.60
  -5   4   0   30.40    5.70
  -5   4   0   16.80    6.90
   4  -4   0  171.08   11.90
   4  -4   0  177.38    8.60
   4  -4   0  165.38   10.00
  -4   4   0  185.28   11.00
  -4   4   0  158.78   11.40
  -4   4   0  155.38   11.30
  -4   4   0  162.68   10.50
   3  -4   0  562.94   22.30
   3  -4   0  537.45   20.00
   3  -4   0  542.65   19.70
  -3   4   0  533.15   19.90
  -3   4   0  558.84   20.20
  -3   4   0  542.25   25.10
  -3   4   0  575.14   19.50
  -3   4   0  555.94   21.00
   2  -4   0  316.97   12.70
   2  -4   0  303.17   13.20
   2  -4   0  306.17   14.00
  -2   4   0  301.67   12.60
  -2   4   0  280.57   11.80
  -2   4   0  290.87   13.70
  -2   4   0  303.67   16.30
   1  -4   0  618.44   22.50
   1  -4   0  651.63   22.80
   1  -4   0  625.74   22.60
  -1   4   0  650.43   22.50
  -1   4   0  643.54   23.30
  -1   4   0  639.14   20.30
   0  -4   0 3459.35  104.99
   0  -4   0 3469.25  104.89
   0  -4   0 3411.26  104.09
   0   4   0 3593.34  104.99
   0   4   0 3738.53  105.19
   0   4   0 3546.15  105.49
   0   4   0 3483.45  103.49
  -1  -4   0  197.98    9.90
  -1  -4   0  177.48    8.10
  -1  -4   0  191.98    9.70
   1   4   0  188.58    9.50
   1   4   0  174.08   10.60
   1   4   0  192.88    9.80
   1   4   0  184.38    9.60
  -2  -4   0 4252.67  128.79
  -2  -4   0 4496.05  129.69
  -2  -4   0 4529.05  131.59
   2   4   0 4554.34  131.29
   2   4   0 4221.08  128.89
   2   4   0 4667.03  131.79
   2   4   0 4334.17  131.89
  -3  -4   0 1044.60   38.00
  -3  -4   0 1113.29   35.40
  -3  -4   0 1130.89   34.70
  -3  -4   0 1077.69   38.70
  -3  -4   0 1110.69   37.30
   3   4   0 1174.98   36.90
   3   4   0 1160.88   35.10
   3   4   0 1136.19   34.20
   3   4   0 1096.59   38.50
   3   4   0 1074.19   37.40
  -4  -4   0  400.86   18.50
  -4  -4   0  429.16   17.60
  -4  -4   0  423.46   16.30
  -4  -4   0  387.56   18.50
  -4  -4   0  397.26   19.30
   4   4   0  442.36   19.40
   4   4   0  434.56   20.30
   4   4   0  404.46   16.90
   4   4   0  389.06   14.40
   4   4   0  420.86   15.30
  -5  -4   0  932.91   32.90
  -5  -4   0  972.00   36.30
  -5  -4   0  928.61   31.50
  -5  -4   0  943.91   34.60
  -5  -4   0  976.30   33.90
   5   4   0  973.70   30.50
   5   4   0  883.51   39.90
   5   4   0  948.61   32.10
   5   4   0  925.61   29.20
   5   4   0  932.01   34.00
  -6  -4   0   62.09    7.90
  -6  -4   0   57.49   10.10
  -6  -4   0   62.39   12.00
  -6  -4   0   55.29    9.70
  -6  -4   0   73.79    8.00
   6   4   0   32.80    9.10
   6   4   0   70.49    7.40
   6   4   0   74.29    7.10
   6   4   0   73.69    8.50
   6   4   0   45.50    9.70
   6   4   0   63.39    6.90
  -7  -4   0  163.18   18.10
  -7  -4   0  179.78   17.60
   7   4   0  147.59   19.80
   7   4   0  164.58   10.00
   7   4   0  161.78   16.10
   7   4   0  156.98   10.30
  -8  -4   0   91.69   15.40
  -8  -4   0  118.19   26.20
   8   4   0  120.09   18.20
   8  -5   0   50.29   13.70
   8  -5   0   17.20   13.10
  -8   5   0   10.30    7.70
   7  -5   0  125.89   17.60
   7  -5   0  105.49   14.40
  -7   5   0  135.99   16.20
  -7   5   0  137.49   14.30
   6  -5   0   68.99   10.60
  -6   5   0   75.39   10.60
  -6   5   0   57.69    9.50
  -6   5   0   60.59    8.70
  -6   5   0   56.69   10.40
   5  -5   0   59.89    9.10
   5  -5   0   60.09    7.30
   5  -5   0   53.29    6.90
  -5   5   0   65.09    9.00
  -5   5   0   46.60    9.20
  -5   5   0   50.19    8.60
  -5   5   0   55.69    7.90
   4  -5   0  381.86   19.50
   4  -5   0  396.86   17.70
   4  -5   0  388.16   16.10
  -4   5   0  396.46   19.20
  -4   5   0  397.16   17.10
  -4   5   0  394.86   17.40
  -4   5   0  377.66   16.50
   3  -5   0 1141.59   37.00
   3  -5   0 1121.69   37.40
   3  -5   0 1064.59   38.80
  -3   5   0 1119.09   38.10
  -3   5   0 1089.19   36.10
  -3   5   0 1099.59   37.10
  -3   5   0 1170.58   35.70
  -3   5   0 1085.19   42.30
   2  -5   0    3.70    3.30
   2  -5   0   13.50    5.70
   2  -5   0    9.50    3.60
  -2   5   0   10.40    3.80
  -2   5   0    8.90    7.50
  -2   5   0   12.10    6.00
   1  -5   0  836.82   29.80
   1  -5   0  827.52   29.60
   1  -5   0  848.72   30.30
  -1   5   0  847.32   27.00
  -1   5   0  845.42   29.80
  -1   5   0  893.81   32.10
  -1   5   0  881.91   30.90
   0  -5   0  415.86   16.20
   0  -5   0  392.86   17.00
   0  -5   0  437.46   18.30
   0  -5   0  408.46   17.60
   0   5   0  416.06   17.20
   0   5   0  409.46   18.40
   0   5   0  401.76   15.70
  -1  -5   0   63.19    8.60
  -1  -5   0   87.69    5.90
  -1  -5   0   76.89    7.20
  -1  -5   0   75.69    9.90
   1   5   0   78.89    7.20
   1   5   0   74.39    8.70
   1   5   0   52.79    7.50
   1   5   0   66.19    6.60
  -2  -5   0  324.67   14.60
  -2  -5   0  260.97   14.90
  -2  -5   0  327.37   15.30
  -2  -5   0  310.67   12.30
   2   5   0  315.27   15.10
   2   5   0  310.77   14.00
   2   5   0  317.77   14.50
   2   5   0  296.67   17.00
  -3  -5   0  143.79   10.60
  -3  -5   0  145.29   10.60
  -3  -5   0  148.99   12.80
  -3  -5   0  151.58    7.90
  -3  -5   0  127.19   12.00
   3   5   0  144.09    9.80
   3   5   0  140.99    9.00
   3   5   0  112.29   10.50
   3   5   0  142.59   13.50
  -4  -5   0   -2.80    4.80
  -4  -5   0    5.40    4.80
  -4  -5   0    3.10    6.80
  -4  -5   0    7.20    7.30
   4   5   0   14.60    6.40
   4   5   0    5.60    4.10
   4   5   0    0.30    7.90
   4   5   0   14.20    4.60
  -5  -5   0  249.97   15.10
  -5  -5   0  240.98   18.30
  -5  -5   0  241.18   17.70
  -5  -5   0  238.18   14.10
   5   5   0  242.38   17.00
   5   5   0  235.28   11.00
   5   5   0  241.38   19.20
   5   5   0  246.58   11.90
   5   5   0  254.67   14.30
  -6  -5   0   50.79    8.60
  -6  -5   0   40.50   12.10
  -6  -5   0   37.60    7.60
   6   5   0   37.40   11.60
   6   5   0   32.50    9.70
   6   5   0   44.00    5.70
   6   5   0   40.00    7.10
  -7  -5   0   -5.90   11.80
   7   5   0   -0.70    6.20
   7   5   0    3.30   12.20
  -8  -5   0   -1.90   10.30
   8   5   0   -1.30   15.30
   7  -6   0   -5.30   10.50
   7  -6   0  -20.00   10.80
  -7   6   0   -4.00    6.40
   6  -6   0   94.59    8.70
   6  -6   0   87.99    9.40
   6  -6   0   57.99   11.20
  -6   6   0   74.19   10.60
   5  -6   0   43.90    9.00
   5  -6   0   71.19    9.10
   5  -6   0   52.29    9.40
  -5   6   0   32.30    9.20
  -5   6   0   51.59    7.30
  -5   6   0   52.59    8.80
  -5   6   0   45.40   13.10
   4  -6   0  121.59   14.00
   4  -6   0  120.89   10.50
   4  -6   0  128.99   12.50
  -4   6   0  121.59   12.10
  -4   6   0  116.39   10.30
  -4   6   0  122.39   10.40
  -4   6   0  131.09   16.30
   3  -6   0   34.80    6.20
   3  -6   0   32.10    8.20
   3  -6   0   46.20    7.60
  -3   6   0   28.90    8.80
  -3   6   0   24.70    6.10
  -3   6   0   34.20   11.50
  -3   6   0   36.20    6.40
  -3   6   0   39.80    5.80
   2  -6   0  107.99   12.80
   2  -6   0  111.89    9.30
   2  -6   0   99.19    9.60
  -2   6   0  116.59    9.70
  -2   6   0  117.49    6.00
  -2   6   0   90.89   12.40
  -2   6   0  108.29    5.60
  -2   6   0  100.49   13.70
   1  -6   0   72.19    8.00
   1  -6   0   69.09    7.70
   1  -6   0   65.49    8.50
  -1   6   0   54.49    8.60
  -1   6   0   64.19    9.90
  -1   6   0   68.39    5.90
  -1   6   0   68.39    8.20
   0  -6   0   30.70    5.10
   0  -6   0   16.30    6.70
   0  -6   0   36.40    6.20
   0  -6   0   25.90    7.10
   0   6   0   22.60    7.50
   0   6   0   35.00    8.20
   0   6   0   32.10    5.40
   0   6   0   34.60    5.00
  -1  -6   0   -0.60    4.10
  -1  -6   0    1.80    3.20
  -1  -6   0    1.30    6.00
  -1  -6   0    1.70    5.50
   1   6   0   -4.40    6.70
   1   6   0    0.00    3.70
   1   6   0    8.70    6.60
   1   6   0    5.50    3.90
  -2  -6   0    7.80    4.50
  -2  -6   0    9.10    7.00
  -2  -6   0    3.00    5.60
  -2  -6   0    5.80    3.30
   2   6   0    8.00    8.60
   2   6   0    6.10    4.80
   2   6   0   -2.10    3.80
   2   6   0   14.30    6.40
  -3  -6   0  316.57   13.40
  -3  -6   0  307.27   19.40
  -3  -6   0  293.77   16.30
  -3  -6   0  319.87   16.90
  -3  -6   0  335.27   17.30
   3   6   0  308.57   15.80
   3   6   0  325.47   17.80
   3   6   0  297.47   20.60
   3   6   0  313.27   16.30
  -4  -6   0    1.40    6.70
  -4  -6   0   -1.20    7.70
  -4  -6   0   -2.70    3.80
  -4  -6   0   -0.90    5.50
   4   6   0   17.30    7.00
   4   6   0   -5.90   10.20
   4   6   0    3.60    5.90
   4   6   0    6.00    5.20
  -5  -6   0   69.89    9.90
  -5  -6   0   72.79   11.90
  -5  -6   0   52.69    9.60
   5   6   0   46.00    8.10
   5   6   0   59.39   11.00
   5   6   0   62.49    7.30
  -6  -6   0   13.10    8.20
  -6  -6   0   27.90   12.00
   6   6   0    7.30    6.90
   6   6   0    7.90   10.10
  -7  -6   0    9.00   13.60
   7   6   0    5.10    8.10
   7   6   0  -18.60   12.20
   7  -7   0   12.50   13.10
   7  -7   0   33.40   15.40
  -7   7   0   37.00    8.60
   6  -7   0   40.00   11.80
   6  -7   0   54.49    7.70
  -6   7   0   54.59   10.30
   5  -7   0  229.78   19.10
   5  -7   0  238.38   20.90
   5  -7   0  268.17   15.80
  -5   7   0  266.37   18.90
  -5   7   0  260.37   16.70
  -5   7   0  259.57   15.90
   4  -7   0   12.20    6.40
   4  -7   0    3.30    6.00
   4  -7   0    7.40   10.30
  -4   7   0    0.80    5.80
  -4   7   0    8.90    6.40
  -4   7   0    1.80    7.60
   3  -7   0  167.78   13.80
   3  -7   0  164.08   12.60
   3  -7   0  177.88   18.20
  -3   7   0  171.68   11.50
  -3   7   0  148.39   12.50
  -3   7   0  180.88   13.50
   2  -7   0   81.29   10.70
   2  -7   0   80.79   12.00
   2  -7   0   82.99   10.20
  -2   7   0   66.39   11.30
  -2   7   0   84.09   15.20
  -2   7   0   78.39    6.40
  -2   7   0   89.29    8.10
  -2   7   0   78.59    9.10
   1  -7   0    5.80    9.10
   1  -7   0    3.20    7.70
   1  -7   0    4.10    4.20
   1  -7   0   -3.70    5.00
  -1   7   0    6.10    3.50
  -1   7   0   -2.60    9.40
  -1   7   0    0.80    9.30
  -1   7   0    2.40    5.40
   0  -7   0   64.49    8.00
   0  -7   0   66.39    8.80
   0  -7   0   64.69   10.40
   0  -7   0   49.70    9.70
   0   7   0   60.69    7.10
   0   7   0   63.79   11.90
   0   7   0   52.49   10.70
   0   7   0   48.40    8.00
  -1  -7   0  414.66   17.50
  -1  -7   0  382.26   20.50
  -1  -7   0  419.86   20.70
   1   7   0  427.36   19.10
   1   7   0  382.46   24.10
   1   7   0  403.16   19.40
   1   7   0  392.46   21.90
  -2  -7   0   70.19    9.70
  -2  -7   0   66.59    7.70
  -2  -7   0   58.69   11.50
  -2  -7   0   75.69   10.00
   2   7   0   55.89   10.10
   2   7   0   69.39    9.10
   2   7   0   73.39   13.00
  -3  -7   0  142.49   13.40
  -3  -7   0  151.58   15.10
  -3  -7   0  141.89    9.90
   3   7   0  132.19   15.30
   3   7   0  112.19   15.30
   3   7   0  122.19   12.90
  -4  -7   0   45.80    9.50
  -4  -7   0   43.40    6.20
  -4  -7   0   55.19   11.10
  -4  -7   0   51.59    9.70
   4   7   0   53.09   10.70
   4   7   0   52.79    8.80
   4   7   0   30.30   14.70
   4   7   0   44.10   12.10
  -5  -7   0    1.20   10.10
  -5  -7   0   15.80   13.50
  -5  -7   0    7.40    8.20
   5   7   0   -8.80   15.40
   5   7   0    3.10   10.20
   5   7   0    8.40    7.50
   5   7   0    5.00    8.90
  -6  -7   0  -10.00    9.10
  -6  -7   0   12.70   12.80
   6   7   0    6.10    8.50
   6   7   0    7.70   12.40
  -7  -7   0   26.20   15.80
   7   7   0   30.20   11.10
   6  -8   0    3.70   11.50
   6  -8   0   -1.50    8.00
  -6   8   0   -4.90    6.30
   5  -8   0   31.90    8.90
   5  -8   0   53.29   12.60
  -5   8   0   43.80   11.10
  -5   8   0   56.49    9.50
   4  -8   0   64.39   11.00
   4  -8   0   70.89   15.20
   4  -8   0   64.49    9.70
  -4   8   0   57.09    8.90
  -4   8   0   80.79   10.60
  -4   8   0   67.99   10.50
   3  -8   0   56.39   10.00
   3  -8   0   74.69   14.20
   3  -8   0   79.89   10.40
  -3   8   0   65.09    9.70
  -3   8   0   84.49    9.80
   2  -8   0   74.49   11.10
   2  -8   0   38.50   11.90
   2  -8   0   61.19    9.30
  -2   8   0   48.70    5.40
  -2   8   0   57.39    7.60
  -2   8   0   47.20    8.50
   1  -8   0  312.77   20.80
   1  -8   0  377.66   20.00
   1  -8   0  374.96   25.30
  -1   8   0  411.86   21.30
  -1   8   0  369.26   28.20
  -1   8   0  386.66   16.40
   0  -8   0   20.00    7.90
   0  -8   0   21.70    6.10
   0  -8   0   -0.30    9.80
   0  -8   0   21.90   12.00
   0   8   0   30.60    9.30
   0   8   0   34.80   13.00
   0   8   0   18.20    6.10
  -1  -8   0    5.80    9.50
  -1  -8   0   -4.50    4.40
  -1  -8   0   -4.70    6.70
   1   8   0    7.00    5.90
   1   8   0    6.10    6.80
   1   8   0   -7.90   11.10
   1   8   0    0.30   11.60
  -2  -8   0  226.38   13.10
  -2  -8   0  222.98   19.50
  -2  -8   0  229.08   18.50
   2   8   0  229.38   21.30
   2   8   0  210.58   26.30
   2   8   0  218.08   17.40
   2   8   0  219.88   16.60
  -3  -8   0   78.89   19.70
  -3  -8   0   76.89    9.50
  -3  -8   0   64.69   11.80
   3   8   0   82.79   18.40
   3   8   0   68.49   10.30
   3   8   0   75.89   11.80
   3   8   0   83.19   13.30
  -4  -8   0   52.99   11.70
  -4  -8   0   85.29   12.70
  -4  -8   0   75.59   10.50
  -4  -8   0   74.39   12.90
   4   8   0   86.99   12.00
   4   8   0   75.99   13.20
   4   8   0   67.29   20.00
   4   8   0  109.59   13.70
  -5  -8   0   75.89   14.60
  -5  -8   0  139.89   18.60
   5   8   0   85.39   13.50
   5   8   0   95.39   16.80
  -6  -8   0    2.90   14.30
   6   8   0   34.40   11.80
   6   8   0  -14.20   14.20
   5  -9   0    7.90   10.30
   5  -9   0   23.30   12.20
  -5   9   0   20.20   11.70
   4  -9   0   54.69   10.80
   4  -9   0   63.29   13.00
  -4   9   0   40.50   11.10
  -4   9   0   47.50   11.40
   3  -9   0    0.30   15.50
   3  -9   0    3.90    8.60
   3  -9   0   19.80    9.30
  -3   9   0    8.70    8.90
  -3   9   0   -2.10    8.60
   2  -9   0   99.89   13.50
   2  -9   0   81.49   12.10
   2  -9   0   62.59   16.70
  -2   9   0   65.89    6.30
  -2   9   0   48.20   17.60
   1  -9   0   34.40   15.90
   1  -9   0   33.30    9.20
   1  -9   0   31.80    7.80
  -1   9   0   43.60    6.80
  -1   9   0   14.30    9.60
   0  -9   0   14.20    7.10
   0  -9   0   17.20    7.60
   0   9   0    9.60    6.50
   0   9   0    7.30    8.50
  -1  -9   0   18.10    8.80
   1   9   0   -7.00   15.20
   1   9   0   25.10    8.40
   1   9   0    2.80    8.00
  -2  -9   0   10.80    9.40
  -2  -9   0   26.80   16.70
  -2  -9   0   24.60    7.10
   2   9   0   16.90    9.10
   2   9   0   36.80   16.20
   2   9   0    6.50    9.60
  -3  -9   0   12.30   10.70
  -3  -9   0   18.10    7.20
  -3  -9   0    4.30   12.40
   3   9   0   34.70   11.10
   3   9   0   46.20   11.70
   3   9   0   32.00   15.40
  -4  -9   0   16.00   12.70
  -4  -9   0    1.30   10.90
   4   9   0   35.40   12.10
   4   9   0   23.60   12.00
  -5  -9   0   11.50   13.60
  -5  -9   0   12.70   13.60
   5   9   0   -7.40   11.90
   5   9   0    4.30   14.00
   4 -10   0   15.40   12.40
  -4  10   0   -6.70   11.40
   3 -10   0    0.20   11.10
   3 -10   0   31.00   12.90
  -3  10   0    8.10   10.50
  -3  10   0   -0.90   12.10
   2 -10   0   18.20   11.20
   2 -10   0   -8.20    8.90
  -2  10   0   -3.10   10.70
   1 -10   0   65.79   13.80
   1 -10   0   51.89   10.90
  -1  10   0   61.59   14.00
   0 -10   0   38.50   12.00
   0 -10   0   55.29   10.20
   0  10   0   51.99   12.60
   0  10   0   40.10    9.30
  -1 -10   0    5.70    8.00
  -1 -10   0   10.50   11.40
   1  10   0   -0.60    9.00
   1  10   0   -4.90   11.10
  -2 -10   0   42.90   14.40
  -2 -10   0   46.70   10.00
   2  10   0   29.50   12.40
   2  10   0   53.69   13.20
  -3 -10   0    0.40   12.90
  -3 -10   0   -3.60    8.60
   3  10   0    0.90   12.70
   3  10   0    7.50   11.90
  -4 -10   0    2.20   14.90
   4  10   0   15.20   16.30
   1 -11   0  -10.90   11.30
   1 -11   0    0.10   23.50
  -1  11   0   11.00   14.90
   0 -11   0   -0.20   13.60
   0 -11   0    6.80   10.80
   0  11   0  -18.70   14.10
  -1 -11   0   51.89   16.70
  -1 -11   0    4.70   10.40
   1  11   0   32.60   15.40
   0  11  -1   34.50   14.60
   0 -11   1   40.10   11.70
   0 -11   1    2.60   24.50
   3  10  -1   19.80   14.30
   3  10  -1   -1.50   12.30
  -3 -10   1    9.60   15.00
   2  10  -1    0.70   12.50
   2  10  -1   31.10   12.40
  -2 -10   1   -4.60   11.20
  -2 -10   1  -14.00    7.70
   1  10  -1    0.50   11.60
   1  10  -1   -3.10    9.80
  -1 -10   1    7.40    8.10
  -1 -10   1  -22.50   10.60
   0  10  -1  -10.30   10.10
   0  10  -1  -12.70    8.10
   0 -10   1   18.90    8.70
   0 -10   1    1.50   11.70
  -1  10  -1  -12.70   10.60
   1 -10   1   39.80   12.20
   1 -10   1   34.90   10.00
  -2  10  -1   19.90   12.10
   2 -10   1   15.90   11.70
   2 -10   1    2.50    9.90
  -3  10  -1   28.20   13.20
  -3  10  -1   26.10   11.30
   3 -10   1   19.50   11.60
   3 -10   1   11.10   12.00
  -4  10  -1   10.60   11.50
   4 -10   1  -18.90   12.20
   5   9  -1   -2.40   21.60
   5   9  -1   15.10   16.40
  -5  -9   1    0.80   13.70
   4   9  -1   -5.60   10.20
   4   9  -1   14.10   13.80
  -4  -9   1    0.50   11.90
   3   9  -1   10.50   10.60
   3   9  -1   -2.50   10.10
  -3  -9   1   10.80    6.30
  -3  -9   1   10.40   11.30
   2   9  -1  100.99   19.40
   2   9  -1   84.49   13.10
   2   9  -1  106.49   13.70
  -2  -9   1  122.69   15.20
  -2  -9   1  119.19   11.70
   1   9  -1  112.99   20.30
   1   9  -1  153.88   17.10
   1   9  -1  149.99   16.00
  -1  -9   1  136.39   17.40
  -1  -9   1  155.68   13.40
   0   9  -1    0.30    6.70
   0   9  -1   -7.40    8.00
   0  -9   1    6.20    6.60
   0  -9   1    9.60    8.70
  -1   9  -1  103.49   14.00
  -1   9  -1  135.89   12.00
  -1   9  -1  135.89   15.20
   1  -9   1  113.79   14.10
   1  -9   1  124.99   14.10
  -2   9  -1   47.80   11.20
   2  -9   1   36.20    9.80
   2  -9   1   49.40   10.30
   2  -9   1   40.20   17.30
  -3   9  -1   31.30   10.50
   3  -9   1    0.00    8.90
   3  -9   1   24.50   10.10
   3  -9   1   11.10   17.10
  -4   9  -1   26.50   10.40
  -4   9  -1    9.80    9.90
   4  -9   1   16.70   10.30
   4  -9   1   22.00   11.50
  -5   9  -1   42.50   10.50
   5  -9   1   55.09   14.70
   5  -9   1   52.29   12.00
   6   8  -1    3.80   11.60
  -6  -8   1   21.70   14.40
   5   8  -1   28.10   14.10
   5   8  -1   16.60   10.60
  -5  -8   1    5.60   12.50
   4   8  -1   29.80    9.80
   4   8  -1   31.00   20.80
   4   8  -1   60.09   12.60
  -4  -8   1   43.90   11.40
  -4  -8   1   41.10    6.40
  -4  -8   1   31.90   12.50
   3   8  -1   36.00   18.50
   3   8  -1   41.30   10.40
   3   8  -1   21.90   12.70
   3   8  -1   34.60    8.80
  -3  -8   1   28.40    5.80
  -3  -8   1   43.70   10.40
  -3  -8   1   31.30   12.00
  -3  -8   1   31.90   10.80
   2   8  -1    0.10   12.10
   2   8  -1   14.40   11.40
   2   8  -1    7.20    7.40
   2   8  -1    2.20   15.90
  -2  -8   1    8.10    8.30
  -2  -8   1   25.70   11.20
   1   8  -1  237.88   15.50
   1   8  -1  164.78   22.30
   1   8  -1  238.18   23.50
   1   8  -1  228.18   17.30
  -1  -8   1  201.98   21.30
  -1  -8   1  211.08   16.30
  -1  -8   1  226.78   13.30
   0   8  -1    8.00    7.20
   0   8  -1   14.90    5.70
   0   8  -1   11.60   13.50
   0  -8   1   -6.40   11.50
   0  -8   1   15.60    6.00
   0  -8   1   13.00   11.70
   0  -8   1   21.00    7.90
  -1   8  -1   55.89    7.80
  -1   8  -1   49.90   16.40
  -1   8  -1   54.49    9.20
  -1   8  -1   75.09    8.90
   1  -8   1   52.69   10.30
   1  -8   1   48.90    8.50
   1  -8   1   54.59   14.10
  -2   8  -1  106.59   13.10
  -2   8  -1   98.69   10.40
  -2   8  -1   90.79    7.80
   2  -8   1   88.59   11.20
   2  -8   1   94.99   14.50
   2  -8   1  100.79   12.30
  -3   8  -1  376.26   21.00
   3  -8   1  348.67   27.90
   3  -8   1  324.17   19.50
   3  -8   1  325.07   20.20
  -4   8  -1   38.60    8.00
  -4   8  -1   21.80    9.10
  -4   8  -1   20.40    9.00
   4  -8   1   18.80    8.80
   4  -8   1   41.20    8.80
   4  -8   1   39.50   15.10
  -5   8  -1  223.08   26.10
  -5   8  -1  201.98   15.60
   5  -8   1  219.58   17.90
   5  -8   1  220.68   21.60
  -6   8  -1   28.60    9.60
   6  -8   1   15.00    9.00
   6  -8   1   12.90   12.30
   6   7  -1  -18.30   11.80
   6   7  -1    1.40    8.90
  -6  -7   1    1.40   12.50
   5   7  -1    4.10   10.50
   5   7  -1   24.40   18.10
   5   7  -1   18.90    8.30
  -5  -7   1    9.80    9.00
  -5  -7   1   23.50   11.30
   4   7  -1   18.10    8.50
   4   7  -1   44.20    8.10
   4   7  -1   36.60    9.00
   4   7  -1   17.30   15.30
  -4  -7   1   33.60    9.80
  -4  -7   1   38.80    5.30
  -4  -7   1   41.90    9.10
  -4  -7   1   22.60   10.60
   3   7  -1  110.79   12.40
   3   7  -1  115.09   13.90
   3   7  -1  101.09   16.40
  -3  -7   1  113.69   13.70
  -3  -7   1  114.99    8.60
  -3  -7   1  128.39   16.60
  -3  -7   1   92.69   12.80
   2   7  -1   14.30   10.90
   2   7  -1   39.50    7.80
   2   7  -1   22.30    6.80
   2   7  -1   28.00    9.30
  -2  -7   1   32.10    9.40
  -2  -7   1   24.70    4.80
  -2  -7   1   18.70    7.10
  -2  -7   1   31.20   12.90
   1   7  -1  286.77   22.50
   1   7  -1  271.97   19.90
   1   7  -1  272.17   16.60
   1   7  -1  278.87   15.40
  -1  -7   1  294.67   19.10
  -1  -7   1  261.57   20.60
  -1  -7   1  254.17   16.50
  -1  -7   1  272.57   13.30
   0   7  -1   87.09   13.60
   0   7  -1   74.39    8.90
   0   7  -1  104.89   13.50
   0   7  -1   87.29   10.00
   0  -7   1   78.59    8.40
   0  -7   1   80.99   11.30
   0  -7   1   77.09   11.10
   0  -7   1   80.29    9.80
  -1   7  -1  349.27   24.30
  -1   7  -1  355.56   18.10
  -1   7  -1  323.27   22.90
  -1   7  -1  327.07   14.70
   1  -7   1  349.57   21.70
   1  -7   1  349.57   18.50
   1  -7   1  337.67   17.00
   1  -7   1  330.97   21.40
  -2   7  -1   41.10    7.50
  -2   7  -1   31.00   11.10
  -2   7  -1   35.20    5.40
  -2   7  -1   29.20   13.50
  -2   7  -1   23.70    3.80
   2  -7   1   20.90    9.50
   2  -7   1   27.00   10.80
   2  -7   1   25.60    6.90
   2  -7   1   15.20    7.60
  -3   7  -1  132.79    9.90
  -3   7  -1  101.39   11.40
   3  -7   1  102.89   11.60
   3  -7   1  138.89   13.10
   3  -7   1  154.98   18.70
  -4   7  -1    0.70    6.30
  -4   7  -1    2.40    7.30
  -4   7  -1    2.60    5.80
   4  -7   1    8.20    6.20
   4  -7   1  -13.00    6.40
   4  -7   1   -6.70   10.80
  -5   7  -1   16.50    9.10
  -5   7  -1   12.70    7.60
  -5   7  -1   20.40    7.70
   5  -7   1   26.40   11.90
   5  -7   1   21.90    9.20
   5  -7   1   19.10    7.30
  -6   7  -1   42.20   10.00
   6  -7   1   27.00    7.60
   6  -7   1   43.30   12.40
  -7   7  -1   12.10    7.30
   7  -7   1   -5.20   13.30
   7   6  -1   33.60    9.40
   7   6  -1   48.50   16.30
  -7  -6   1   16.20   13.90
   6   6  -1   33.80    8.60
   6   6  -1    8.60   11.10
  -6  -6   1   58.29   12.80
  -6  -6   1    9.20    8.30
   5   6  -1   12.30    8.40
   5   6  -1   12.20    5.70
   5   6  -1   18.10    7.00
  -5  -6   1   13.80    8.80
  -5  -6   1   10.70    7.70
  -5  -6   1   12.10    9.70
   4   6  -1  115.19   11.50
   4   6  -1  133.39   15.40
   4   6  -1  132.59   10.60
   4   6  -1  166.38   14.90
  -4  -6   1  125.19   13.70
  -4  -6   1  111.09   12.10
  -4  -6   1  122.49   14.90
   3   6  -1   12.70   10.40
   3   6  -1   -1.30    5.90
   3   6  -1    6.80    5.20
   3   6  -1    5.10    5.50
  -3  -6   1   -8.30    6.30
  -3  -6   1    1.30    4.70
  -3  -6   1   -0.30    6.80
  -3  -6   1    2.30    8.20
  -3  -6   1    3.50    3.00
   2   6  -1   23.40    5.90
   2   6  -1   27.70    9.70
   2   6  -1   32.10    7.40
  -2  -6   1   29.10    7.40
  -2  -6   1   29.80    6.10
  -2  -6   1   33.50    4.40
  -2  -6   1   16.90    8.50
   1   6  -1   33.80    5.70
   1   6  -1   44.40    9.10
   1   6  -1   51.09    8.60
  -1  -6   1   55.49    7.60
  -1  -6   1   40.00    7.80
  -1  -6   1   41.70    8.40
  -1  -6   1   52.79    6.10
   0   6  -1   68.39    8.80
   0   6  -1   50.09    9.30
   0   6  -1   52.29    9.70
   0  -6   1   65.59    6.80
   0  -6   1   65.69    8.00
   0  -6   1   52.49    8.70
   0  -6   1   55.99    8.20
  -1   6  -1  122.79   13.10
  -1   6  -1  138.39   15.50
  -1   6  -1  134.79    9.70
   1  -6   1  131.59   13.50
   1  -6   1  139.39    9.80
   1  -6   1  109.49    9.80
   1  -6   1  118.79   13.50
  -2   6  -1  139.99   15.50
  -2   6  -1  146.59    8.30
  -2   6  -1  162.68    7.30
  -2   6  -1  135.79    8.90
  -2   6  -1  166.48   11.50
  -2   6  -1  153.28   17.80
   2  -6   1  147.09   13.90
   2  -6   1  146.29   11.30
   2  -6   1  156.98   15.50
   2  -6   1  179.08   11.50
  -3   6  -1   38.70    6.30
  -3   6  -1   27.90    5.30
  -3   6  -1   27.30    6.00
  -3   6  -1   26.20    9.40
   3  -6   1   30.20    7.00
   3  -6   1   16.70    5.50
   3  -6   1   36.90    8.80
  -4   6  -1    2.70    5.10
  -4   6  -1    3.20    5.60
  -4   6  -1   -6.50    9.20
  -4   6  -1    1.70    6.20
   4  -6   1   11.80    8.50
   4  -6   1    3.70    4.70
   4  -6   1   -6.60    5.90
  -5   6  -1   13.60    5.90
  -5   6  -1   21.30    8.20
  -5   6  -1   19.00    7.30
   5  -6   1   14.10    5.70
   5  -6   1   11.50    8.90
   5  -6   1   -4.30    7.50
  -6   6  -1   41.30    9.60
   6  -6   1   74.69    9.30
   6  -6   1   60.29   11.00
   6  -6   1   64.89   12.30
  -7   6  -1   -7.10    7.60
   7  -6   1   13.50   12.00
   7   5  -1    9.30    6.90
   7   5  -1   40.10   14.20
  -7  -5   1   10.80   12.60
  -7  -5   1    4.30   10.90
   6   5  -1  136.79   12.40
   6   5  -1  112.89   14.80
   6   5  -1   94.89   14.10
   6   5  -1  122.29   11.00
  -6  -5   1  137.69   15.20
  -6  -5   1  145.89   16.20
  -6  -5   1  107.59   13.00
  -6  -5   1  125.39   13.10
   5   5  -1   43.70    9.40
   5   5  -1   40.00    6.00
   5   5  -1   37.00   11.30
  -5  -5   1   35.30    8.30
  -5  -5   1   28.90    9.50
  -5  -5   1   24.60    9.10
  -5  -5   1   29.50    7.30
   4   5  -1   14.70    5.20
   4   5  -1   -3.60    5.60
   4   5  -1   13.80    4.50
   4   5  -1    3.80    8.90
   4   5  -1    7.00    3.70
  -4  -5   1    7.30    8.00
  -4  -5   1   -0.20    4.90
  -4  -5   1    1.80    6.70
  -4  -5   1    6.80    7.30
  -4  -5   1    8.40    6.40
   3   5  -1   25.40    5.00
   3   5  -1   36.70    5.10
   3   5  -1   15.20    6.00
   3   5  -1   27.50    5.60
  -3  -5   1   30.90    7.10
  -3  -5   1   32.10    4.10
  -3  -5   1   25.20    5.50
  -3  -5   1   37.00    8.00
  -3  -5   1   26.20    6.30
  -3  -5   1   27.60    6.70
   2   5  -1  173.88   14.80
   2   5  -1  182.88   11.10
   2   5  -1  201.98   11.30
  -2  -5   1  211.88   12.70
  -2  -5   1  199.98   11.70
  -2  -5   1  170.48   13.20
  -2  -5   1  192.28    8.60
   1   5  -1   10.80    6.80
   1   5  -1    2.60    3.90
   1   5  -1    3.30    5.10
  -1  -5   1   -1.50    2.20
  -1  -5   1    5.30    3.90
  -1  -5   1    2.60    5.50
  -1  -5   1    5.40    4.70
   0   5  -1  133.29   11.40
   0   5  -1  118.89    8.50
   0   5  -1  105.29   10.80
   0  -5   1  132.99   10.70
   0  -5   1  127.49    8.80
   0  -5   1  119.19    7.90
   0  -5   1  132.69   10.70
  -1   5  -1  735.13   26.10
  -1   5  -1  742.73   28.70
   1  -5   1  707.93   26.00
   1  -5   1  665.03   25.70
   1  -5   1  695.73   26.80
   1  -5   1  715.73   26.90
  -2   5  -1    1.20    3.10
  -2   5  -1    3.00    2.70
  -2   5  -1    0.70    5.90
  -2   5  -1    2.10    7.10
  -2   5  -1    1.60    3.30
   2  -5   1    6.00    5.70
   2  -5   1    0.70    3.10
   2  -5   1   13.30    4.20
  -3   5  -1    0.70    6.40
  -3   5  -1    8.40    4.50
  -3   5  -1    8.70    4.30
  -3   5  -1    4.80    4.40
   3  -5   1    9.00    5.00
   3  -5   1    7.80    3.50
   3  -5   1    7.90    5.80
  -4   5  -1   38.70    6.30
  -4   5  -1   19.60    4.70
  -4   5  -1   22.40    6.00
  -4   5  -1   36.00    8.40
   4  -5   1   19.10    4.60
   4  -5   1   24.30    7.00
   4  -5   1   34.80    7.00
  -5   5  -1   59.19   10.00
  -5   5  -1   75.59    8.30
  -5   5  -1   52.69   10.30
  -5   5  -1   78.39    9.80
   5  -5   1   54.09    9.20
   5  -5   1   65.59    7.70
   5  -5   1   65.69    8.30
  -6   5  -1    2.70    8.00
  -6   5  -1   21.40   10.10
  -6   5  -1    6.80    7.40
  -6   5  -1   23.80   10.90
   6  -5   1    9.40    8.20
   6  -5   1    2.60    3.40
  -7   5  -1   11.80    9.80
  -7   5  -1    6.40   10.90
   7  -5   1    3.90    9.80
   7  -5   1    9.40   10.20
  -8   5  -1   23.30    8.40
   8  -5   1   25.30   13.10
   8  -5   1    8.10   12.20
   8   4  -1  -33.20   13.50
  -8  -4   1   12.20   12.40
  -8  -4   1   45.80   20.30
   7   4  -1   15.20   11.40
   7   4  -1   18.50    5.30
   7   4  -1   23.90    5.90
  -7  -4   1   32.50   11.30
  -7  -4   1   20.80   11.90
   6   4  -1    3.80    4.60
   6   4  -1   -5.30    8.30
   6   4  -1   -4.90    4.40
   6   4  -1   -4.20    7.90
  -6  -4   1    1.00    5.50
  -6  -4   1   17.40    9.80
  -6  -4   1   -5.60    8.40
  -6  -4   1    6.20    9.50
  -6  -4   1    7.90    7.80
   5   4  -1  127.79   13.40
   5   4  -1  103.99   14.40
   5   4  -1  106.09    9.00
   5   4  -1  116.89    9.50
  -5  -4   1  112.29   11.60
  -5  -4   1  126.09   14.30
  -5  -4   1  108.89   12.60
  -5  -4   1  130.39   10.40
  -5  -4   1  125.99   14.30
   4   4  -1  192.18   14.50
   4   4  -1  175.68   10.20
   4   4  -1  167.38   12.50
   4   4  -1  179.18    9.80
  -4  -4   1  183.18   12.10
  -4  -4   1  190.68   13.20
  -4  -4   1  167.08   13.20
  -4  -4   1  163.78   13.30
  -4  -4   1  189.48   11.30
   3   4  -1   20.80    3.30
   3   4  -1   17.90    4.00
   3   4  -1    9.90    6.30
   3   4  -1    8.10    3.20
  -3  -4   1   17.00    5.80
  -3  -4   1    7.20    3.90
  -3  -4   1   16.80    5.60
  -3  -4   1   19.60    6.20
  -3  -4   1   16.70    3.10
  -3  -4   1   17.40    5.00
   2   4  -1  153.18   11.70
   2   4  -1  169.68    8.50
   2   4  -1  167.08    8.80
   2   4  -1  150.48    9.10
  -2  -4   1  175.38    9.90
  -2  -4   1  156.08   10.00
  -2  -4   1  157.78   10.90
  -2  -4   1  181.88    7.10
  -2  -4   1  159.78    9.50
  -2  -4   1  162.18   10.80
   1   4  -1  148.59   11.20
   1   4  -1  170.98    9.50
   1   4  -1  162.28    9.40
  -1  -4   1  174.28    9.90
  -1  -4   1  166.88    7.50
  -1  -4   1  156.98    9.20
   0   4  -1   82.89    8.60
   0   4  -1   85.09    6.70
   0  -4   1   81.19    5.90
   0  -4   1   84.19    6.50
   0  -4   1   86.49    8.50
  -1   4  -1  231.38   16.00
  -1   4  -1  239.18    9.10
  -1   4  -1  237.18   12.40
  -1   4  -1  279.97   12.00
   1  -4   1  245.68   11.80
   1  -4   1  244.98   12.80
   1  -4   1  252.47   11.60
   1  -4   1  257.37   12.60
  -2   4  -1  185.08   13.60
  -2   4  -1  197.98    8.80
  -2   4  -1  182.68    7.30
  -2   4  -1  177.98    9.60
  -2   4  -1  181.78   11.30
   2  -4   1  170.08    9.50
   2  -4   1  186.88   10.80
   2  -4   1  191.18   10.90
  -3   4  -1   27.30    4.50
  -3   4  -1   15.10    4.80
  -3   4  -1   23.20    5.70
  -3   4  -1   21.00    3.90
   3  -4   1   21.80    3.70
   3  -4   1   18.70    4.60
   3  -4   1   21.60    5.10
  -4   4  -1  163.58   12.20
  -4   4  -1  165.78   10.10
  -4   4  -1  164.78   11.50
  -4   4  -1  183.18   11.00
   4  -4   1  159.08   10.70
   4  -4   1  168.88    8.80
   4  -4   1  150.08   11.90
   4  -4   1  160.48    6.50
  -5   4  -1  173.68   13.30
  -5   4  -1  157.08   12.90
  -5   4  -1  170.08   11.60
  -5   4  -1  151.68   11.00
   5  -4   1  151.78    8.10
   5  -4   1  172.88   14.00
   5  -4   1  160.08   10.10
  -6   4  -1   42.20    7.90
  -6   4  -1   51.29   10.10
  -6   4  -1   36.40    8.30
   6  -4   1   37.60    9.30
   6  -4   1   32.80    4.30
  -7   4  -1   54.69   11.40
  -7   4  -1   62.49    9.00
   7  -4   1   44.30    6.10
   7  -4   1   47.00   11.10
   7  -4   1   51.99   10.60
  -8   4  -1   35.70    9.00
   8  -4   1   76.09   12.70
   8  -4   1   27.90   12.70
   8   3  -1   47.80   15.40
  -8  -3   1   94.09   15.70
  -8  -3   1   73.09   14.10
   7   3  -1  138.09   18.10
   7   3  -1  126.29   11.30
  -7  -3   1  125.89   16.30
  -7  -3   1  108.19   14.70
  -7  -3   1  105.09   13.30
   6   3  -1   30.90    4.50
   6   3  -1   39.20    9.20
   6   3  -1   29.20    5.60
   6   3  -1   33.30    6.90
  -6  -3   1   34.90    8.30
  -6  -3   1   26.00    8.70
  -6  -3   1   27.70    8.10
  -6  -3   1   34.10    7.60
  -6  -3   1   36.50   10.00
   5   3  -1  172.88   13.90
   5   3  -1  163.28    9.80
   5   3  -1  166.78   12.40
   5   3  -1  149.39    8.90
  -5  -3   1  166.18   12.50
  -5  -3   1  160.48   13.70
  -5  -3   1  152.58   14.00
  -5  -3   1  161.68   12.40
  -5  -3   1  161.18   11.90
   4   3  -1  606.64   22.70
   4   3  -1  588.34   21.10
   4   3  -1  630.14   21.30
   4   3  -1  613.74   24.80
  -4  -3   1  627.34   22.70
  -4  -3   1  591.64   21.90
  -4  -3   1  584.64   23.70
  -4  -3   1  585.14   23.80
  -4  -3   1  594.34   22.00
   3   3  -1  133.89   10.20
   3   3  -1  151.28    8.10
   3   3  -1  142.09    5.40
   3   3  -1  149.49    7.70
  -3  -3   1  140.99    9.90
  -3  -3   1  140.49    9.00
  -3  -3   1  134.49    8.30
  -3  -3   1  148.59    9.60
  -3  -3   1  134.19   10.40
   2   3  -1  198.08    8.70
   2   3  -1  201.48    9.40
   2   3  -1  185.88   10.60
   2   3  -1  186.38    7.70
  -2  -3   1  205.28    9.50
  -2  -3   1  194.18   10.40
  -2  -3   1  203.98    9.70
  -2  -3   1  200.28    7.30
  -2  -3   1  211.48    9.80
  -2  -3   1  196.98   10.40
   1   3  -1 1022.90   31.30
   1   3  -1 1026.70   33.00
   1   3  -1  976.00   32.20
   1   3  -1 1049.79   31.90
  -1  -3   1 1018.20   31.90
  -1  -3   1 1045.90   32.80
  -1  -3   1 1070.79   31.90
  -1  -3   1  911.61   32.20
  -1  -3   1  914.21   30.50
   0   3  -1   97.69    6.00
   0   3  -1   91.79    6.90
   0   3  -1   92.49    6.90
   0  -3   1   87.29    5.90
   0  -3   1   85.39    6.60
   0  -3   1   98.89    7.00
   0  -3   1   98.79    5.60
  -1   3  -1  118.09    5.30
  -1   3  -1  114.29    7.90
  -1   3  -1  111.49    5.30
  -1   3  -1  107.59    6.30
  -1   3  -1  121.39    8.90
   1  -3   1  119.19    7.00
   1  -3   1  125.79    7.80
   1  -3   1  114.29    6.40
   1  -3   1  114.29    7.00
  -2   3  -1  757.02   23.50
  -2   3  -1  696.73   23.70
  -2   3  -1  715.13   21.70
  -2   3  -1  706.13   24.40
   2  -3   1  685.13   23.60
   2  -3   1  725.53   23.90
  -3   3  -1 1060.79   34.30
  -3   3  -1 1104.49   33.00
  -3   3  -1 1087.89   32.60
  -3   3  -1 1081.39   35.40
  -3   3  -1 1067.09   34.80
   3  -3   1 1079.29   32.30
   3  -3   1 1057.99   34.10
   3  -3   1 1086.89   37.30
   3  -3   1 1103.29   33.90
  -4   3  -1   -2.10    3.40
  -4   3  -1    1.50    4.30
  -4   3  -1   -1.60    4.10
  -4   3  -1    4.50    4.90
   4  -3   1    4.00    4.00
   4  -3   1    5.30    3.30
   4  -3   1   -1.50    2.00
   4  -3   1    2.50    2.10
  -5   3  -1  543.25   20.30
  -5   3  -1  568.44   20.00
  -5   3  -1  512.85   22.80
   5  -3   1  543.75   19.20
   5  -3   1  551.84   24.00
  -6   3  -1  114.49   14.00
  -6   3  -1  120.79   12.00
  -6   3  -1  103.39    8.40
  -6   3  -1   96.59   10.00
   6  -3   1  107.29    9.30
   6  -3   1  129.39   14.00
  -7   3  -1   -2.90    8.10
  -7   3  -1    4.90    8.70
   7  -3   1    1.40    7.30
   7  -3   1   -1.50    8.10
   7  -3   1    4.20    5.60
  -8   3  -1  140.89   15.90
   8  -3   1  140.99   14.30
   8  -3   1  178.28   19.70
   8  -3   1  191.68   18.80
   8   2  -1   -1.70    6.20
   8   2  -1  -18.10   10.80
  -8  -2   1   11.00   11.30
  -8  -2   1    1.00   11.00
   7   2  -1    8.20    9.00
   7   2  -1   26.00    5.70
   7   2  -1    7.70    3.80
   7   2  -1    4.90    7.10
  -7  -2   1    9.70   10.10
  -7  -2   1    8.10    9.70
  -7  -2   1   28.50    7.10
  -7  -2   1    9.10    6.80
   6   2  -1   26.20    3.80
   6   2  -1   26.30    5.40
   6   2  -1   33.00    6.00
  -6  -2   1   33.20    6.50
  -6  -2   1   14.30    8.30
  -6  -2   1   26.90    9.00
  -6  -2   1   28.00    6.00
   5   2  -1  110.89   11.20
   5   2  -1  119.59    8.40
   5   2  -1  123.39    7.90
   5   2  -1  119.99    8.40
   5   2  -1  113.79    6.20
   5   2  -1  111.49    6.70
  -5  -2   1  129.29    9.60
  -5  -2   1  104.49   12.00
  -5  -2   1  123.49   12.50
  -5  -2   1  129.99   11.10
  -5  -2   1  120.29    9.30
   4   2  -1   84.79    6.30
   4   2  -1   80.79    8.50
   4   2  -1   81.79    5.20
   4   2  -1   85.29    5.10
   4   2  -1   81.29    5.40
   4   2  -1   72.49    7.40
  -4  -2   1   82.89    8.50
  -4  -2   1   71.99    9.50
  -4  -2   1   82.29    7.40
  -4  -2   1   85.39    7.40
  -4  -2   1   62.19    7.60
   3   2  -1  170.38    8.90
   3   2  -1  153.88    5.40
   3   2  -1  152.88    5.80
   3   2  -1  160.68    7.70
   3   2  -1  166.18    7.50
  -3  -2   1  163.28    9.80
  -3  -2   1  158.68    8.60
  -3  -2   1  158.38    9.90
  -3  -2   1  161.98    8.70
  -3  -2   1  183.38    8.80
   2   2  -1   46.00    5.70
   2   2  -1   41.80    3.80
   2   2  -1   49.90    4.00
  -2  -2   1   40.50    4.90
  -2  -2   1   42.50    4.90
  -2  -2   1   48.30    5.30
  -2  -2   1   41.60    4.80
  -2  -2   1   42.20    4.80
   1   2  -1   63.29    5.40
   1   2  -1   67.99    4.20
   1   2  -1   72.79    3.80
  -1  -2   1   63.79    3.30
  -1  -2   1   68.59    4.20
  -1  -2   1   64.29    4.70
  -1  -2   1   63.99    5.00
  -1  -2   1   67.89    4.90
  -1  -2   1   63.89    5.20
   0   2  -1 1152.68   33.80
   0   2  -1 1028.20   33.90
   0   2  -1 1088.19   33.80
   0   2  -1 1060.99   33.70
   0  -2   1 1012.90   33.80
   0  -2   1 1101.89   33.80
   0  -2   1 1148.09   33.80
   0  -2   1 1178.08   33.00
  -1   2  -1   86.69    5.10
  -1   2  -1   87.39    4.30
  -1   2  -1   76.09    3.90
  -1   2  -1   77.39    5.20
   1  -2   1   76.09    5.00
   1  -2   1   81.09    4.70
   1  -2   1   71.99    5.20
  -2   2  -1    9.00    3.00
  -2   2  -1    8.50    2.00
  -2   2  -1    9.90    2.50
  -2   2  -1    7.00    2.60
   2  -2   1    8.00    1.70
   2  -2   1   10.50    1.80
   2  -2   1    7.10    2.50
   2  -2   1   12.10    3.10
  -3   2  -1    2.90    2.30
  -3   2  -1    1.00    3.80
  -3   2  -1   -1.60    2.40
  -3   2  -1    2.40    2.90
   3  -2   1   -1.40    2.50
   3  -2   1    2.00    2.30
   3  -2   1    2.90    1.60
  -4   2  -1   69.69    6.30
  -4   2  -1   72.39    7.00
  -4   2  -1   71.49    8.40
   4  -2   1   71.59    4.20
   4  -2   1   75.99    3.50
   4  -2   1   66.39    5.60
   4  -2   1   69.59    7.70
  -5   2  -1   11.70    3.10
  -5   2  -1   -0.70    5.10
  -5   2  -1    5.00    5.90
   5  -2   1   11.90    5.10
   5  -2   1    8.40    3.80
  -6   2  -1    2.70    7.40
  -6   2  -1    9.90    6.40
   6  -2   1    7.90    5.00
   6  -2   1    5.90    5.50
   6  -2   1    7.80    6.10
  -7   2  -1   48.70    9.00
  -7   2  -1   45.50   11.30
   7  -2   1   50.79    8.40
   7  -2   1   54.19   11.20
   7  -2   1   54.69    8.00
  -8   2  -1   55.99   11.00
  -8   2  -1   13.60   11.00
   8  -2   1   30.20    8.60
   8  -2   1   49.60   11.30
   8  -2   1   44.40    9.80
  -9   2  -1  -12.20    7.20
   9  -2   1  -18.00   10.90
   9  -2   1   17.60   10.40
   8   1  -1  107.89   14.60
   8   1  -1  119.59   13.00
   8   1  -1   79.29   10.00
  -8  -1   1   79.79   14.10
  -8  -1   1   96.99   14.50
   7   1  -1    0.40    4.60
   7   1  -1   26.70    9.30
   7   1  -1    0.00    5.10
  -7  -1   1    3.90    8.50
  -7  -1   1    5.70    8.80
   6   1  -1   57.39    6.80
   6   1  -1   48.10    8.80
   6   1  -1   49.60    5.80
  -6  -1   1   34.40    8.80
  -6  -1   1   49.30    6.50
  -6  -1   1   42.10    8.70
  -6  -1   1   52.99    6.90
   5   1  -1  359.16   17.20
   5   1  -1  337.27   13.50
   5   1  -1  344.07   14.70
  -5  -1   1  356.86   13.10
  -5  -1   1  335.37   17.10
  -5  -1   1  341.57   13.10
  -5  -1   1  354.06   18.30
   4   1  -1   86.19    3.90
   4   1  -1   85.69    5.00
   4   1  -1   95.39    8.00
   4   1  -1   81.69    5.40
   4   1  -1   81.19    6.40
  -4  -1   1   77.99    9.40
  -4  -1   1   76.99    6.00
  -4  -1   1   86.09    8.40
  -4  -1   1   77.79    8.20
   3   1  -1  514.15   17.30
   3   1  -1  501.95   16.50
   3   1  -1  522.45   16.30
   3   1  -1  497.25   15.90
  -3  -1   1  500.95   17.80
  -3  -1   1  501.45   16.50
  -3  -1   1  503.05   18.90
  -3  -1   1  493.15   18.50
  -3  -1   1  470.75   17.70
   2   1  -1 2759.22   78.89
   2   1  -1 2588.24   78.39
   2   1  -1 2698.23   79.09
   2   1  -1 2487.35   77.39
  -2  -1   1 2766.32   79.59
  -2  -1   1 2836.82   78.89
  -2  -1   1 2729.53   79.19
  -2  -1   1 2717.63   78.59
   1   1  -1   58.59    4.00
   1   1  -1   62.39    3.80
   1   1  -1   50.89    3.20
  -1  -1   1   56.49    3.60
  -1  -1   1   56.79    3.70
  -1  -1   1   58.79    3.60
  -1  -1   1   55.69    3.90
  -1  -1   1   52.09    4.00
   0   1  -1 2312.97   68.49
   0   1  -1 2359.06   68.49
   0   1  -1 2474.95   68.79
   0  -1   1 2242.58   68.49
   0  -1   1 2294.27   68.69
   0  -1   1 2431.06   68.59
  -1   1  -1  663.23   20.20
  -1   1  -1  653.83   20.50
  -1   1  -1  694.63   20.80
  -1   1  -1  685.13   20.60
   1  -1   1  628.04   20.80
   1  -1   1  675.03   20.10
   1  -1   1  667.23   20.50
  -2   1  -1 1408.36   41.60
  -2   1  -1 1337.37   41.40
  -2   1  -1 1392.06   41.90
   2  -1   1 1409.16   41.30
   2  -1   1 1447.16   41.90
   2  -1   1 1416.36   41.30
  -3   1  -1  702.03   23.80
  -3   1  -1  711.63   22.40
  -3   1  -1  726.83   22.80
  -3   1  -1  739.33   25.50
   3  -1   1  748.63   23.70
   3  -1   1  715.93   21.50
   3  -1   1  736.43   21.60
  -4   1  -1  422.76   13.90
  -4   1  -1  406.36   18.70
  -4   1  -1  426.06   14.10
  -4   1  -1  459.25   15.60
   4  -1   1  439.96   16.60
   4  -1   1  426.26   18.20
  -5   1  -1   11.80    2.20
  -5   1  -1   16.40    6.80
  -5   1  -1    9.70    5.30
   5  -1   1    8.60    4.20
   5  -1   1    8.90    4.40
   5  -1   1   10.40    4.00
  -6   1  -1  151.98   12.30
  -6   1  -1  147.19   14.00
   6  -1   1  173.88   11.60
   6  -1   1  169.58   13.00
   6  -1   1  142.69   11.90
  -7   1  -1   31.70   10.70
  -7   1  -1   20.50   10.20
   7  -1   1   30.80    8.00
   7  -1   1   35.30    6.70
   7  -1   1   25.80    7.20
  -8   1  -1   13.50   10.30
  -8   1  -1   40.00   12.30
   8  -1   1   27.20    8.00
   8  -1   1   47.60   11.50
   8  -1   1   31.60   10.50
  -9   1  -1    1.70    8.90
   9  -1   1  -14.70   11.20
   9  -1   1  -14.40   11.00
   8   0  -1   76.19   10.20
   8   0  -1  101.39   13.60
   8   0  -1  116.59   11.80
  -8   0   1   84.69   13.40
   7   0  -1  291.37   14.80
   7   0  -1  285.67   19.20
   7   0  -1  290.37   16.10
  -7   0   1  270.87   20.30
  -7   0   1  302.07   19.80
   6   0  -1   43.00    6.40
   6   0  -1   39.70    7.70
   6   0  -1   54.19    8.00
  -6   0   1   26.60    8.60
  -6   0   1   26.50    8.70
   5   0  -1  761.72   28.70
   5   0  -1  772.12   27.20
   5   0  -1  787.32   26.80
  -5   0   1  794.62   28.40
  -5   0   1  756.72   29.70
   4   0  -1 1343.07   42.00
   4   0  -1 1370.36   43.70
   4   0  -1 1345.57   42.70
  -4   0   1 1385.06   43.20
  -4   0   1 1300.27   44.20
  -4   0   1 1347.07   39.60
  -4   0   1 1351.26   39.50
   3   0  -1 1158.58   35.90
   3   0  -1 1172.48   36.60
  -3   0   1 1167.98   34.30
  -3   0   1 1159.88   34.50
  -3   0   1 1103.39   37.30
  -3   0   1 1244.98   37.10
  -3   0   1 1167.48   37.00
   2   0  -1 4412.66  130.99
   2   0  -1 4559.34  130.19
   2   0  -1 4568.04  131.89
  -2   0   1 4389.06  131.39
  -2   0   1 4506.65  130.39
  -2   0   1 4822.92  131.89
  -2   0   1 4647.14  132.19
  -2   0   1 4468.25  131.89
   1   0  -1  523.25   16.40
   1   0  -1  534.75   16.60
   1   0  -1  573.74   16.80
   1   0  -1  553.74   17.40
  -1   0   1  550.04   17.40
  -1   0   1  536.65   16.50
  -1   0   1  541.05   17.50
  -1   0   1  575.54   16.70
  -1   0   1  577.04   17.20
  -1   0  -1 3263.57   95.99
  -1   0  -1 3291.67   95.59
  -1   0  -1 3280.77   95.69
  -1   0  -1 3521.05   96.19
   1   0   1 3161.18   95.49
   1   0   1 3416.86   95.99
  -2   0  -1 8814.52  246.88
  -2   0  -1 8320.17  246.28
  -3   0  -1 1596.64   47.70
  -3   0  -1 1650.63   48.60
  -3   0  -1 1701.73   51.39
  -3   0  -1 1572.34   50.19
  -3   0  -1 1640.64   47.80
   3   0   1 1633.74   50.19
  -4   0  -1 1033.80   35.90
  -4   0  -1 1035.60   32.70
  -4   0  -1 1013.90   30.70
  -4   0  -1 1043.10   30.90
   4   0   1 1066.39   32.70
   4   0   1 1015.20   34.40
  -5   0  -1  211.48    8.10
  -5   0  -1  205.48    7.70
  -5   0  -1  221.38   12.00
  -5   0  -1  221.48   14.90
   5   0   1  220.78   10.60
   5   0   1  229.78   12.60
   5   0   1  201.58   12.60
  -6   0  -1   74.59    8.70
  -6   0  -1   69.39   10.60
   6   0   1   78.29   10.20
   6   0   1   65.99    8.40
   6   0   1   68.39    9.60
  -7   0  -1  245.68   20.30
  -7   0  -1  274.27   16.90
   7   0   1  271.97   17.80
   7   0   1  245.38   13.90
   7   0   1  245.38   16.30
  -8   0  -1   63.99   13.70
  -8   0  -1   68.09   11.40
   8   0   1   67.69    8.40
   8   0   1   60.19   11.90
   8   0   1   58.39   10.30
  -9   0  -1    7.90   12.40
  -9   0  -1    8.20    8.60
   9   0   1  -20.40    9.60
   9   0   1    5.90   12.20
   8  -1  -1   84.79   10.20
   8  -1  -1   87.69   12.50
  -8   1   1  107.99   14.50
  -8   1   1   65.69   11.20
   7  -1  -1  252.57   16.80
   7  -1  -1  226.98   14.50
   7  -1  -1  231.98   15.70
  -7   1   1  240.68   18.20
  -7   1   1  218.38   18.50
   6  -1  -1   62.39    7.60
   6  -1  -1   46.70    7.20
   6  -1  -1   48.30    7.60
  -6   1   1   45.50    8.90
  -6   1   1   70.19    9.40
   5  -1  -1 1226.58   41.50
   5  -1  -1 1295.57   41.50
   5  -1  -1 1266.17   41.70
  -5   1   1 1248.88   41.60
  -5   1   1 1228.18   43.00
   4  -1  -1  357.76   15.00
   4  -1  -1  378.06   15.30
   4  -1  -1  364.06   15.40
  -4   1   1  368.46   16.40
  -4   1   1  406.86   15.80
   3  -1  -1  141.59    7.80
   3  -1  -1  152.28    7.70
  -3   1   1  145.99    8.60
  -3   1   1  133.49    5.50
  -3   1   1  137.59    5.30
  -3   1   1  159.48    8.70
   2  -1  -1 2553.04   75.79
   2  -1  -1 2430.86   73.59
   2  -1  -1 2533.15   73.49
   2  -1  -1 2618.34   75.49
  -2   1   1 2678.13   75.09
  -2   1   1 2533.65   73.79
  -2   1   1 2632.34   75.69
  -2   1   1 2482.05   75.79
   1  -1  -1  249.08    8.80
   1  -1  -1  244.38    8.00
   1  -1  -1  238.38    8.30
   1  -1  -1  256.87    8.30
  -1   1   1  258.07    8.70
  -1   1   1  252.87    8.40
  -1   1   1  251.37    8.40
  -1   1   1  236.68    8.90
   0  -1  -1 3844.32  110.09
   0  -1  -1 3889.81  110.09
   0  -1  -1 3695.93  109.89
   0   1   1 3776.02  110.09
   0   1   1 3901.91  110.09
  -1  -1  -1 4165.18  116.99
  -1  -1  -1 4190.88  117.59
  -1  -1  -1 4265.77  116.99
  -1  -1  -1 3869.51  117.09
   1   1   1 3909.71  116.99
   1   1   1 4015.60  117.49
   1   1   1 3984.80  116.89
  -2  -1  -1  208.28    9.30
  -2  -1  -1  193.58    7.70
  -2  -1  -1  197.18    8.00
  -2  -1  -1  207.48    7.70
   2   1   1  201.88    8.80
   2   1   1  213.38    7.60
   2   1   1  198.88    6.40
   2   1   1  208.28    7.60
  -3  -1  -1  258.97    9.40
  -3  -1  -1  263.77   10.60
  -3  -1  -1  235.38   12.00
  -3  -1  -1  268.67   12.60
   3   1   1  247.78    8.80
   3   1   1  250.87    8.90
   3   1   1  243.98   11.40
   3   1   1  241.88    9.00
  -4  -1  -1  853.21   27.80
  -4  -1  -1  823.42   30.60
  -4  -1  -1  827.42   26.00
   4   1   1  832.22   25.30
   4   1   1  858.91   29.80
   4   1   1  811.82   26.10
   4   1   1  866.71   25.30
  -5  -1  -1   45.10    8.70
  -5  -1  -1   49.80    6.80
  -5  -1  -1   46.10    5.70
   5   1   1   38.00    6.10
   5   1   1   49.70    5.10
  -6  -1  -1  245.68   15.10
  -6  -1  -1  258.37   10.80
  -6  -1  -1  254.57   18.00
   6   1   1  249.88   11.60
   6   1   1  250.07   15.00
   6   1   1  238.88   15.70
  -7  -1  -1   73.59   13.50
  -7  -1  -1   90.59   10.70
   7   1   1   87.59    9.00
   7   1   1   62.99   13.20
   7   1   1   92.09   11.20
  -8  -1  -1   -1.10    9.80
  -8  -1  -1  -11.20   11.00
   8   1   1   13.60    7.50
   8   1   1   -9.90    5.00
   8   1   1  -16.10    9.20
  -9  -1  -1   52.39   14.00
  -9  -1  -1   59.09   12.50
   9   1   1   29.20   13.90
   8  -2  -1   89.29   12.40
   8  -2  -1  100.99   14.70
   8  -2  -1   57.79   11.00
  -8   2   1   85.89   14.00
  -8   2   1   77.09   11.50
   7  -2  -1   89.19   12.30
   7  -2  -1  108.89   14.10
   7  -2  -1   92.79   12.10
  -7   2   1   90.59   12.80
  -7   2   1  103.59   11.70
   6  -2  -1   14.70    5.70
   6  -2  -1   12.00    5.70
   6  -2  -1    8.30    5.90
  -6   2   1    8.70    7.30
  -6   2   1   16.50    8.20
   5  -2  -1  500.45   20.40
   5  -2  -1  502.05   20.80
   5  -2  -1  482.55   19.10
  -5   2   1  476.05   21.80
  -5   2   1  497.45   20.60
   4  -2  -1  817.62   26.30
   4  -2  -1  788.92   28.00
   4  -2  -1  791.32   28.20
  -4   2   1  797.02   24.50
  -4   2   1  814.42   24.60
  -4   2   1  812.32   27.30
  -4   2   1  739.03   28.40
   3  -2  -1  429.56   16.20
   3  -2  -1  420.56   13.00
   3  -2  -1  435.96   16.60
   3  -2  -1  384.06   14.30
   3  -2  -1  407.96   12.90
  -3   2   1  403.06   13.90
  -3   2   1  374.86   17.10
  -3   2   1  445.86   15.70
  -3   2   1  398.16   17.80
   2  -2  -1 2854.11   84.59
   2  -2  -1 2933.21   84.69
   2  -2  -1 2902.21   86.49
  -2   2   1 3134.69   85.39
  -2   2   1 2893.91   87.09
  -2   2   1 2783.02   84.79
  -2   2   1 2945.91   85.79
  -2   2   1 2861.71   84.89
   1  -2  -1  795.92   25.50
   1  -2  -1  801.72   25.00
   1  -2  -1  861.41   23.60
   1  -2  -1  864.01   25.20
  -1   2   1  762.62   25.80
  -1   2   1  802.72   25.10
  -1   2   1  786.12   23.50
  -1   2   1  862.01   24.80
  -1   2   1  724.23   24.50
  -1   2   1  796.92   25.10
   0  -2  -1   76.69    4.20
   0  -2  -1   77.29    4.00
   0  -2  -1   78.89    4.10
   0  -2  -1   84.69    4.80
   0   2   1   77.29    4.40
   0   2   1   79.59    4.20
   0   2   1   72.79    4.50
  -1  -2  -1 2354.26   66.89
  -1  -2  -1 2217.98   66.49
   1   2   1 2287.47   66.69
   1   2   1 2241.28   66.59
   1   2   1 2254.27   66.89
   1   2   1 2165.98   65.79
  -2  -2  -1  412.26   15.60
  -2  -2  -1  410.06   14.40
  -2  -2  -1  393.16   14.50
  -2  -2  -1  422.46   12.60
  -2  -2  -1  400.96   14.40
   2   2   1  436.46   14.40
   2   2   1  405.96   15.40
   2   2   1  387.66   14.40
   2   2   1  414.96   13.90
  -3  -2  -1  475.55   18.80
  -3  -2  -1  485.25   17.00
  -3  -2  -1  481.55   14.70
  -3  -2  -1  477.95   16.70
  -3  -2  -1  462.45   16.60
   3   2   1  468.15   14.50
   3   2   1  464.05   16.40
   3   2   1  443.06   18.20
   3   2   1  456.65   16.50
   3   2   1  481.85   16.20
  -4  -2  -1  509.35   18.00
  -4  -2  -1  472.85   20.80
  -4  -2  -1  528.75   19.20
  -4  -2  -1  496.95   18.10
   4   2   1  507.05   16.30
   4   2   1  510.55   20.70
   4   2   1  513.65   17.70
   4   2   1  494.45   18.70
   4   2   1  513.85   17.30
  -5  -2  -1   33.90    6.70
  -5  -2  -1   42.70    5.40
  -5  -2  -1   36.60    5.20
  -5  -2  -1   27.60    8.00
   5   2   1   43.20    4.60
   5   2   1   48.30    4.50
   5   2   1   33.30    4.50
   5   2   1   28.60    5.90
   5   2   1   41.20    6.60
  -6  -2  -1  197.58   17.30
  -6  -2  -1  203.58   14.30
   6   2   1  224.98   16.20
   6   2   1  222.58    9.70
   6   2   1  205.68   15.10
  -7  -2  -1   -1.90    8.00
  -7  -2  -1    4.40    6.00
  -7  -2  -1    1.90    9.20
  -7  -2  -1    1.20    5.80
   7   2   1    1.10    9.20
   7   2   1    5.60    6.30
   7   2   1    0.30    3.70
   7   2   1    8.20    8.10
  -8  -2  -1   38.80   13.50
  -8  -2  -1   43.10   11.40
   8   2   1   35.40    8.30
   8   2   1   70.29   13.10
  -9  -2  -1   11.20   13.20
  -9  -2  -1    9.70   10.10
   9   2   1   18.10   15.20
   8  -3  -1   82.89   13.10
   8  -3  -1  114.99   13.70
   8  -3  -1  109.09   13.60
  -8   3   1  138.99   15.50
  -8   3   1  127.89   13.20
   7  -3  -1   48.60   10.00
   7  -3  -1   36.10    9.00
   7  -3  -1   34.70    7.10
  -7   3   1   41.70   10.80
  -7   3   1   28.20   10.20
   6  -3  -1  218.38   15.80
   6  -3  -1  256.07   15.80
   6  -3  -1  225.78   12.70
  -6   3   1  233.68   16.60
  -6   3   1  269.57   16.40
   5  -3  -1  753.22   28.50
   5  -3  -1  728.03   24.90
   5  -3  -1  738.63   28.50
  -5   3   1  688.83   28.00
  -5   3   1  742.23   24.10
  -5   3   1  752.32   24.10
  -5   3   1  727.83   27.20
   4  -3  -1    2.50    1.80
   4  -3  -1   -0.30    2.40
   4  -3  -1    3.80    2.50
   4  -3  -1    1.80    3.40
   4  -3  -1    4.70    3.60
  -4   3   1    6.60    7.30
  -4   3   1    4.50    5.00
  -4   3   1    0.90    3.40
  -4   3   1    9.70    5.20
   3  -3  -1 2048.20   59.79
   3  -3  -1 2057.99   60.99
   3  -3  -1 2141.49   64.19
   3  -3  -1 2044.30   59.49
   3  -3  -1 2052.29   60.99
  -3   3   1 2149.48   61.99
  -3   3   1 2060.79   62.69
  -3   3   1 2067.79   65.49
  -3   3   1 1877.61   62.49
  -3   3   1 2053.29   61.49
   2  -3  -1 1295.57   40.70
   2  -3  -1 1293.17   39.20
   2  -3  -1 1270.87   39.10
  -2   3   1 1236.48   41.80
  -2   3   1 1256.07   39.30
  -2   3   1 1265.07   39.20
  -2   3   1 1223.98   39.30
  -2   3   1 1329.07   39.00
   1  -3  -1  154.78    7.80
   1  -3  -1  157.58    8.10
   1  -3  -1  156.78    7.60
  -1   3   1  180.58    5.80
  -1   3   1  139.49    6.70
  -1   3   1  159.98    7.50
  -1   3   1  158.38    8.80
  -1   3   1  161.68    8.30
   0  -3  -1 6119.79  173.48
   0  -3  -1 5913.61  172.88
   0  -3  -1 5996.00  172.08
   0  -3  -1 6025.30  173.18
   0   3   1 5908.41  173.28
   0   3   1 5976.50  173.28
   0   3   1 5866.11  172.98
  -1  -3  -1 2637.34   80.59
  -1  -3  -1 2682.03   79.59
  -1  -3  -1 2764.32   80.79
   1   3   1 2728.43   80.69
   1   3   1 2793.32   80.89
   1   3   1 2637.14   79.69
   1   3   1 2735.93   80.69
  -2  -3  -1    5.90    2.30
  -2  -3  -1    8.40    2.20
  -2  -3  -1    3.70    3.10
  -2  -3  -1    9.30    2.20
   2   3   1    9.40    3.10
   2   3   1    7.40    2.40
   2   3   1    7.20    2.50
   2   3   1    6.70    3.50
  -3  -3  -1 2836.82   84.99
  -3  -3  -1 2900.81   86.49
  -3  -3  -1 2798.62   82.69
  -3  -3  -1 2886.61   85.29
   3   3   1 2760.12   83.59
   3   3   1 2763.82   87.09
   3   3   1 2892.81   84.99
   3   3   1 2947.71   85.29
  -4  -3  -1  222.48   12.00
  -4  -3  -1  226.38    9.00
  -4  -3  -1  226.38   12.60
  -4  -3  -1  214.58   14.20
  -4  -3  -1  185.88   12.10
   4   3   1  234.18   13.30
   4   3   1  247.78   10.70
   4   3   1  258.87   10.80
   4   3   1  230.48   11.90
   4   3   1  228.58    8.80
  -5  -3  -1  515.85   24.30
  -5  -3  -1  513.25   20.60
  -5  -3  -1  516.05   20.70
  -5  -3  -1  538.45   21.70
   5   3   1  531.25   19.00
   5   3   1  500.45   19.40
   5   3   1  528.15   20.20
   5   3   1  545.55   24.10
  -6  -3  -1  188.18   17.90
  -6  -3  -1  221.88   14.00
  -6  -3  -1  202.18   15.00
   6   3   1  217.48   13.50
   6   3   1  192.58   12.30
   6   3   1  189.78   10.10
   6   3   1  219.98    8.90
   6   3   1  238.58   17.10
  -7  -3  -1   -1.10    8.90
  -7  -3  -1   19.20   11.30
  -7  -3  -1   13.80    8.20
   7   3   1   17.30    6.70
   7   3   1   12.60    3.50
   7   3   1   24.30    8.40
   7   3   1   17.60    9.30
  -8  -3  -1   22.00   13.10
  -8  -3  -1  -10.20   10.50
   8   3   1  -12.10   10.90
   8   3   1   -0.50    8.00
   8  -4  -1   27.30   11.40
   8  -4  -1   84.69   14.30
  -8   4   1   59.69   10.30
  -8   4   1   48.60   13.70
   7  -4  -1   -1.90    4.80
   7  -4  -1   -4.70    8.50
   7  -4  -1   -4.30    8.10
  -7   4   1   -5.60    8.10
  -7   4   1    2.10   10.20
   6  -4  -1  302.57   18.90
   6  -4  -1  330.57   19.50
   6  -4  -1  303.17   12.80
  -6   4   1  313.17   15.90
  -6   4   1  331.77   18.80
  -6   4   1  350.16   19.40
  -6   4   1  326.37   14.90
   5  -4  -1  483.45   15.90
   5  -4  -1  482.55   23.00
   5  -4  -1  514.85   22.50
   5  -4  -1  472.55   17.90
   5  -4  -1  499.25   15.50
   5  -4  -1  403.86   17.20
  -5   4   1  497.45   21.30
  -5   4   1  483.35   19.30
  -5   4   1  475.05   20.90
   4  -4  -1   -2.30    3.60
   4  -4  -1   -3.10    3.40
  -4   4   1    5.00    4.80
  -4   4   1   -1.40    5.60
  -4   4   1   -2.60    8.70
  -4   4   1    1.10    4.70
  -4   4   1   -2.40    4.30
   3  -4  -1  811.12   29.00
   3  -4  -1  794.52   26.60
   3  -4  -1  788.32   26.80
  -3   4   1  724.23   28.70
  -3   4   1  814.52   27.40
  -3   4   1  827.62   27.80
  -3   4   1  795.92   31.50
  -3   4   1  854.51   27.20
   2  -4  -1 1656.73   50.79
   2  -4  -1 1661.83   50.79
   2  -4  -1 1602.14   51.89
  -2   4   1 1627.44   53.29
  -2   4   1 1595.34   49.80
  -2   4   1 1673.53   50.89
  -2   4   1 1685.43   49.80
  -2   4   1 1613.64   51.09
   1  -4  -1  181.88    9.90
   1  -4  -1  142.99    8.40
   1  -4  -1  163.68    8.70
  -1   4   1  152.98   10.60
  -1   4   1  171.58    8.70
  -1   4   1  166.68    6.90
  -1   4   1  158.98    9.90
   0  -4  -1 3366.16  100.89
   0  -4  -1 3332.77  101.39
   0  -4  -1 3493.85  101.69
   0   4   1 3419.96  101.49
   0   4   1 3417.76  101.79
   0   4   1 3456.75  101.39
   0   4   1 3384.96  100.09
  -1  -4  -1 2462.55   74.99
  -1  -4  -1 2510.05   76.59
   1   4   1 2503.55   76.09
   1   4   1 2508.95   75.39
   1   4   1 2497.55   76.29
   1   4   1 2651.73   76.89
  -2  -4  -1  160.08    9.80
  -2  -4  -1  162.28    8.00
  -2  -4  -1  144.39    7.60
  -2  -4  -1  161.38    9.30
   2   4   1  170.78    9.80
   2   4   1  146.29    8.50
   2   4   1  153.48   10.60
   2   4   1  143.69    8.10
  -3  -4  -1 4010.40  118.69
  -3  -4  -1 4028.70  120.09
  -3  -4  -1 3970.80  121.19
  -3  -4  -1 4235.48  121.89
   3   4   1 4059.69  119.09
   3   4   1 4195.48  123.59
   3   4   1 4123.29  121.59
   3   4   1 4053.39  121.29
  -4  -4  -1  854.71   31.00
  -4  -4  -1  879.71   27.80
  -4  -4  -1  860.61   30.70
  -4  -4  -1  863.91   32.80
   4   4   1  862.41   33.30
   4   4   1  911.51   28.50
   4   4   1  913.91   31.60
   4   4   1  898.71   30.40
  -5  -4  -1  191.78    9.40
  -5  -4  -1  201.28   16.10
  -5  -4  -1  204.98   11.60
  -5  -4  -1  181.48   14.60
   5   4   1  195.78   15.60
   5   4   1  175.98   10.40
   5   4   1  190.58   14.30
   5   4   1  190.98   11.10
  -6  -4  -1  806.32   29.40
  -6  -4  -1  832.82   31.50
  -6  -4  -1  817.62   35.00
   6   4   1  846.62   35.50
   6   4   1  788.22   28.40
   6   4   1  783.52   30.30
   6   4   1  794.72   27.60
  -7  -4  -1  102.99   15.60
   7   4   1   81.29   12.80
   7   4   1   98.79   12.10
   7   4   1  101.29   10.50
   7   4   1  106.99    9.20
   8   4   1  100.39   16.40
   8  -5  -1   87.49   16.50
   8  -5  -1   90.09   15.40
  -8   5   1  125.99   13.60
   7  -5  -1  199.98   18.70
   7  -5  -1  183.38   20.20
  -7   5   1  187.98   16.30
  -7   5   1  158.88   22.80
   6  -5  -1   63.39   10.10
   6  -5  -1   53.79   10.40
  -6   5   1   43.10    8.80
  -6   5   1   48.90    9.70
  -6   5   1   50.09   11.00
   5  -5  -1  681.53   24.20
   5  -5  -1  678.43   23.30
   5  -5  -1  712.13   29.10
  -5   5   1  649.04   27.80
  -5   5   1  667.33   26.80
  -5   5   1  675.63   27.00
  -5   5   1  701.83   26.30
   4  -5  -1  223.78   13.10
   4  -5  -1  250.07   11.60
   4  -5  -1  222.38   14.40
  -4   5   1  242.68   12.00
  -4   5   1  236.38   21.50
  -4   5   1  226.38   13.10
  -4   5   1  239.78   14.00
  -4   5   1  228.38   14.70
   3  -5  -1  246.38   11.80
   3  -5  -1  242.88   13.60
   3  -5  -1  231.88   13.10
  -3   5   1  220.58   18.10
  -3   5   1  231.98   12.50
  -3   5   1  229.38   11.90
  -3   5   1  263.57   12.10
  -3   5   1  211.48   14.10
   2  -5  -1 4363.16  131.19
   2  -5  -1 4451.55  130.29
   2  -5  -1 4190.78  129.69
  -2   5   1 4597.04  128.49
  -2   5   1 4326.47  130.59
  -2   5   1 4357.56  130.09
  -2   5   1 4387.36  132.89
  -2   5   1 4384.56  128.29
   1  -5  -1  561.94   21.90
   1  -5  -1  538.05   20.70
   1  -5  -1  551.84   20.90
  -1   5   1  536.95   22.90
  -1   5   1  532.95   18.40
  -1   5   1  559.04   22.30
  -1   5   1  555.34   20.90
   0  -5  -1 2611.74   80.69
   0  -5  -1 2600.84   79.69
   0  -5  -1 2751.12   81.09
   0   5   1 2658.33   80.69
   0   5   1 2666.53   78.89
   0   5   1 2509.85   80.89
   0   5   1 2646.44   80.79
  -1  -5  -1 2455.55   73.59
  -1  -5  -1 2406.16   72.99
  -1  -5  -1 2502.85   75.09
  -1  -5  -1 2464.95   75.19
   1   5   1 2473.75   74.79
   1   5   1 2473.35   75.39
   1   5   1 2199.18   75.39
   1   5   1 2400.96   74.09
  -2  -5  -1  312.07   13.50
  -2  -5  -1  297.17   12.50
  -2  -5  -1  326.67   15.00
  -2  -5  -1  295.77   15.90
   2   5   1  296.67   14.70
   2   5   1  258.87   16.20
   2   5   1  287.47   13.60
   2   5   1  323.37   14.50
  -3  -5  -1 1027.00   33.30
  -3  -5  -1 1021.10   33.80
  -3  -5  -1 1028.60   36.40
  -3  -5  -1 1014.00   36.00
   3   5   1 1037.60   33.50
   3   5   1 1058.69   37.00
   3   5   1 1016.40   37.10
   3   5   1 1059.79   35.80
  -4  -5  -1  272.37   17.30
  -4  -5  -1  272.87   17.10
  -4  -5  -1  283.87   12.90
  -4  -5  -1  321.77   15.50
   4   5   1  303.77   13.30
   4   5   1  294.97   14.90
   4   5   1  252.17   17.80
   4   5   1  289.87   17.50
  -5  -5  -1   38.20    7.40
  -5  -5  -1   61.69   11.10
  -5  -5  -1   56.69    5.90
   5   5   1   60.39    8.50
   5   5   1   48.50    7.10
   5   5   1   45.90    8.60
   5   5   1   48.10   10.10
  -6  -5  -1  266.97   16.60
  -6  -5  -1  222.98   20.20
   6   5   1  265.47   20.60
   6   5   1  255.57   13.70
   6   5   1  258.47   20.50
   6   5   1  269.47   15.30
  -7  -5  -1   33.50   13.80
   7   5   1   40.60    7.80
   7   5   1   57.19   13.20
  -8  -5  -1   70.59   12.60
   8   5   1   42.60    6.90
   8   5   1   20.10   16.20
   7  -6  -1   15.20   11.10
   7  -6  -1   11.60   11.70
  -7   6   1   13.80   12.10
  -7   6   1    2.90    6.50
   6  -6  -1   -9.50    8.50
   6  -6  -1  -15.00    7.90
   6  -6  -1   -2.90    4.00
  -6   6   1    7.50    7.90
  -6   6   1    3.20   10.70
   5  -6  -1   88.89   13.10
   5  -6  -1  108.19   13.60
   5  -6  -1   93.09    9.30
  -5   6   1   82.49   12.20
  -5   6   1   91.69   11.40
  -5   6   1  100.79   10.40
  -5   6   1   76.69    9.50
   4  -6  -1  188.38   12.50
   4  -6  -1  234.88   15.20
   4  -6  -1  211.18   15.20
  -4   6   1  208.88   17.60
  -4   6   1  210.58   14.60
  -4   6   1  203.38   13.10
  -4   6   1  191.28   12.50
   3  -6  -1  801.62   29.40
   3  -6  -1  718.43   30.00
   3  -6  -1  835.72   31.40
  -3   6   1  841.32   28.60
  -3   6   1  833.92   36.40
  -3   6   1  840.42   29.80
  -3   6   1  803.12   31.50
  -3   6   1  781.22   27.90
   2  -6  -1  634.14   24.90
   2  -6  -1  627.94   25.10
   2  -6  -1  648.64   26.30
  -2   6   1  628.94   26.80
  -2   6   1  660.43   25.10
  -2   6   1  643.44   29.60
   1  -6  -1  138.49   12.90
   1  -6  -1  142.89    9.60
   1  -6  -1  139.39   10.30
  -1   6   1  131.59   13.60
  -1   6   1  146.59   10.50
  -1   6   1  151.88    7.70
  -1   6   1  153.88   14.50
   0  -6  -1 1220.38   40.10
   0  -6  -1 1195.28   41.40
   0  -6  -1 1243.18   42.30
   0   6   1 1243.68   39.30
   0   6   1 1195.08   42.10
   0   6   1 1166.68   42.40
   0   6   1 1215.08   41.30
  -1  -6  -1  434.66   16.90
  -1  -6  -1  395.76   18.40
  -1  -6  -1  424.56   20.90
  -1  -6  -1  447.26   19.40
   1   6   1  425.66   18.00
   1   6   1  436.66   18.70
   1   6   1  409.16   19.50
   1   6   1  406.36   20.70
  -2  -6  -1  134.69   11.40
  -2  -6  -1  154.58   10.80
  -2  -6  -1  133.79   14.40
  -2  -6  -1  139.89    8.90
   2   6   1  135.49   11.50
   2   6   1  152.38   15.60
   2   6   1  134.59   10.70
   2   6   1  153.38   11.30
  -3  -6  -1  246.08   12.50
  -3  -6  -1  265.97   14.80
  -3  -6  -1  244.88   18.10
   3   6   1  298.57   15.40
   3   6   1  260.37   14.40
   3   6   1  249.97   19.00
   3   6   1  311.37   17.00
  -4  -6  -1   30.50    6.50
  -4  -6  -1   43.50    9.70
  -4  -6  -1   26.10    6.70
  -4  -6  -1   31.30    5.60
   4   6   1   37.20   10.90
   4   6   1   26.50   12.90
  -5  -6  -1   24.70    7.50
  -5  -6  -1   25.10   10.30
  -5  -6  -1   30.10    6.40
   5   6   1   11.30    8.50
   5   6   1   21.80    6.80
   5   6   1   14.70    6.80
  -6  -6  -1  250.67   22.50
  -6  -6  -1  264.07   18.20
   6   6   1  225.48   26.60
   6   6   1  252.77   17.20
   6   6   1  250.07   16.40
   6   6   1  222.88   21.50
  -7  -6  -1   -3.20   13.00
   7   6   1  -16.80   12.70
   7   6   1   -0.10    7.60
   7  -7  -1   -1.00   12.40
   7  -7  -1    4.50   13.40
  -7   7   1   11.00    6.80
   6  -7  -1  151.58   12.10
   6  -7  -1  167.68   22.90
   6  -7  -1  131.59   16.50
  -6   7   1  135.39   14.70
  -6   7   1  156.48   15.90
   5  -7  -1   49.50   10.00
   5  -7  -1   77.59    9.10
   5  -7  -1   90.09   12.00
  -5   7   1  101.29   12.00
  -5   7   1   78.69   12.00
  -5   7   1   60.99    9.10
   4  -7  -1  212.28   13.70
   4  -7  -1  185.48   15.00
   4  -7  -1  187.48   18.50
  -4   7   1  179.08   14.50
  -4   7   1  194.98   13.00
  -4   7   1  211.48   15.30
   3  -7  -1  607.34   31.10
   3  -7  -1  641.44   27.20
   3  -7  -1  625.74   26.30
  -3   7   1  610.04   24.70
  -3   7   1  655.13   26.30
   2  -7  -1   10.40    5.70
   2  -7  -1    8.10    8.60
   2  -7  -1   18.00    6.10
  -2   7   1    9.20   11.50
  -2   7   1    0.50    8.90
  -2   7   1   27.10    6.30
   1  -7  -1  717.53   27.90
   1  -7  -1  652.23   26.60
   1  -7  -1  617.44   27.70
  -1   7   1  691.43   27.60
  -1   7   1  647.64   30.00
  -1   7   1  729.73   23.60
  -1   7   1  694.73   31.40
   0  -7  -1  487.75   22.80
   0  -7  -1  519.35   24.90
   0  -7  -1  503.45   23.90
   0  -7  -1  513.15   20.90
   0   7   1  518.85   25.50
   0   7   1  516.95   26.30
   0   7   1  521.05   22.60
   0   7   1  498.55   20.10
  -1  -7  -1    0.20    4.90
  -1  -7  -1    9.00    4.20
  -1  -7  -1    1.90    6.90
   1   7   1    9.20    5.30
   1   7   1    9.50    4.60
   1   7   1    7.50    8.00
   1   7   1    3.10    9.60
  -2  -7  -1  464.65   21.50
  -2  -7  -1  476.15   22.50
  -2  -7  -1  456.65   19.10
   2   7   1  471.55   22.10
   2   7   1  470.45   26.40
   2   7   1  490.65   21.90
   2   7   1  449.95   22.60
  -3  -7  -1 1050.59   38.40
  -3  -7  -1 1155.28   41.40
  -3  -7  -1 1111.29   37.80
   3   7   1 1165.68   42.40
   3   7   1 1121.29   39.40
   3   7   1 1077.79   44.10
   3   7   1 1132.69   41.00
  -4  -7  -1    9.70    9.40
  -4  -7  -1   11.90    7.00
  -4  -7  -1    3.80    5.20
  -4  -7  -1    9.30    7.30
   4   7   1    8.20    8.40
   4   7   1    0.90    6.50
   4   7   1    5.80   12.10
   4   7   1   26.00    8.20
  -5  -7  -1  618.84   28.50
  -5  -7  -1  618.74   30.30
  -5  -7  -1  599.04   27.70
   5   7   1  628.24   27.40
   5   7   1  631.64   31.30
   5   7   1  604.14   35.70
   5   7   1  578.74   25.50
  -6  -7  -1  107.39   16.30
  -6  -7  -1  117.89   13.30
   6   7   1  143.59   18.80
   6   7   1  121.59   15.50
  -7  -7  -1   30.00   15.80
   7   7   1    6.50   15.80
   7   7   1   16.30   10.60
   6  -8  -1  124.09   15.00
   6  -8  -1  100.79   16.00
   6  -8  -1   87.39   17.40
  -6   8   1  102.29   16.10
  -6   8   1   93.79   11.50
   5  -8  -1   16.50   11.00
   5  -8  -1   13.70    8.10
  -5   8   1   22.40    8.30
  -5   8   1   16.40   10.70
   4  -8  -1  235.88   18.70
   4  -8  -1  251.67   24.00
   4  -8  -1  250.17   16.70
  -4   8   1  242.78   18.10
  -4   8   1  227.88   17.90
   3  -8  -1  134.29   14.20
   3  -8  -1  147.29   20.50
   3  -8  -1  173.38   14.50
  -3   8   1  171.48   15.30
  -3   8   1  163.48   14.30
   2  -8  -1   43.90    8.50
   2  -8  -1   44.60    8.10
   2  -8  -1   29.90   12.00
  -2   8   1   29.20    7.50
   1  -8  -1   12.50   10.90
   1  -8  -1   13.30    5.60
   1  -8  -1   11.60    6.60
  -1   8   1    9.00    4.20
  -1   8   1   19.50    7.20
  -1   8   1    0.80   14.30
   0  -8  -1  384.36   19.00
   0  -8  -1  405.36   24.20
   0  -8  -1  421.66   21.60
   0   8   1  441.76   22.10
   0   8   1  426.06   18.50
   0   8   1  388.06   26.50
  -1  -8  -1  110.59   14.90
  -1  -8  -1  116.99   12.90
  -1  -8  -1  136.69   10.90
  -1  -8  -1  110.99   13.40
   1   8   1  146.29   12.40
   1   8   1  137.79   13.70
   1   8   1  112.59   15.00
   1   8   1  110.89   16.20
  -2  -8  -1  149.99   11.40
  -2  -8  -1  145.39   17.00
   2   8   1  131.09   17.00
   2   8   1  175.58   14.20
   2   8   1  160.38   14.90
   2   8   1  160.08   19.60
  -3  -8  -1  204.78   17.40
  -3  -8  -1  206.88   13.70
  -3  -8  -1  208.38   18.30
   3   8   1  190.08   20.80
   3   8   1  204.38   16.50
   3   8   1  245.58   26.70
   3   8   1  205.58   18.20
  -4  -8  -1   81.49   13.10
  -4  -8  -1  109.49   11.60
  -4  -8  -1   84.09   11.10
  -4  -8  -1   86.99   13.30
   4   8   1  103.19   14.10
   4   8   1   72.59   12.00
   4   8   1   79.39   12.80
   4   8   1   80.19   18.70
  -5  -8  -1  112.09   14.20
  -5  -8  -1   75.59   14.50
   5   8   1   84.49   12.50
   5   8   1   52.99   13.10
  -6  -8  -1  253.57   24.80
   6   8   1  237.18   27.40
   6   8   1  161.38   20.70
   5  -9  -1   28.90   11.30
   5  -9  -1    7.20   11.70
  -5   9   1   23.00   12.70
   4  -9  -1   18.10   10.60
   4  -9  -1    8.10    9.10
  -4   9   1   15.70    9.40
  -4   9   1   10.40   10.60
   3  -9  -1  125.09   16.70
   3  -9  -1  112.19   18.60
   3  -9  -1  132.19   16.30
  -3   9   1  126.49   12.70
  -3   9   1  103.09   13.50
   2  -9  -1  112.99   18.00
   2  -9  -1  108.99   13.20
   2  -9  -1  142.89   14.50
  -2   9   1  139.59   17.10
   1  -9  -1   96.19   12.20
   1  -9  -1   86.59   12.00
   1  -9  -1   69.19   17.30
  -1   9   1   99.99   13.40
  -1   9   1   96.49    9.80
   0  -9  -1  446.56   22.30
   0  -9  -1  467.15   25.30
   0   9   1  476.65   24.90
   0   9   1  485.25   21.70
  -1  -9  -1  166.98   13.90
  -1  -9  -1  153.98   15.50
   1   9   1  167.48   15.50
   1   9   1  183.18   15.10
   1   9   1  120.19   19.10
  -2  -9  -1   56.19    9.10
  -2  -9  -1   71.09   12.30
  -2  -9  -1   62.29   13.30
   2   9   1   57.49   11.30
   2   9   1   46.80   16.00
   2   9   1   85.09   11.90
  -3  -9  -1  363.36   24.80
  -3  -9  -1  369.06   19.40
  -3  -9  -1  351.26   24.40
   3   9   1  380.36   29.50
   3   9   1  369.76   23.90
   3   9   1  350.46   24.40
  -4  -9  -1    7.00   12.40
  -4  -9  -1    1.20   11.60
  -4  -9  -1   19.60    7.40
   4   9   1    6.40   10.00
   4   9   1   10.00   11.50
  -5  -9  -1  109.09   16.30
  -5  -9  -1   60.49   15.50
   5   9   1   84.49   14.80
   5   9   1   43.20   15.70
   4 -10  -1    5.60   11.40
  -4  10   1  -10.10   11.60
   3 -10  -1   10.70   11.30
   3 -10  -1  -11.70   10.70
  -3  10   1   28.20   12.60
  -3  10   1   -2.30    9.50
   2 -10  -1   -2.00    9.80
   2 -10  -1   -8.20    9.80
  -2  10   1    2.80   11.60
   1 -10  -1   15.60   11.10
   1 -10  -1   25.80    8.90
  -1  10   1   17.50   11.70
   0 -10  -1   15.50    8.20
   0 -10  -1   21.40   11.70
   0  10   1    4.90   10.60
   0  10   1   18.70    7.70
  -1 -10  -1   -2.60   10.30
  -1 -10  -1    7.50    8.80
   1  10   1   17.30   10.80
   1  10   1   19.90   10.80
  -2 -10  -1   67.09   13.80
  -2 -10  -1  114.59   15.60
   2  10   1   88.59   13.50
   2  10   1   83.49   14.70
  -3 -10  -1   40.20   14.10
   3  10   1   37.90   13.00
   3  10   1    8.20   11.90
  -4 -10  -1   14.90   13.50
  -4 -10  -1   21.20   14.60
   4  10   1   -2.60   16.20
   4  10   1   -4.30   14.50
   2 -11  -1   19.10   13.10
  -2  11   1   21.40   14.90
   1 -11  -1   30.20   12.20
   1 -11  -1   10.10   13.60
  -1  11   1   37.90   15.60
   0 -11  -1    3.50   10.60
   0 -11  -1  -15.50   13.50
   0  11   1   11.50   12.80
  -1 -11  -1   27.20   11.10
  -1 -11  -1   -1.30   12.70
   1  11   1   17.00   11.00
   1  11   1   -0.20   14.30
  -2 -11  -1   -7.10   15.30
  -2 -11  -1   -2.40   10.80
   2  11   1   -1.90   12.30
   2  11   1   16.00   16.70
   3  10  -2   70.49   17.30
  -3 -10   2   54.19   18.40
   2  10  -2    6.10   12.30
   2  10  -2    8.50   11.40
  -2 -10   2    6.00   13.30
   1  10  -2  108.29   14.50
   1  10  -2  106.39   16.50
  -1 -10   2  120.49   15.10
  -1 -10   2  141.19   18.50
   0  10  -2  170.78   20.60
   0 -10   2  176.08   17.10
   0 -10   2  176.58   21.10
  -1  10  -2   21.80   12.50
   1 -10   2  -24.00   10.80
   1 -10   2   22.90    9.60
  -2  10  -2  218.78   24.50
   2 -10   2  271.97   24.00
   2 -10   2  286.17   22.20
  -3  10  -2  123.39   17.60
   3 -10   2  120.89   16.70
   3 -10   2   79.99   15.30
   4   9  -2  171.98   21.30
   4   9  -2  188.08   21.60
  -4  -9   2  197.08   24.50
   3   9  -2  152.18   19.90
   3   9  -2  154.68   21.30
  -3  -9   2  167.38   22.60
   2   9  -2   -3.80    8.50
   2   9  -2   14.10   10.00
  -2  -9   2    6.40    6.30
  -2  -9   2  -11.90   10.50
   1   9  -2  347.07   21.80
   1   9  -2  319.17   23.30
  -1  -9   2  313.87   22.30
  -1  -9   2  339.87   18.20
   0   9  -2  231.58   21.00
   0   9  -2  258.17   17.40
   0  -9   2  288.07   17.80
   0  -9   2  249.88   21.50
  -1   9  -2   25.10    9.10
  -1   9  -2   19.20    9.90
  -1   9  -2   12.40    6.70
   1  -9   2   25.00    9.00
   1  -9   2    2.30    7.10
  -2   9  -2  415.96   25.40
  -2   9  -2  363.86   17.30
   2  -9   2  403.66   23.60
   2  -9   2  368.56   41.30
   2  -9   2  427.26   24.80
  -3   9  -2  138.89   19.30
   3  -9   2  116.39   14.60
   3  -9   2  158.08   17.60
   3  -9   2  132.89   22.10
  -4   9  -2   74.39   12.90
  -4   9  -2   68.49   13.60
   4  -9   2   77.89   13.10
   4  -9   2   51.39   13.90
  -5   9  -2  180.88   16.40
   5  -9   2  203.58   30.90
   5  -9   2  141.09   16.40
   5   8  -2  -13.50   10.00
   5   8  -2   11.70   14.60
  -5  -8   2    5.80   11.30
   4   8  -2   56.59   13.40
   4   8  -2   50.59   11.40
   4   8  -2   35.50   21.30
  -4  -8   2   12.60   11.60
  -4  -8   2   62.29   15.40
   3   8  -2  150.38   24.00
   3   8  -2  250.27   18.40
   3   8  -2  210.28   19.80
  -3  -8   2  229.28   19.90
  -3  -8   2  195.48   11.90
   2   8  -2  -17.50   16.80
   2   8  -2   -7.50    7.60
   2   8  -2   13.20    6.90
  -2  -8   2    1.20   13.40
  -2  -8   2    4.60    4.80
  -2  -8   2    7.40    8.80
   1   8  -2  164.48   14.80
   1   8  -2  129.29   14.50
  -1  -8   2  124.89   10.70
  -1  -8   2  130.39   14.10
   0   8  -2  342.47   21.00
   0   8  -2  365.06   18.80
   0  -8   2  375.16   18.30
   0  -8   2  371.96   20.60
  -1   8  -2   64.59    9.10
  -1   8  -2   60.99    7.60
   1  -8   2   49.60    8.80
   1  -8   2   68.99   15.50
   1  -8   2   52.79    9.70
  -2   8  -2  305.17   16.80
  -2   8  -2  328.57   14.60
  -2   8  -2  322.57   20.30
   2  -8   2  284.57   26.40
   2  -8   2  300.57   18.80
   2  -8   2  306.17   18.90
  -3   8  -2  235.08   18.00
  -3   8  -2  233.38   10.70
   3  -8   2  201.88   26.00
   3  -8   2  204.58   17.50
   3  -8   2  205.78   16.60
  -4   8  -2    5.60    6.80
  -4   8  -2   -1.60    7.90
  -4   8  -2  -19.20    7.60
   4  -8   2    1.70   15.90
   4  -8   2   10.80    9.00
   4  -8   2   -0.80    7.40
  -5   8  -2   76.09   15.20
  -5   8  -2   61.89    9.70
   5  -8   2   49.99   10.60
   5  -8   2   58.49   13.50
  -6   8  -2  157.48   16.10
   6  -8   2  145.99   17.50
   6  -8   2   96.29   18.10
   6   7  -2   21.30   10.70
   6   7  -2    8.20   13.60
  -6  -7   2    7.10   12.30
   5   7  -2   13.00   11.60
   5   7  -2   13.90    8.40
  -5  -7   2    4.80   10.80
  -5  -7   2    1.20    9.50
   4   7  -2   -8.50    8.20
   4   7  -2   -2.50   16.60
   4   7  -2    1.30    7.10
  -4  -7   2    2.00    7.90
  -4  -7   2   -4.00   11.10
  -4  -7   2    2.50    9.00
   3   7  -2  242.08   17.30
   3   7  -2  275.97   19.30
   3   7  -2  249.38   26.80
  -3  -7   2  265.77   12.10
  -3  -7   2  280.67   16.00
  -3  -7   2  280.57   17.10
  -3  -7   2  267.47   21.50
   2   7  -2  148.39   13.80
   2   7  -2  174.18   23.20
  -2  -7   2  159.68   18.30
  -2  -7   2  192.38   10.30
  -2  -7   2  180.38   12.40
  -2  -7   2  154.58   14.70
   1   7  -2  295.67   24.00
  -1  -7   2  276.97   20.40
  -1  -7   2  297.37   18.30
  -1  -7   2  296.77   20.30
  -1  -7   2  304.17   14.20
   0   7  -2  310.07   17.60
   0   7  -2  304.37   23.70
   0  -7   2  310.97   21.10
   0  -7   2  315.37   15.70
   0  -7   2  287.47   22.10
   0  -7   2  307.77   18.30
  -1   7  -2    1.20   10.20
  -1   7  -2    1.40    6.00
  -1   7  -2    8.60    6.00
   1  -7   2    1.90    9.90
   1  -7   2   -2.80    9.60
   1  -7   2    0.10    4.60
  -2   7  -2  207.48   14.90
  -2   7  -2  204.18   12.70
   2  -7   2  216.18   14.80
   2  -7   2  212.08   14.60
   2  -7   2  191.68   19.80
  -3   7  -2  258.57   13.00
  -3   7  -2  252.07   16.30
  -3   7  -2  249.97   11.40
  -3   7  -2  261.87   11.60
   3  -7   2  270.77   21.70
   3  -7   2  257.97   17.70
   3  -7   2  254.97   16.50
  -4   7  -2    4.60    6.00
  -4   7  -2    1.50    6.50
  -4   7  -2   14.70    7.40
   4  -7   2    4.70    7.40
   4  -7   2   10.30   12.30
   4  -7   2    3.40    6.00
  -5   7  -2  208.58   15.00
  -5   7  -2  236.68   16.60
   5  -7   2  197.78   20.10
   5  -7   2  214.28   16.20
   5  -7   2  255.47   27.80
  -6   7  -2   37.60   10.20
   6  -7   2   23.20    8.00
   6  -7   2   42.10   12.80
  -7   7  -2   23.10    8.50
   7  -7   2   20.60   17.20
   7  -7   2   26.20    7.50
   7   6  -2    0.90    9.00
  -7  -6   2   -7.70    7.60
  -7  -6   2    4.20   13.00
   6   6  -2   15.00    7.10
   6   6  -2   -5.50    7.50
   6   6  -2    0.90   12.30
  -6  -6   2   17.00   11.50
  -6  -6   2    2.00    9.90
   5   6  -2    0.40   14.40
   5   6  -2    4.90    6.30
   5   6  -2    6.70    6.10
   5   6  -2  -10.90    8.50
  -5  -6   2   -5.40    9.20
  -5  -6   2    8.50    7.60
  -5  -6   2   -2.50   10.20
  -5  -6   2    6.40    9.30
   4   6  -2   69.49    9.10
   4   6  -2   66.49   10.70
   4   6  -2   60.39   14.60
   4   6  -2   69.49    8.40
  -4  -6   2   68.89    9.40
  -4  -6   2   72.19   10.20
  -4  -6   2   63.79   10.90
  -4  -6   2   73.49   11.30
   3   6  -2   38.10   12.60
   3   6  -2   20.10    5.70
   3   6  -2   24.80    6.10
  -3  -6   2   16.00    6.20
  -3  -6   2   16.10    3.30
  -3  -6   2   23.80    8.60
  -3  -6   2   23.60    8.60
  -3  -6   2   36.90    7.40
   2   6  -2   25.00   10.40
   2   6  -2   18.30    5.70
  -2  -6   2   28.20    4.10
  -2  -6   2   32.00    6.20
  -2  -6   2   24.70    8.00
  -2  -6   2   34.80    7.30
  -2  -6   2   19.30    8.50
   1   6  -2    0.90    8.20
   1   6  -2   10.40    5.30
  -1  -6   2   -0.80    6.20
  -1  -6   2    0.50    2.90
  -1  -6   2   -4.30    4.00
  -1  -6   2   16.00    8.50
   0   6  -2   59.19   10.30
   0   6  -2   66.79    8.30
   0  -6   2   82.99    8.60
   0  -6   2   68.39    7.40
   0  -6   2   73.19    9.90
   0  -6   2   74.39   10.70
  -1   6  -2    3.60    4.90
  -1   6  -2    3.20    4.40
  -1   6  -2    3.40    8.10
   1  -6   2   -0.30    4.00
   1  -6   2    2.90    3.80
   1  -6   2   -1.50    7.20
   1  -6   2    2.40    7.50
  -2   6  -2  153.88   17.10
  -2   6  -2  177.28   10.70
  -2   6  -2  179.08    9.40
  -2   6  -2  193.18   12.60
   2  -6   2  212.68   16.60
   2  -6   2  179.98   12.50
   2  -6   2  185.38   15.40
   2  -6   2  180.28   12.90
  -3   6  -2    6.60    3.80
  -3   6  -2    3.70    4.60
  -3   6  -2   11.20   10.00
  -3   6  -2   21.80    5.50
   3  -6   2   12.30    5.80
   3  -6   2    0.30    4.50
   3  -6   2    3.90    8.70
   3  -6   2   13.20    9.60
  -4   6  -2   58.49    7.80
  -4   6  -2   49.40   12.40
  -4   6  -2   44.20    7.30
  -4   6  -2   54.29    7.40
   4  -6   2   68.89   10.20
   4  -6   2   58.29    8.90
   4  -6   2   60.09   10.70
  -5   6  -2   98.99   11.80
  -5   6  -2  106.79   12.60
   5  -6   2   96.69   10.80
   5  -6   2   99.19   15.00
   5  -6   2   98.79   12.40
  -6   6  -2    4.30    8.50
   6  -6   2   20.70   10.90
   6  -6   2   11.30    6.00
  -7   6  -2   22.40   14.20
   7  -6   2    5.60   12.10
   7  -6   2    5.30    4.40
   7   5  -2   82.59   17.20
   7   5  -2  108.29   13.50
  -7  -5   2   90.29   14.80
  -7  -5   2   97.59   15.30
   6   5  -2    2.20    6.10
   6   5  -2   -1.60    6.30
   6   5  -2   23.40   10.90
  -6  -5   2    7.00   10.10
  -6  -5   2    3.40    9.90
  -6  -5   2   30.20   12.20
  -6  -5   2   12.80    7.40
   5   5  -2  192.88   17.10
   5   5  -2  203.68   13.60
   5   5  -2  184.38   21.90
   5   5  -2  201.68   13.00
  -5  -5   2  200.98   14.70
  -5  -5   2  173.78   17.60
  -5  -5   2  172.78   16.90
  -5  -5   2  186.38   16.10
   4   5  -2   89.49   12.70
   4   5  -2   96.19   10.30
   4   5  -2   82.29    9.30
  -4  -5   2  101.99   10.80
  -4  -5   2   70.09   11.50
  -4  -5   2   97.29   10.40
  -4  -5   2   92.49   11.00
  -4  -5   2   86.49   10.10
   3   5  -2    2.80    4.10
   3   5  -2    3.60    8.40
   3   5  -2    7.60    4.10
  -3  -5   2    5.40    6.10
  -3  -5   2    5.90    5.60
  -3  -5   2    1.70    6.40
  -3  -5   2   11.00    2.90
  -3  -5   2    8.10    4.90
  -3  -5   2    2.80    7.50
   2   5  -2  241.18   12.60
   2   5  -2  232.08   17.30
   2   5  -2  238.78   12.70
  -2  -5   2  236.48    9.70
  -2  -5   2  243.38   14.20
  -2  -5   2  256.57   14.00
  -2  -5   2  227.48   14.40
  -2  -5   2  241.08   11.50
  -2  -5   2  247.18   15.80
   1   5  -2  467.25   19.00
   1   5  -2  463.65   19.40
   1   5  -2  492.65   21.80
  -1  -5   2  467.55   20.00
  -1  -5   2  473.35   17.30
  -1  -5   2  434.36   21.00
  -1  -5   2  462.45   20.10
   0   5  -2   43.70    5.80
   0   5  -2   47.40    8.60
   0  -5   2   47.60    6.20
   0  -5   2   40.90    5.70
   0  -5   2   49.00    7.50
   0  -5   2   31.30    6.90
  -1   5  -2  561.54   21.70
  -1   5  -2  523.85   22.90
  -1   5  -2  538.45   19.30
   1  -5   2  536.05   22.50
   1  -5   2  524.95   21.30
   1  -5   2  533.75   21.50
   1  -5   2  514.35   21.80
  -2   5  -2  367.16   16.50
  -2   5  -2  348.57   14.00
  -2   5  -2  370.36   13.60
  -2   5  -2  334.57   18.50
   2  -5   2  368.16   16.40
   2  -5   2  373.96   17.60
   2  -5   2  363.86   18.80
   2  -5   2  343.77   18.40
  -3   5  -2   64.79    7.70
  -3   5  -2   50.29    9.20
  -3   5  -2   49.60    6.60
  -3   5  -2   52.49    6.00
   3  -5   2   37.20    8.60
   3  -5   2   52.89    6.70
   3  -5   2   52.29    8.50
   3  -5   2   54.39    8.40
  -4   5  -2  200.48   12.70
  -4   5  -2  201.88   16.30
  -4   5  -2  230.68    9.30
  -4   5  -2  223.78   12.40
  -4   5  -2  220.28   11.50
   4  -5   2  203.38   15.50
   4  -5   2  203.38   15.30
   4  -5   2  234.38   12.20
  -5   5  -2   24.90    9.90
  -5   5  -2   42.90    8.70
  -5   5  -2   52.49    6.70
  -5   5  -2   36.10    6.20
   5  -5   2   41.50    6.00
   5  -5   2   33.70    8.30
   5  -5   2   46.60    9.60
  -6   5  -2   36.10    8.90
  -6   5  -2   28.10    9.10
  -6   5  -2    2.50   10.70
   6  -5   2   22.70    7.60
   6  -5   2   30.20    9.60
   6  -5   2   25.20    4.90
  -7   5  -2    6.30    9.80
   7  -5   2   10.30   10.80
  -8   5  -2  107.79   14.40
   8  -5   2  138.19   17.10
   8  -5   2  113.19   17.50
   8   4  -2   29.60   17.80
  -8  -4   2   72.19   15.20
   7   4  -2   40.30    7.30
   7   4  -2   27.10    5.90
   7   4  -2   19.60   12.40
  -7  -4   2   36.70   12.00
  -7  -4   2   19.70   12.40
   6   4  -2   -2.40    5.20
   6   4  -2    0.60    8.00
   6   4  -2    6.10    9.50
   6   4  -2   -3.80    5.00
  -6  -4   2    3.10    8.80
  -6  -4   2   -1.40    9.10
  -6  -4   2    2.90    9.60
  -6  -4   2    2.00    5.80
   5   4  -2   37.40    8.60
   5   4  -2   49.20   10.30
   5   4  -2   57.79    6.90
   5   4  -2   54.29    6.80
  -5  -4   2   60.89    7.70
  -5  -4   2   50.59    9.60
  -5  -4   2   61.09   10.50
  -5  -4   2   54.79    9.20
  -5  -4   2   49.10   10.00
   4   4  -2  168.28   10.80
   4   4  -2  176.08   10.80
   4   4  -2  174.58   15.50
  -4  -4   2  190.38   13.20
  -4  -4   2  172.28   14.50
  -4  -4   2  194.18   12.00
  -4  -4   2  194.88   14.00
  -4  -4   2  169.18   13.80
   3   4  -2  217.48   15.80
   3   4  -2  237.58   11.80
   3   4  -2  233.38   11.60
  -3  -4   2  217.28   12.30
  -3  -4   2  216.78   13.90
  -3  -4   2  221.28   13.70
  -3  -4   2  235.68   14.00
  -3  -4   2  220.78   12.50
   2   4  -2   57.49    8.40
   2   4  -2   62.99    6.60
   2   4  -2   58.19    5.80
  -2  -4   2   62.19    6.90
  -2  -4   2   61.59    7.40
  -2  -4   2   66.49    9.10
  -2  -4   2   63.29    7.20
  -2  -4   2   71.39    8.80
   1   4  -2  427.06   16.90
   1   4  -2  422.26   16.60
  -1  -4   2  393.66   17.40
  -1  -4   2  422.56   14.10
  -1  -4   2  410.46   16.70
  -1  -4   2  414.56   18.00
  -1  -4   2  417.36   17.50
  -1  -4   2  417.26   14.90
   0   4  -2   13.90    3.60
   0   4  -2    8.80    5.60
   0  -4   2    1.80    4.70
   0  -4   2    7.50    3.50
   0  -4   2   -0.20    4.20
   0  -4   2    7.30    3.00
  -1   4  -2    4.40    3.20
  -1   4  -2    4.80    3.10
  -1   4  -2    6.20    2.20
  -1   4  -2    4.50    4.60
   1  -4   2    4.00    4.80
   1  -4   2    5.20    3.20
   1  -4   2    7.00    3.30
   1  -4   2    9.10    4.80
  -2   4  -2   15.90    3.50
  -2   4  -2    7.70    3.10
  -2   4  -2    9.50    5.70
  -2   4  -2   15.90    3.70
   2  -4   2    6.70    4.90
   2  -4   2    5.00    5.10
   2  -4   2    7.00    3.90
   2  -4   2    5.60    3.00
  -3   4  -2  897.11   31.40
  -3   4  -2  915.51   27.30
  -3   4  -2  853.01   27.50
  -3   4  -2  876.31   29.80
   3  -4   2  866.41   29.80
   3  -4   2  867.31   30.40
   3  -4   2  851.61   32.60
  -4   4  -2   72.39    8.40
  -4   4  -2   69.29    6.90
  -4   4  -2   65.49    6.90
  -4   4  -2   61.99    8.30
  -4   4  -2   74.29    7.40
   4  -4   2   61.09    7.30
   4  -4   2   78.29    6.60
   4  -4   2   80.09    5.00
   4  -4   2   69.39   10.00
  -5   4  -2  334.37   18.30
  -5   4  -2  324.47   18.00
  -5   4  -2  343.57   13.70
  -5   4  -2  336.07   16.50
   5  -4   2  348.47   15.70
   5  -4   2  334.47   12.60
   5  -4   2  336.77   13.80
   5  -4   2  328.17   19.80
  -6   4  -2  322.87   19.30
  -6   4  -2  346.77   16.90
  -6   4  -2  326.47   20.10
   6  -4   2  323.97   11.90
   6  -4   2  296.27   15.20
   6  -4   2  341.27   13.50
   6  -4   2  322.17   21.20
  -7   4  -2   17.70    9.80
  -7   4  -2    3.90    9.40
   7  -4   2    6.90    9.50
   7  -4   2   21.90    5.20
  -8   4  -2   66.19   11.00
   8  -4   2   81.99   13.40
   8  -4   2  114.49   16.60
   8   3  -2    9.20   14.10
  -8  -3   2   31.20   16.10
  -8  -3   2   -0.60   12.50
   7   3  -2   12.40    6.50
   7   3  -2  -13.00    9.40
  -7  -3   2  -10.10    9.30
  -7  -3   2   -0.10   10.40
   6   3  -2   -4.90    3.50
   6   3  -2    7.40    7.20
   6   3  -2    3.50    5.00
   6   3  -2    9.50    8.00
  -6  -3   2   15.00    9.30
  -6  -3   2    8.30    7.50
  -6  -3   2    0.50    8.10
  -6  -3   2   14.50    9.40
  -6  -3   2    1.80    8.20
   5   3  -2   24.10    7.20
   5   3  -2   11.30    6.80
   5   3  -2   13.40    5.00
  -5  -3   2   12.80    7.80
  -5  -3   2   19.90    7.90
  -5  -3   2   -8.80    7.20
  -5  -3   2   11.90    7.20
  -5  -3   2   18.50    7.30
   4   3  -2    0.00    2.90
   4   3  -2    3.60    3.60
   4   3  -2    4.00    6.00
  -4  -3   2    3.90    6.00
  -4  -3   2   -0.80    5.80
  -4  -3   2    5.10    5.60
  -4  -3   2    7.10    3.70
  -4  -3   2    3.50    5.40
   3   3  -2   80.79    6.80
   3   3  -2   89.19    6.60
   3   3  -2   79.39    9.90
  -3  -3   2   64.09    8.20
  -3  -3   2   74.59    8.00
  -3  -3   2   92.59    7.30
  -3  -3   2   89.29    9.10
  -3  -3   2   85.99    9.10
   2   3  -2  162.88    8.50
   2   3  -2  154.48   11.10
   2   3  -2  155.88    8.50
  -2  -3   2  155.08   10.20
  -2  -3   2  162.68    9.10
  -2  -3   2  161.38    9.90
  -2  -3   2  162.18    5.80
  -2  -3   2  157.28    9.90
  -2  -3   2  170.58    8.50
   1   3  -2   95.49    8.80
   1   3  -2   90.09    6.30
   1   3  -2   79.49    5.80
  -1  -3   2   83.99    7.20
  -1  -3   2   83.89    6.30
  -1  -3   2   78.59    7.30
  -1  -3   2   76.69    4.60
  -1  -3   2   75.49    4.70
   0   3  -2   78.39    5.90
   0   3  -2   83.39    8.20
   0   3  -2   79.19    5.60
   0  -3   2   83.09    7.50
   0  -3   2   80.59    6.20
   0  -3   2   78.69    7.20
   0  -3   2   81.49    5.60
   0  -3   2   89.49    6.10
  -1   3  -2 1791.92   54.19
  -1   3  -2 1783.12   55.59
  -1   3  -2 1726.13   56.09
  -1   3  -2 1826.82   52.99
   1  -3   2 1871.21   56.09
   1  -3   2 1821.12   55.69
   1  -3   2 1846.92   56.49
   1  -3   2 1835.82   55.99
  -2   3  -2  141.49    6.90
  -2   3  -2  125.09    7.30
  -2   3  -2  139.39    7.60
  -2   3  -2  134.99    9.40
   2  -3   2  132.09    6.00
   2  -3   2  128.39    8.90
   2  -3   2  145.79    9.50
   2  -3   2  123.79    8.80
   2  -3   2  130.09    7.40
  -3   3  -2  136.59    9.30
  -3   3  -2  143.29    7.80
  -3   3  -2  128.99    9.90
  -3   3  -2  127.29    7.80
   3  -3   2  137.89    7.50
   3  -3   2  147.69   10.20
   3  -3   2  132.79    8.90
   3  -3   2  131.69    6.30
  -4   3  -2  100.89    8.50
  -4   3  -2   97.39    8.10
  -4   3  -2  104.39   10.00
  -4   3  -2   97.49    9.80
   4  -3   2  102.39    8.10
   4  -3   2  105.19    6.20
   4  -3   2   94.69    6.30
   4  -3   2   82.89    9.40
  -5   3  -2  100.89   10.70
  -5   3  -2  107.29   10.90
  -5   3  -2   85.59    8.00
  -5   3  -2  105.29    8.90
  -5   3  -2   86.99    9.60
   5  -3   2   95.89   11.50
   5  -3   2  102.09    6.10
   5  -3   2  102.49    7.80
   5  -3   2   92.29    7.30
  -6   3  -2  121.09   10.00
  -6   3  -2  139.99    9.70
  -6   3  -2  136.39   14.70
  -6   3  -2  118.09   12.50
   6  -3   2  103.19    9.20
  -7   3  -2   -0.20    9.60
  -7   3  -2   15.80    5.20
  -7   3  -2   -0.60    6.50
   7  -3   2    3.00    5.70
   7  -3   2   15.80    7.90
   7  -3   2    3.30    8.80
  -8   3  -2    3.60    7.90
   8  -3   2    3.10   11.10
   8  -3   2    7.60    9.20
   8  -3   2    7.50    7.20
   8   2  -2   74.69   15.00
   8   2  -2   86.19   10.20
  -8  -2   2   91.39   20.50
  -8  -2   2   60.39   14.60
   7   2  -2   13.70    9.50
   7   2  -2   16.30    6.60
  -7  -2   2   13.10    9.90
  -7  -2   2    3.70    7.80
  -7  -2   2   17.80   10.20
   6   2  -2   17.90    5.70
   6   2  -2   14.50    7.40
  -6  -2   2    8.90    8.20
  -6  -2   2   13.60    8.90
  -6  -2   2   10.10    6.80
  -6  -2   2   12.70    8.30
   5   2  -2   98.89    8.60
   5   2  -2   83.49    6.10
   5   2  -2   72.09    8.80
   5   2  -2  101.89   11.50
  -5  -2   2   86.89   10.40
  -5  -2   2   91.19   11.60
  -5  -2   2   99.09   12.60
  -5  -2   2   97.79   10.20
  -5  -2   2   91.59    9.90
   4   2  -2   54.99    5.10
   4   2  -2   66.29    8.30
   4   2  -2   61.39    6.60
  -4  -2   2   62.89    7.60
  -4  -2   2   56.89    7.30
  -4  -2   2   69.89    8.00
  -4  -2   2   61.19    8.00
  -4  -2   2   78.49    8.90
   3   2  -2  569.64   18.90
   3   2  -2  539.45   19.50
   3   2  -2  549.95   20.10
  -3  -2   2  519.95   19.70
  -3  -2   2  536.55   20.40
  -3  -2   2  539.65   19.90
  -3  -2   2  562.44   20.10
  -3  -2   2  534.65   21.20
   2   2  -2  793.62   27.90
   2   2  -2  848.52   27.00
   2   2  -2  845.72   27.30
  -2  -2   2  874.51   27.70
  -2  -2   2  804.42   27.40
  -2  -2   2  833.62   27.90
  -2  -2   2  828.72   27.60
  -2  -2   2  846.92   26.60
   1   2  -2 2603.54   79.79
   1   2  -2 2792.32   80.59
   1   2  -2 2715.83   79.99
  -1  -2   2 2695.13   79.99
  -1  -2   2 2535.85   80.29
  -1  -2   2 2882.71   79.99
  -1  -2   2 2660.13   77.79
  -1  -2   2 2690.03   80.19
  -1  -2   2 2695.13   78.29
   0   2  -2    4.30    1.90
   0   2  -2    8.70    3.40
   0   2  -2    6.70    2.00
   0  -2   2   10.30    2.70
   0  -2   2    7.30    2.60
   0  -2   2    6.30    2.10
   0  -2   2    3.80    2.90
  -1   2  -2   22.90    3.90
  -1   2  -2   27.00    3.20
  -1   2  -2   28.50    3.40
  -1   2  -2   31.70    3.40
  -1   2  -2   25.70    3.20
   1  -2   2   25.60    2.80
   1  -2   2   26.50    3.60
   1  -2   2   31.00    3.40
   1  -2   2   19.50    3.20
  -2   2  -2   33.50    4.60
  -2   2  -2   26.50    3.20
  -2   2  -2   27.00    4.20
  -2   2  -2   20.50    3.70
   2  -2   2   31.90    4.40
   2  -2   2   31.20    3.60
   2  -2   2   28.50    3.10
   2  -2   2   27.50    3.80
  -3   2  -2   46.30    6.10
  -3   2  -2   32.70    4.10
  -3   2  -2   37.60    4.80
  -3   2  -2   33.10    4.30
   3  -2   2   35.90    4.20
   3  -2   2   34.80    3.90
   3  -2   2   37.10    6.10
   3  -2   2   34.70    3.90
  -4   2  -2   -1.70    5.00
  -4   2  -2    2.70    4.10
  -4   2  -2    5.00    4.00
  -4   2  -2    0.70    3.20
   4  -2   2    3.30    3.70
   4  -2   2    2.00    2.90
   4  -2   2    3.30    1.90
   4  -2   2    2.40    2.40
  -5   2  -2   18.90    5.20
  -5   2  -2   15.10    6.90
  -5   2  -2   21.30    6.20
  -5   2  -2   18.20    4.70
   5  -2   2   11.10    4.10
   5  -2   2   16.60    6.10
  -6   2  -2   -6.80    4.00
  -6   2  -2    5.80    5.00
  -6   2  -2   -3.20    7.80
  -6   2  -2    3.40    5.50
   6  -2   2   -2.40    4.50
   6  -2   2    0.50    6.20
  -7   2  -2   10.70    6.80
  -7   2  -2    9.20    9.40
   7  -2   2    1.50    5.80
   7  -2   2   -0.30    7.80
   8  -2   2    1.20    7.40
   8  -2   2   -2.60    9.70
   8  -2   2   14.20    7.90
  -9   2  -2   30.90   11.20
   9  -2   2   45.50   15.80
   9  -2   2   54.59   14.40
   9  -2   2   20.70   11.50
   8   1  -2   10.50   11.50
   8   1  -2    9.50    7.60
  -8  -1   2    8.60   11.80
   7   1  -2  161.88   17.80
   7   1  -2  156.68    9.40
   7   1  -2  143.19   12.80
  -7  -1   2  134.29   15.90
  -7  -1   2  163.08   18.10
   6   1  -2   96.99   10.00
   6   1  -2   98.69    6.50
   6   1  -2   67.19   10.00
  -6  -1   2   98.49   11.90
  -6  -1   2   97.19    9.50
  -6  -1   2   96.09   11.80
  -6  -1   2   99.89    8.90
   5   1  -2  758.82   27.30
   5   1  -2  756.62   24.10
  -5  -1   2  756.72   29.00
  -5  -1   2  799.32   29.40
  -5  -1   2  741.23   25.30
  -5  -1   2  755.52   25.30
  -5  -1   2  761.82   29.40
   4   1  -2   33.50    3.60
   4   1  -2   25.50    3.30
   4   1  -2   18.00    3.90
   4   1  -2   24.80    3.90
  -4  -1   2   20.80    4.20
  -4  -1   2   23.40    4.30
  -4  -1   2   20.60    5.70
  -4  -1   2   13.00    5.60
  -4  -1   2   23.20    5.80
   3   1  -2  434.56   16.40
   3   1  -2  457.95   16.00
   3   1  -2  449.76   13.60
  -3  -1   2  408.16   15.90
  -3  -1   2  427.46   17.50
  -3  -1   2  450.75   15.70
  -3  -1   2  457.35   17.00
  -3  -1   2  444.46   17.40
   2   1  -2  139.09    7.30
   2   1  -2  167.78    6.70
   2   1  -2  134.59    7.60
  -2  -1   2  153.78    7.30
  -2  -1   2  157.38    7.40
  -2  -1   2  145.99    7.70
  -2  -1   2  148.79    8.30
   1   1  -2  407.46   14.20
   1   1  -2  413.26   14.60
   1   1  -2  399.16   13.90
  -1  -1   2  403.76   12.90
  -1  -1   2  403.26   14.50
  -1  -1   2  407.16   12.60
  -1  -1   2  419.76   14.20
   0   1  -2    3.00    1.80
   0   1  -2    4.20    2.40
   0   1  -2    5.50    1.60
   0   1  -2    6.90    1.70
   0  -1   2    3.90    2.10
   0  -1   2    2.30    2.30
   0  -1   2   -1.30    1.80
   0  -1   2    2.40    1.90
  -1   1  -2  226.48    9.20
  -1   1  -2  211.78    8.40
  -1   1  -2  222.58    8.30
  -1   1  -2  223.38    8.50
   1  -1   2  211.88    8.80
   1  -1   2  221.58    8.80
   1  -1   2  218.58    8.70
  -2   1  -2  156.88    7.40
  -2   1  -2  145.19    6.90
  -2   1  -2  151.08    8.00
  -2   1  -2  148.09    7.20
   2  -1   2  145.49    6.60
   2  -1   2  147.19    7.00
   2  -1   2  161.48    7.30
   2  -1   2  146.69    6.60
  -3   1  -2   55.09    4.90
  -3   1  -2   53.99    6.30
  -3   1  -2   55.69    5.70
  -3   1  -2   69.69    7.60
   3  -1   2   59.59    4.60
   3  -1   2   65.89    4.10
   3  -1   2   55.89    4.70
  -4   1  -2  302.57   15.40
  -4   1  -2  292.57   11.10
  -4   1  -2  281.07   14.00
  -4   1  -2  291.97   11.90
   4  -1   2  300.57   10.40
   4  -1   2  305.37   12.90
   4  -1   2  301.67   10.10
  -5   1  -2   11.10    4.70
  -5   1  -2   16.60    7.30
  -5   1  -2   15.00    6.20
  -5   1  -2   15.30    4.80
  -5   1  -2   18.90    3.70
   5  -1   2   18.90    6.10
   5  -1   2   21.60    4.80
  -6   1  -2   46.40    6.50
  -6   1  -2   53.89    6.20
  -6   1  -2   61.59    7.20
  -6   1  -2   67.29   11.30
   6  -1   2   59.69    9.10
   6  -1   2   51.09    7.30
   6  -1   2   55.89    6.90
  -7   1  -2   13.00    9.60
  -7   1  -2   10.00    7.10
   7  -1   2   11.70    7.60
   7  -1   2   12.40    5.60
   7  -1   2    4.00    6.40
  -8   1  -2   74.09   14.40
   8  -1   2   69.99   12.20
   8  -1   2   83.89    9.70
  -9   1  -2   15.80    8.90
   9  -1   2   -6.50   11.60
   9  -1   2    1.90   11.40
   8   0  -2  150.08   19.70
   8   0  -2  149.39   19.60
   8   0  -2  159.38   12.10
  -8   0   2  176.88   16.60
  -8   0   2  158.08   16.90
   7   0  -2   34.10   10.50
   7   0  -2   44.20    8.10
   7   0  -2   36.50    6.00
  -7   0   2   36.70    9.80
  -7   0   2   33.60   10.90
   6   0  -2   24.00    7.10
   6   0  -2   31.20    5.20
   6   0  -2   24.70    6.20
  -6   0   2   25.10    8.50
  -6   0   2   37.40    9.10
   5   0  -2   99.79    6.90
   5   0  -2   92.29    9.30
   5   0  -2   83.69    8.60
  -5   0   2   83.39    9.80
  -5   0   2   95.79    6.50
  -5   0   2   87.39    9.90
   4   0  -2  104.19    6.00
   4   0  -2  105.69    7.90
  -4   0   2   96.89   10.40
  -4   0   2  110.39   10.40
  -4   0   2  119.09    9.60
  -4   0   2  100.89    6.50
  -4   0   2  106.79    6.80
   3   0  -2  140.29    8.00
   3   0  -2  152.88    5.40
   3   0  -2  147.69    6.30
   3   0  -2  138.29    6.30
  -3   0   2  132.29    7.70
  -3   0   2  146.89    9.60
  -3   0   2  135.99    6.90
  -3   0   2  132.09    9.30
  -3   0   2  142.69    8.70
   2   0  -2    8.70    2.40
   2   0  -2    6.90    1.70
   2   0  -2    5.80    1.50
   2   0  -2    5.70    2.10
  -2   0   2    9.70    2.40
  -2   0   2   11.40    2.20
  -2   0   2   11.60    3.30
  -2   0   2    7.70    3.50
  -2   0   2   11.00    2.80
  -2   0   2   12.20    2.60
   1   0  -2 4010.70  119.29
   1   0  -2 4020.60  119.69
   1   0  -2 3928.11  118.39
   1   0  -2 4042.20  119.09
  -1   0   2 4088.39  118.49
  -1   0   2 4447.75  119.49
  -1   0   2 4379.26  119.29
  -1   0   2 3985.20  119.69
  -1   0   2 4170.08  119.49
   0   0  -2   82.49    4.30
   0   0  -2   73.59    4.20
   0   0  -2   89.29    4.40
   0   0  -2   79.29    4.70
   0   0  -2   80.89    4.40
   0   0   2   81.19    4.20
   0   0   2   76.79    4.10
   0   0   2   77.49    4.40
   0   0   2   79.49    4.50
   0   0   2   72.29    4.20
  -1   0  -2  318.97   11.10
  -1   0  -2  322.47   11.20
  -1   0  -2  317.67   11.40
  -1   0  -2  304.07   10.50
   1   0   2  310.77   10.50
   1   0   2  309.67   11.20
   1   0   2  322.77   11.10
  -2   0  -2  560.34   19.60
  -2   0  -2  546.85   18.20
  -2   0  -2  563.44   19.20
  -2   0  -2  564.94   18.50
   2   0   2  568.04   18.20
   2   0   2  579.14   19.00
   2   0   2  570.64   17.80
   2   0   2  570.54   18.30
  -3   0  -2   59.19    4.80
  -3   0  -2   49.50    6.50
  -3   0  -2   52.99    6.60
  -3   0  -2   56.59    5.00
  -3   0  -2   51.69    4.60
   3   0   2   56.69    3.70
   3   0   2   47.50    4.10
   3   0   2   51.39    5.10
  -4   0  -2  181.38    8.60
  -4   0  -2  158.88   12.00
  -4   0  -2  163.88    8.10
   4   0   2  165.98    6.50
   4   0   2  163.38    9.50
   4   0   2  165.98    6.80
  -5   0  -2  399.96   20.10
  -5   0  -2  391.26   19.50
  -5   0  -2  423.96   16.10
  -5   0  -2  423.16   15.00
   5   0   2  419.36   15.80
   5   0   2  443.76   18.30
  -6   0  -2   66.09    6.50
  -6   0  -2   67.39    6.70
  -6   0  -2   53.79   10.20
  -6   0  -2   66.09    7.70
   6   0   2   74.69    8.90
   6   0   2   83.39    8.40
  -7   0  -2   14.50   10.50
  -7   0  -2    5.40    7.30
   7   0   2    3.00    7.00
   7   0   2   24.20    7.70
   7   0   2   14.20    5.20
  -8   0  -2   53.79   10.60
  -8   0  -2   56.29   13.50
   8   0   2   47.00    7.20
   8   0   2   48.40   11.20
  -9   0  -2   28.00   10.80
   9   0   2   45.60   13.40
   9   0   2   26.80   12.10
   8  -1  -2   12.70    9.20
   8  -1  -2   13.60    6.70
   8  -1  -2   21.70   10.60
  -8   1   2   19.50    7.80
  -8   1   2   19.00   12.50
   7  -1  -2   11.00    5.50
   7  -1  -2    9.70    7.90
   7  -1  -2   12.70    7.20
  -7   1   2   15.50    9.90
  -7   1   2   12.40    9.60
   6  -1  -2  127.19   12.30
   6  -1  -2  143.29   11.70
   6  -1  -2  135.59   10.20
  -6   1   2  141.69   14.70
  -6   1   2  136.09   13.00
   5  -1  -2   -2.30    3.30
   5  -1  -2    2.70    4.00
   5  -1  -2    2.40    4.00
  -5   1   2    7.90    5.90
  -5   1   2    8.30    6.70
   4  -1  -2  698.13   23.60
   4  -1  -2  703.93   25.30
  -4   1   2  695.13   21.60
  -4   1   2  670.73   25.40
  -4   1   2  708.23   22.00
  -4   1   2  657.43   25.20
   3  -1  -2  822.32   28.00
   3  -1  -2  789.82   26.50
   3  -1  -2  845.62   24.60
   3  -1  -2  849.91   24.40
  -3   1   2  786.92   27.60
  -3   1   2  842.62   27.70
  -3   1   2  827.82   25.40
  -3   1   2  824.72   28.70
  -3   1   2  814.52   27.70
   2  -1  -2  425.06   13.30
   2  -1  -2  414.26   13.50
   2  -1  -2  406.86   13.90
   2  -1  -2  405.96   15.20
  -2   1   2  408.46   15.70
  -2   1   2  403.56   13.90
  -2   1   2  398.66   14.80
  -2   1   2  401.46   14.40
  -2   1   2  401.66   13.60
  -2   1   2  408.76   14.70
   1  -1  -2  820.02   25.90
   1  -1  -2  853.01   26.80
   1  -1  -2  821.72   25.70
   1  -1  -2  852.11   25.90
   1  -1  -2  834.12   26.00
  -1   1   2  837.72   25.60
  -1   1   2  845.62   26.00
  -1   1   2  830.92   26.20
  -1   1   2  887.41   26.30
  -1   1   2  838.32   26.90
  -1   1   2  855.61   26.10
   0  -1  -2  380.86   12.50
   0  -1  -2  381.66   12.60
   0  -1  -2  365.16   12.80
   0   1   2  367.56   12.70
   0   1   2  365.16   12.60
   0   1   2  370.36   12.40
   0   1   2  386.46   12.20
   0   1   2  353.76   12.30
   0   1   2  377.26   12.80
  -1  -1  -2  212.98    8.40
  -1  -1  -2  222.98    8.70
  -1  -1  -2  215.98    8.60
  -1  -1  -2  215.18    8.80
  -1  -1  -2  220.08    7.30
   1   1   2  212.38    7.30
   1   1   2  205.28    8.20
   1   1   2  214.58    8.30
   1   1   2  214.68    8.60
   1   1   2  220.38    8.50
  -2  -1  -2 3390.26   98.49
  -2  -1  -2 3366.76   98.49
  -2  -1  -2 3304.57   99.49
   2   1   2 3396.16   96.69
   2   1   2 3342.57   99.39
   2   1   2 3388.36   98.49
   2   1   2 3359.26   99.49
   2   1   2 3462.05   98.39
  -3  -1  -2   81.09    7.80
  -3  -1  -2   80.09    8.30
  -3  -1  -2   79.19    5.60
  -3  -1  -2   85.49    5.90
   3   1   2   79.89    3.90
   3   1   2   73.79    6.30
   3   1   2   85.49    4.90
   3   1   2   79.29    3.80
   3   1   2   82.89    5.30
  -4  -1  -2   79.59   10.00
  -4  -1  -2   79.19    7.00
  -4  -1  -2   66.59    6.00
  -4  -1  -2   75.49   10.00
  -4  -1  -2   73.09    6.20
   4   1   2   68.19    5.00
   4   1   2   65.09    5.30
   4   1   2   80.69    7.40
   4   1   2   77.59    4.80
  -5  -1  -2   41.10    4.90
  -5  -1  -2   35.70    8.40
  -5  -1  -2   46.20    6.20
   5   1   2   46.10    3.60
   5   1   2   48.80    4.80
   5   1   2   44.10    6.50
   5   1   2   42.50    4.40
  -6  -1  -2  177.28   16.40
  -6  -1  -2  186.48   10.00
  -6  -1  -2  180.78   10.00
  -6  -1  -2  155.28   12.10
   6   1   2  147.59   13.20
   6   1   2  170.48    8.70
  -7  -1  -2    2.00   10.40
  -7  -1  -2    6.20    7.70
  -7  -1  -2    3.50    4.90
   7   1   2    1.00    7.10
   7   1   2    6.00    3.90
  -8  -1  -2  114.39   17.30
  -8  -1  -2  149.88   13.90
   8   1   2  150.18   10.30
   8   1   2  110.09   14.00
   8   1   2  133.99   16.00
  -9  -1  -2   28.20   11.20
   9   1   2   31.70   13.50
   9   1   2   11.90   10.50
   8  -2  -2   16.70    9.60
   8  -2  -2    3.40    8.90
   8  -2  -2    8.70    9.40
  -8   2   2   10.70    7.40
  -8   2   2    7.40   12.30
   7  -2  -2   46.00    8.50
   7  -2  -2   34.30    9.10
   7  -2  -2   57.99    8.30
  -7   2   2   54.09   11.20
  -7   2   2   44.20   11.00
   6  -2  -2   -0.80    5.20
   6  -2  -2    1.60    4.80
   6  -2  -2   11.90    6.20
  -6   2   2   -2.00    6.20
  -6   2   2    1.20    8.10
   5  -2  -2  224.28   13.80
   5  -2  -2  241.78   12.60
   5  -2  -2  221.48   12.30
  -5   2   2  249.48   14.90
  -5   2   2  234.68    9.80
  -5   2   2  240.08   15.20
   4  -2  -2    7.80    3.30
   4  -2  -2    6.10    3.50
  -4   2   2    1.30    4.50
  -4   2   2    3.90    6.50
  -4   2   2   12.20    5.60
  -4   2   2    7.90    3.10
  -4   2   2    8.80    3.30
   3  -2  -2    9.10    3.40
   3  -2  -2    7.60    1.80
   3  -2  -2    8.60    2.80
   3  -2  -2    3.20    2.20
  -3   2   2    7.90    4.90
  -3   2   2    5.40    4.40
  -3   2   2    4.90    3.70
  -3   2   2    7.40    2.80
   2  -2  -2  178.38    7.60
   2  -2  -2  195.68    7.60
   2  -2  -2  192.88    9.40
   2  -2  -2  196.28    8.60
   2  -2  -2  197.78    8.10
  -2   2   2  193.38    8.50
  -2   2   2  186.18    8.40
  -2   2   2  202.48    8.60
  -2   2   2  192.28    9.30
  -2   2   2  180.58    9.70
   1  -2  -2   26.80    3.20
   1  -2  -2   25.10    3.00
   1  -2  -2   24.40    3.10
   1  -2  -2   24.20    3.00
   1  -2  -2   27.90    3.20
  -1   2   2   25.60    3.30
  -1   2   2   27.30    3.50
  -1   2   2   29.90    3.20
  -1   2   2   20.40    3.10
  -1   2   2   25.60    2.90
  -1   2   2   20.00    3.10
   0  -2  -2  235.18    9.50
   0  -2  -2  236.08    8.80
   0  -2  -2  222.28    9.00
   0  -2  -2  232.58    8.70
   0  -2  -2  225.98    8.80
   0   2   2  215.68    8.70
   0   2   2  218.58    9.00
   0   2   2  200.28    9.10
   0   2   2  228.78    9.30
  -1  -2  -2   17.20    3.00
  -1  -2  -2   14.30    2.20
  -1  -2  -2   15.70    2.00
  -1  -2  -2   15.80    3.10
  -1  -2  -2   22.20    3.00
   1   2   2   15.20    2.80
   1   2   2   12.40    2.40
   1   2   2   20.10    2.80
   1   2   2   21.70    3.00
  -2  -2  -2  512.85   17.60
  -2  -2  -2  497.75   18.60
  -2  -2  -2  489.85   17.40
   2   2   2  499.55   17.30
   2   2   2  487.05   17.20
   2   2   2  484.05   17.10
   2   2   2  498.85   18.10
  -3  -2  -2   35.20    4.50
  -3  -2  -2   23.80    5.50
  -3  -2  -2   33.10    4.50
  -3  -2  -2   24.10    5.30
   3   2   2   29.00    4.50
   3   2   2   38.10    5.00
   3   2   2   29.00    4.00
   3   2   2   32.30    4.10
  -4  -2  -2   -0.80    3.50
  -4  -2  -2    3.40    3.60
  -4  -2  -2    0.00    5.60
  -4  -2  -2    5.10    5.60
   4   2   2    2.20    4.50
   4   2   2   -0.80    2.10
   4   2   2    5.60    3.50
   4   2   2   -6.00    3.00
  -5  -2  -2   -2.70    4.10
  -5  -2  -2   -4.40    4.10
  -5  -2  -2    0.20    6.80
   5   2   2    2.40    3.60
   5   2   2   -2.40    4.30
   5   2   2   -1.40    2.10
   5   2   2    0.90    2.60
   5   2   2   -1.90    5.80
  -6  -2  -2  107.09   13.60
  -6  -2  -2  104.79   10.10
  -6  -2  -2  113.39   10.30
   6   2   2  102.09   11.60
   6   2   2  111.59   14.20
   6   2   2  105.19    6.20
   6   2   2  113.39    7.00
  -7  -2  -2    0.60    6.50
  -7  -2  -2    4.80   10.70
  -7  -2  -2    1.30    6.20
   7   2   2   -6.00    7.40
   7   2   2    4.20   10.20
   7   2   2   -2.70    3.10
  -8  -2  -2    2.80   12.50
   8   2   2    6.90   14.90
   8   2   2   18.50   10.80
   8   2   2   17.90    8.50
  -9  -2  -2    5.20   10.00
   9   2   2   22.10   14.70
   8  -3  -2   27.70   11.00
   8  -3  -2   21.70    9.40
   8  -3  -2   41.70   14.70
  -8   3   2   28.80    8.50
  -8   3   2   40.20   13.70
   7  -3  -2  172.08   14.80
   7  -3  -2  151.38   17.60
   7  -3  -2  144.89   13.10
  -7   3   2  159.38   15.20
  -7   3   2  151.08   15.10
   6  -3  -2   16.60    5.70
   6  -3  -2   27.80    6.90
   6  -3  -2   31.30    8.20
  -6   3   2   23.40    4.30
  -6   3   2   18.20    8.30
  -6   3   2   13.00    4.70
  -6   3   2   17.50    9.30
   5  -3  -2  238.28   13.30
   5  -3  -2  225.98   14.70
   5  -3  -2  213.18   11.40
  -5   3   2  216.08   10.80
  -5   3   2  245.98   15.60
  -5   3   2  228.08   13.70
  -5   3   2  218.38   10.90
   4  -3  -2  179.78   10.60
   4  -3  -2  171.68   11.30
   4  -3  -2  189.98    9.00
   4  -3  -2  190.28    7.50
   4  -3  -2  183.08    7.80
   4  -3  -2  186.48    8.80
  -4   3   2  193.98   11.50
  -4   3   2  195.18   15.30
  -4   3   2  190.78   12.40
  -4   3   2  182.38    9.90
   3  -3  -2  495.35   17.10
   3  -3  -2  489.95   16.00
   3  -3  -2  490.35   16.80
   3  -3  -2  484.55   19.70
   3  -3  -2  494.35   19.00
  -3   3   2  471.85   17.60
  -3   3   2  468.85   20.90
  -3   3   2  514.65   18.70
  -3   3   2  474.95   17.60
  -3   3   2  518.85   18.70
   2  -3  -2 1558.14   47.20
   2  -3  -2 1567.84   47.20
   2  -3  -2 1523.05   48.20
   2  -3  -2 1522.95   49.10
   2  -3  -2 1531.95   45.40
  -2   3   2 1600.14   47.50
  -2   3   2 1581.74   47.20
  -2   3   2 1521.15   47.50
  -2   3   2 1516.45   47.50
   1  -3  -2   52.99    5.60
   1  -3  -2   53.99    4.10
   1  -3  -2   51.29    4.20
   1  -3  -2   53.99    4.50
  -1   3   2   48.00    4.60
  -1   3   2   47.40    5.50
  -1   3   2   47.90    3.70
  -1   3   2   49.60    5.10
  -1   3   2   49.90    6.00
   0  -3  -2  782.82   26.00
   0  -3  -2  780.12   25.10
   0  -3  -2  738.83   25.20
   0  -3  -2  798.72   26.00
   0   3   2  791.12   25.80
   0   3   2  800.42   24.90
   0   3   2  765.42   26.10
   0   3   2  836.12   26.10
  -1  -3  -2   83.39    7.00
  -1  -3  -2  105.19    5.70
  -1  -3  -2   89.99    5.90
  -1  -3  -2   99.19    7.20
   1   3   2   97.29    6.00
   1   3   2   89.89    7.00
   1   3   2   93.69    6.00
   1   3   2   89.09    6.00
  -2  -3  -2   49.30    5.80
  -2  -3  -2   41.10    5.70
  -2  -3  -2   58.29    3.80
  -2  -3  -2   60.89    5.00
  -2  -3  -2   50.09    4.70
   2   3   2   49.70    6.30
   2   3   2   59.29    5.20
   2   3   2   44.00    5.40
   2   3   2   58.79    5.30
  -3  -3  -2  155.38    8.50
  -3  -3  -2  138.69   10.90
  -3  -3  -2  137.39    9.20
  -3  -3  -2  146.49    8.50
   3   3   2  130.69    8.30
   3   3   2  156.58    9.50
   3   3   2  147.49    9.60
   3   3   2  159.48    8.40
  -4  -3  -2  112.69    9.50
  -4  -3  -2  122.79    8.10
  -4  -3  -2  109.99   11.00
   4   3   2  117.29    7.50
   4   3   2  116.19    9.80
   4   3   2  109.79    8.90
   4   3   2  113.49    9.20
  -5  -3  -2  284.07   14.50
  -5  -3  -2  277.57   16.40
  -5  -3  -2  283.77   18.10
   5   3   2  299.87   12.80
   5   3   2  304.47   17.10
   5   3   2  300.17   14.20
  -6  -3  -2  106.29   13.90
  -6  -3  -2   88.09   11.50
  -6  -3  -2  117.39   12.80
   6   3   2   91.39    7.90
   6   3   2   87.29    9.80
   6   3   2   93.19   10.40
   6   3   2   94.99   13.10
  -7  -3  -2  133.09   14.10
  -7  -3  -2  170.48   20.00
   7   3   2  157.38    7.70
   7   3   2  148.29   16.90
   7   3   2  128.49   16.50
   7   3   2  134.49    7.20
  -8  -3  -2   31.60   13.90
   8   3   2    4.40    8.20
   8   3   2    5.20   10.90
   8  -4  -2  159.58   18.80
   8  -4  -2  124.79   16.90
  -8   4   2  116.49   13.30
  -8   4   2  110.19   17.10
   7  -4  -2  157.78   18.10
   7  -4  -2  165.68   15.90
   7  -4  -2  142.99   11.40
  -7   4   2  141.39   15.70
  -7   4   2  145.99   15.30
   6  -4  -2    2.70    4.20
   6  -4  -2    3.20    6.30
   6  -4  -2    0.80    5.70
   6  -4  -2   -2.70    6.80
  -6   4   2    9.00    5.80
  -6   4   2   -1.60    6.10
  -6   4   2   11.00    7.50
  -6   4   2   -0.90    9.20
   5  -4  -2  515.95   24.00
   5  -4  -2  506.35   16.10
   5  -4  -2  524.75   17.80
   5  -4  -2  520.65   22.70
   5  -4  -2  506.05   17.70
  -5   4   2  513.35   23.00
  -5   4   2  515.25   29.50
  -5   4   2  497.35   22.00
  -5   4   2  520.65   20.20
   4  -4  -2  907.21   34.10
   4  -4  -2  930.31   33.00
   4  -4  -2  892.91   29.40
   4  -4  -2  918.01   28.00
   4  -4  -2  903.11   27.70
   4  -4  -2  944.51   29.50
  -4   4   2  904.81   30.90
  -4   4   2  938.61   36.80
  -4   4   2  915.31   31.00
  -4   4   2  900.51   31.90
  -4   4   2  923.01   32.20
   3  -4  -2   20.60    4.80
   3  -4  -2   23.10    4.70
   3  -4  -2   20.10    3.60
  -3   4   2   19.50    7.20
  -3   4   2   34.20    5.30
  -3   4   2   15.00    5.30
  -3   4   2   19.70    5.10
   2  -4  -2 1584.94   47.20
   2  -4  -2 1627.04   50.49
   2  -4  -2 1583.54   51.29
   2  -4  -2 1632.14   50.49
  -2   4   2 1652.23   52.99
  -2   4   2 1623.74   49.70
  -2   4   2 1657.33   50.09
  -2   4   2 1605.14   50.99
  -2   4   2 1678.63   50.89
   1  -4  -2 1562.24   48.10
   1  -4  -2 1613.84   50.49
   1  -4  -2 1612.14   50.49
  -1   4   2 1660.63   51.59
  -1   4   2 1591.14   47.90
  -1   4   2 1663.33   50.99
  -1   4   2 1630.34   50.59
   0  -4  -2  246.78   10.70
   0  -4  -2  244.58   10.50
   0  -4  -2  242.58   11.80
   0  -4  -2  247.68   11.40
   0   4   2  232.08   13.00
   0   4   2  245.78   11.20
   0   4   2  240.18   10.00
  -1  -4  -2 4353.36  122.19
  -1  -4  -2 4323.07  122.79
  -1  -4  -2 3971.50  121.29
   1   4   2 3957.30  121.39
   1   4   2 4203.98  122.09
   1   4   2 4159.58  122.59
   1   4   2 3973.80  122.59
  -2  -4  -2  875.51   29.80
  -2  -4  -2  894.61   28.70
  -2  -4  -2  828.92   30.30
  -2  -4  -2  812.32   27.10
  -2  -4  -2  868.01   30.00
   2   4   2  909.01   28.40
   2   4   2  836.62   30.00
   2   4   2  909.61   30.00
   2   4   2  850.81   29.50
  -3  -4  -2  119.39    6.20
  -3  -4  -2  139.69    9.00
  -3  -4  -2  113.39   10.00
  -3  -4  -2  107.59    7.90
   3   4   2  124.99    8.50
   3   4   2  129.09    9.60
   3   4   2  134.49   10.80
   3   4   2  127.99    8.20
  -4  -4  -2  685.03   26.20
  -4  -4  -2  681.23   25.30
  -4  -4  -2  655.93   27.50
   4   4   2  711.13   24.20
   4   4   2  712.33   25.10
   4   4   2  699.73   26.00
   4   4   2  661.93   27.40
  -5  -4  -2  265.97   17.80
  -5  -4  -2  243.78   15.50
  -5  -4  -2  234.38   13.00
   5   4   2  222.28   14.30
   5   4   2  216.88   14.60
   5   4   2  244.98   12.60
   5   4   2  239.08   16.30
  -6  -4  -2   86.69    9.60
  -6  -4  -2   74.89   10.30
  -6  -4  -2   81.09   13.40
   6   4   2   61.19    9.40
   6   4   2   78.39    8.90
   6   4   2   60.99    8.60
   6   4   2   88.49   11.80
  -7  -4  -2   83.69   15.30
   7   4   2   64.89   12.30
   7   4   2   79.39   10.60
   7   4   2   84.69   10.10
   7   4   2   65.59    7.10
  -8  -4  -2    1.70   12.50
   8   4   2   70.89   15.20
   7  -5  -2   21.20   11.40
   7  -5  -2   12.80    9.50
  -7   5   2   26.50    7.60
  -7   5   2   19.00   12.70
   6  -5  -2   81.19   12.30
   6  -5  -2  101.29   13.80
  -6   5   2   88.09   10.60
  -6   5   2  103.29   13.00
  -6   5   2   85.29   11.50
   5  -5  -2   56.09    8.60
   5  -5  -2   58.39    6.90
   5  -5  -2   57.69    9.40
   5  -5  -2   58.89    6.80
  -5   5   2   57.69    8.90
  -5   5   2   56.29    8.40
  -5   5   2   63.09   10.20
  -5   5   2   78.49    9.60
  -5   5   2   58.29   18.10
   4  -5  -2  966.20   33.10
   4  -5  -2 1012.20   37.70
   4  -5  -2  975.20   36.10
   4  -5  -2 1020.00   33.00
  -4   5   2  998.70   41.20
  -4   5   2 1008.90   34.90
  -4   5   2  973.00   33.60
  -4   5   2  993.30   34.90
  -4   5   2  972.10   34.00
   3  -5  -2  117.89   10.30
   3  -5  -2  105.89    9.30
   3  -5  -2  107.19    8.20
  -3   5   2  109.99    8.60
  -3   5   2  123.19    9.00
  -3   5   2  116.29   10.50
  -3   5   2  119.09   15.40
  -3   5   2  116.39   11.60
   2  -5  -2  888.41   30.90
   2  -5  -2  885.91   31.40
   2  -5  -2  911.31   31.70
  -2   5   2  894.41   31.90
  -2   5   2  886.11   31.20
  -2   5   2  943.41   30.00
  -2   5   2  909.91   34.20
  -2   5   2  904.41   30.20
   1  -5  -2  912.21   32.80
   1  -5  -2  974.70   33.00
   1  -5  -2  971.50   33.60
  -1   5   2  991.40   33.90
  -1   5   2  974.10   33.10
  -1   5   2  987.10   34.60
  -1   5   2  977.70   30.00
   0  -5  -2  164.48   12.00
   0  -5  -2  158.78    9.90
   0  -5  -2  167.38    9.10
   0   5   2  178.28   11.40
   0   5   2  172.68   11.40
   0   5   2  158.38    9.90
   0   5   2  170.88    8.60
  -1  -5  -2 1165.18   37.50
  -1  -5  -2 1151.68   38.90
  -1  -5  -2 1148.89   39.20
   1   5   2 1175.38   38.10
   1   5   2 1168.28   38.10
   1   5   2 1148.49   38.80
   1   5   2 1139.99   39.30
  -2  -5  -2  713.93   24.70
  -2  -5  -2  689.43   26.60
  -2  -5  -2  673.63   26.00
  -2  -5  -2  699.03   23.90
   2   5   2  678.73   26.00
   2   5   2  682.63   24.70
   2   5   2  715.43   26.80
   2   5   2  724.73   26.20
  -3  -5  -2   60.19    8.50
  -3  -5  -2   57.09    6.70
  -3  -5  -2   50.89    6.70
  -3  -5  -2   68.09    8.10
   3   5   2   61.19    7.10
   3   5   2   50.49    7.00
   3   5   2   51.29    7.60
  -4  -5  -2  755.92   24.00
  -4  -5  -2  728.53   29.40
  -4  -5  -2  767.12   28.50
  -4  -5  -2  751.82   30.20
  -4  -5  -2  737.13   27.40
   4   5   2  743.23   30.50
   4   5   2  725.03   30.00
   4   5   2  775.52   26.40
   4   5   2  777.02   28.30
  -5  -5  -2   45.60   10.50
  -5  -5  -2   35.50    7.00
  -5  -5  -2   22.20    9.40
   5   5   2   40.10    6.80
   5   5   2   34.80    8.70
   5   5   2   35.40    6.60
   5   5   2   33.70    9.50
  -6  -5  -2   14.20    6.80
  -6  -5  -2   -2.40    9.70
   6   5   2    3.30    7.90
   6   5   2   13.90    6.20
   6   5   2    9.10    7.00
   6   5   2    2.20   10.00
  -7  -5  -2   34.10   13.90
   7   5   2    7.60   10.80
   7   5   2   12.40    6.70
  -8  -5  -2   12.00   10.40
   8   5   2   10.90    6.90
   8   5   2    0.10   14.40
   7  -6  -2  212.08   25.30
   7  -6  -2  238.98   21.40
  -7   6   2  215.58   19.70
  -7   6   2  214.88   15.70
   6  -6  -2    4.40    4.00
   6  -6  -2   -0.90    8.10
   6  -6  -2    3.50    4.00
   6  -6  -2   16.70    9.70
  -6   6   2   14.80   11.60
  -6   6   2   13.80    8.70
   5  -6  -2  314.07   15.40
   5  -6  -2  369.56   20.30
   5  -6  -2  359.56   18.10
   5  -6  -2  315.57   21.10
  -5   6   2  354.26   20.80
  -5   6   2  345.87   18.00
  -5   6   2  346.07   16.90
  -5   6   2  323.37   24.10
   4  -6  -2   54.29    7.00
   4  -6  -2   47.80    8.70
   4  -6  -2   49.60    8.30
  -4   6   2   56.69   10.10
  -4   6   2   70.39    9.30
  -4   6   2   48.90    7.20
  -4   6   2   50.79    9.00
   3  -6  -2   46.30    7.40
   3  -6  -2   31.50    7.60
   3  -6  -2   35.40    6.10
  -3   6   2   38.10    6.50
  -3   6   2   40.80    9.20
  -3   6   2   24.80   11.50
  -3   6   2   40.30    7.60
  -3   6   2   42.50    6.30
   2  -6  -2  369.06   19.30
   2  -6  -2  405.26   18.30
   2  -6  -2  390.66   17.50
  -2   6   2  393.76   20.00
  -2   6   2  374.56   22.30
  -2   6   2  403.16   18.00
  -2   6   2  382.26   16.90
   1  -6  -2  627.94   25.20
   1  -6  -2  669.73   25.20
   1  -6  -2  684.53   26.90
  -1   6   2  662.93   25.70
  -1   6   2  692.13   21.90
  -1   6   2  646.34   27.70
  -1   6   2  628.64   26.80
   0  -6  -2  309.37   16.70
   0  -6  -2  316.07   15.50
   0  -6  -2  293.57   14.00
   0   6   2  306.07   15.30
   0   6   2  307.17   13.30
   0   6   2  285.17   16.70
   0   6   2  307.67   17.10
  -1  -6  -2  521.65   19.80
  -1  -6  -2  500.35   21.30
  -1  -6  -2  512.45   23.10
   1   6   2  493.25   21.10
   1   6   2  500.15   21.10
   1   6   2  505.25   20.30
   1   6   2  488.65   23.30
  -2  -6  -2   56.49    7.80
  -2  -6  -2   53.29    6.80
  -2  -6  -2   44.20    8.50
  -2  -6  -2   62.99    7.00
   2   6   2   64.09    7.70
   2   6   2   66.69   10.10
   2   6   2   48.20    9.30
   2   6   2   52.99    7.00
  -3  -6  -2   85.39    9.80
  -3  -6  -2   94.19    9.50
  -3  -6  -2  104.09   11.70
  -3  -6  -2   88.79    8.50
   3   6   2  105.69   10.50
   3   6   2  100.99   11.10
   3   6   2   92.39   11.60
   3   6   2   98.49   10.50
  -4  -6  -2  221.68   12.90
  -4  -6  -2  213.28   11.60
  -4  -6  -2  216.38   14.30
  -4  -6  -2  190.98   18.50
   4   6   2  214.28   14.00
   4   6   2  200.98   18.50
  -5  -6  -2    7.80    6.50
  -5  -6  -2    2.00    9.80
  -5  -6  -2    3.80    4.00
   5   6   2   -1.50   12.50
   5   6   2    0.90    6.90
   5   6   2    9.30    6.10
   5   6   2    9.50    7.50
  -6  -6  -2   11.70   11.30
  -6  -6  -2   13.10    8.30
   6   6   2   27.90   10.00
   6   6   2   26.00    8.00
   6   6   2   32.10   13.50
   6   6   2   25.00    8.30
  -7  -6  -2   21.80   14.20
   7   6   2   39.50   13.20
   7   6   2   25.70    8.90
   6  -7  -2    3.20    5.90
   6  -7  -2   12.20   11.30
   6  -7  -2   28.50   11.30
  -6   7   2    0.00    6.50
  -6   7   2   10.30   13.00
   5  -7  -2  173.38   19.00
   5  -7  -2  149.88   13.30
   5  -7  -2  180.38   16.60
  -5   7   2  167.88   14.00
  -5   7   2  181.18   13.90
  -5   7   2  181.28   15.40
   4  -7  -2  165.78   18.30
   4  -7  -2  168.58   13.00
   4  -7  -2  162.58   14.90
  -4   7   2  172.08   12.60
  -4   7   2  190.98   15.50
  -4   7   2  151.18   13.60
   3  -7  -2   60.69    8.40
   3  -7  -2   68.59   10.40
   3  -7  -2   63.19   12.50
  -3   7   2   69.29    8.90
  -3   7   2   61.79    8.60
   2  -7  -2  742.53   30.00
   2  -7  -2  719.13   28.40
   2  -7  -2  718.93   35.60
  -2   7   2  650.63   32.50
  -2   7   2  709.13   26.90
  -2   7   2  699.23   31.50
  -2   7   2  765.92   29.00
   1  -7  -2   72.79    8.90
   1  -7  -2   88.39    9.50
   1  -7  -2   70.89   10.70
  -1   7   2   84.89    6.60
  -1   7   2   94.49   10.60
  -1   7   2   63.59   11.70
  -1   7   2   79.19   11.20
   0  -7  -2  635.94   24.80
   0  -7  -2  644.64   26.80
   0  -7  -2  642.14   28.00
   0   7   2  642.54   23.90
   0   7   2  645.64   28.80
   0   7   2  652.33   26.80
   0   7   2  669.93   29.10
  -1  -7  -2  964.00   35.00
  -1  -7  -2  916.21   37.10
  -1  -7  -2  964.40   35.90
  -1  -7  -2  968.90   33.60
   1   7   2  944.71   37.40
   1   7   2  930.01   36.00
   1   7   2  942.01   35.40
   1   7   2  949.31   33.90
  -2  -7  -2   36.20    7.60
  -2  -7  -2   31.80    9.80
  -2  -7  -2   49.20    8.60
  -2  -7  -2   50.99    7.70
   2   7   2   36.80    7.00
   2   7   2   26.70    6.70
   2   7   2   27.50   10.10
   2   7   2   41.50    8.70
  -3  -7  -2  385.06   18.70
  -3  -7  -2  413.16   20.70
  -3  -7  -2  396.16   17.90
   3   7   2  431.26   21.50
   3   7   2  398.56   25.50
   3   7   2  407.26   20.50
   3   7   2  391.86   20.40
  -4  -7  -2  308.67   16.70
  -4  -7  -2  346.67   19.50
  -4  -7  -2  299.87   16.70
   4   7   2  326.37   20.90
   4   7   2  332.57   18.80
   4   7   2  302.77   18.50
   4   7   2  363.76   25.70
  -5  -7  -2   53.79    7.30
  -5  -7  -2   43.60    9.60
  -5  -7  -2   46.50   12.90
   5   7   2   45.90   15.40
   5   7   2   61.29   10.40
   5   7   2   54.29    9.40
   5   7   2   71.59   11.40
  -6  -7  -2  239.28   24.10
  -6  -7  -2  264.97   19.30
   6   7   2  245.58   24.60
   6   7   2  254.07   18.80
  -7  -7  -2  164.88   20.40
   7   7   2  148.69   19.30
   7   7   2  115.79   17.90
   6  -8  -2   -3.20   13.70
   6  -8  -2   26.40   12.60
   6  -8  -2   13.70    8.10
  -6   8   2   36.30    8.00
  -6   8   2   13.40   15.10
   5  -8  -2  232.08   21.40
   5  -8  -2  251.37   25.40
   5  -8  -2  235.08   17.30
  -5   8   2  249.78   20.40
  -5   8   2  246.38   17.20
   4  -8  -2  153.58   16.30
   4  -8  -2  102.09   23.90
   4  -8  -2  126.49   13.90
  -4   8   2  125.39   14.40
  -4   8   2  132.49   13.10
   3  -8  -2  112.99   13.40
   3  -8  -2  109.59   15.20
   3  -8  -2  134.29   14.00
  -3   8   2  127.89   14.20
  -3   8   2  108.99   11.60
   2  -8  -2 1108.59   40.40
   2  -8  -2 1091.09   40.70
   2  -8  -2 1070.39   42.40
  -2   8   2 1079.59   40.80
  -2   8   2 1078.79   38.40
   1  -8  -2  106.69   14.80
   1  -8  -2   97.09   10.80
   1  -8  -2  100.79   12.10
  -1   8   2   82.39   10.60
  -1   8   2   99.59    8.10
   0  -8  -2  304.27   18.40
   0  -8  -2  307.27   16.50
   0   8   2  314.07   18.00
   0   8   2  285.67   23.20
   0   8   2  318.67   15.50
  -1  -8  -2  989.70   35.80
  -1  -8  -2 1014.20   38.30
  -1  -8  -2  947.71   41.00
  -1  -8  -2 1005.90   38.10
   1   8   2 1015.40   36.20
   1   8   2  982.10   40.00
   1   8   2  966.40   42.20
   1   8   2  966.50   38.00
  -2  -8  -2   35.80    9.20
  -2  -8  -2   34.20    6.50
   2   8   2   25.90   12.70
   2   8   2   14.90    7.10
   2   8   2   42.80    8.90
   2   8   2   40.70   11.80
  -3  -8  -2  891.61   33.20
  -3  -8  -2  873.81   33.90
  -3  -8  -2  924.61   38.20
   3   8   2  865.71   36.10
   3   8   2  940.81   41.90
   3   8   2  869.81   36.40
   3   8   2  919.61   37.30
  -4  -8  -2  434.36   24.90
  -4  -8  -2  404.16   20.80
  -4  -8  -2  407.96   21.40
   4   8   2  411.76   25.10
   4   8   2  465.95   34.60
   4   8   2  454.95   23.90
   4   8   2  417.06   25.00
  -5  -8  -2   68.69   12.20
  -5  -8  -2   61.69    9.80
  -5  -8  -2   48.70   13.90
   5   8   2   46.10   11.00
   5   8   2   52.09   21.50
   5   8   2   55.49   13.40
  -6  -8  -2   85.79   14.80
  -6  -8  -2   85.29   16.60
   6   8   2  107.19   17.80
   6   8   2   85.99   13.60
   5  -9  -2   48.80   17.50
   5  -9  -2   67.39   15.10
   5  -9  -2   66.99   12.20
  -5   9   2   61.09   13.90
   4  -9  -2  151.38   18.50
   4  -9  -2  146.79   17.60
  -4   9   2  140.79   14.70
  -4   9   2  151.88   17.10
   3  -9  -2   12.10    8.80
   3  -9  -2   12.90   15.30
   3  -9  -2    9.30    8.60
  -3   9   2   17.60    9.40
  -3   9   2   19.20    9.10
   2  -9  -2  525.15   26.20
   2  -9  -2  507.45   25.10
   2  -9  -2  494.15   33.20
  -2   9   2  563.54   28.00
  -2   9   2  486.35   24.10
   1  -9  -2  448.66   23.90
   1  -9  -2  392.96   29.80
   1  -9  -2  436.56   22.00
  -1   9   2  413.56   23.60
  -1   9   2  443.16   17.70
   0  -9  -2  181.18   14.20
   0  -9  -2  171.78   15.00
   0   9   2  193.88   13.30
   0   9   2  143.39   15.50
  -1  -9  -2 1091.09   43.30
  -1  -9  -2 1141.49   40.60
  -1  -9  -2  949.51   42.80
   1   9   2 1152.38   43.30
   1   9   2 1132.39   40.60
  -2  -9  -2   66.39   11.30
  -2  -9  -2   46.60   12.10
   2   9   2   39.10   11.70
   2   9   2   81.39   12.10
   2   9   2   44.20   15.50
  -3  -9  -2  157.48   19.70
  -3  -9  -2  179.08   15.60
  -3  -9  -2  166.98   19.50
   3   9   2  209.58   19.80
   3   9   2  174.28   18.60
   3   9   2  157.08   18.90
  -4  -9  -2  228.58   17.90
  -4  -9  -2  246.38   22.70
   4   9   2  216.68   23.00
   4   9   2  261.87   22.30
  -5  -9  -2    9.90   14.20
  -5  -9  -2    5.50   13.00
   5   9   2   17.20   11.70
   5   9   2  -19.20   13.60
   4 -10  -2   23.00   12.30
  -4  10   2   23.50   12.70
   3 -10  -2   11.00   11.50
   3 -10  -2   22.30   11.50
  -3  10   2   19.70   12.70
  -3  10   2   12.40   10.70
   2 -10  -2  107.79   14.40
   2 -10  -2   99.19   14.10
  -2  10   2   90.59   12.90
  -2  10   2   80.79   15.00
   1 -10  -2    6.50    8.90
   1 -10  -2   28.00   10.80
  -1  10   2   11.30   10.70
   0 -10  -2  158.08   19.60
   0 -10  -2  173.68   16.70
   0  10   2  118.09   15.10
   0  10   2  147.49   14.10
  -1 -10  -2  140.79   17.60
  -1 -10  -2  138.79   16.30
   1  10   2  113.49   16.30
   1  10   2  102.99   12.20
  -2 -10  -2   -1.10    8.60
  -2 -10  -2   15.10   10.80
   2  10   2   16.40   10.40
   2  10   2   27.00   12.60
  -3 -10  -2   73.39   15.80
  -3 -10  -2   74.69   12.00
   3  10   2   36.90   12.30
   3  10   2   56.39   14.10
  -4 -10  -2   64.39   16.10
   4  10   2   43.90   14.50
   4  10   2   45.30   15.40
   2 -11  -2   52.89   14.10
  -2  11   2   87.19   17.20
  -2  11   2   45.00   13.40
   1 -11  -2   14.80   13.10
   1 -11  -2   22.30   12.20
  -1  11   2   27.60   14.70
   0 -11  -2  157.98   20.00
   0  11   2  127.79   19.10
  -1 -11  -2   -3.20   14.20
  -1 -11  -2   14.40   11.10
   1  11   2   -9.60   13.70
   1  11   2   -8.10    9.80
  -2 -11  -2   71.79   13.10
  -2 -11  -2   60.29   17.70
   2  11   2   23.90   13.10
   2  11   2   41.40   16.60
   2  10  -3   99.59   16.60
   2  10  -3   66.09   24.20
  -2 -10   3   69.69   19.30
   1  10  -3    8.30   14.40
   1  10  -3   -3.50   11.20
  -1 -10   3   -8.40   13.70
  -1 -10   3    0.10    8.30
   0  10  -3   90.69   13.20
   0  10  -3  123.99   18.20
   0 -10   3  114.29   16.00
   0 -10   3  102.29   17.10
  -1  10  -3  103.19   15.50
   1 -10   3  134.09   18.10
   1 -10   3  108.59   14.20
  -2  10  -3    4.40   13.10
   2 -10   3   22.90   11.80
   2 -10   3   -5.20   12.40
  -3  10  -3   40.20   15.10
   3 -10   3   39.40   14.20
   4   9  -3   16.80   15.50
  -4  -9   3   14.00   14.50
   3   9  -3  302.27   25.10
   3   9  -3  304.77   27.90
  -3  -9   3  293.27   26.60
   2   9  -3  508.75   29.60
   2   9  -3  529.45   30.10
  -2  -9   3  532.65   30.40
  -2  -9   3  514.05   21.70
   1   9  -3    2.00    9.70
   1   9  -3   26.20   11.60
  -1  -9   3   15.20    7.10
  -1  -9   3   17.40   10.80
   0   9  -3  573.34   31.30
   0   9  -3  658.33   29.40
   0   9  -3  626.64   31.40
   0  -9   3  641.04   27.80
   0  -9   3  663.53   32.40
  -1   9  -3  235.58   21.60
  -1   9  -3  266.47   17.20
   1  -9   3  245.08   18.60
   1  -9   3  217.68   19.40
  -2   9  -3  132.29   17.00
  -2   9  -3  124.19   11.90
   2  -9   3  141.99   18.50
   2  -9   3  113.59   16.80
  -3   9  -3  411.66   25.70
   3  -9   3  385.96   25.30
   3  -9   3  361.16   45.50
   3  -9   3  356.46   24.80
   4  -9   3   81.59   13.80
   4  -9   3   69.29   15.00
   5   8  -3  317.37   30.40
   5   8  -3  344.77   25.20
  -5  -8   3  390.46   35.10
   4   8  -3   26.50   11.40
   4   8  -3   -9.80   12.20
  -4  -8   3   25.70   12.20
   3   8  -3  388.56   24.00
   3   8  -3  347.97   39.60
   3   8  -3  404.96   25.70
  -3  -8   3  377.86   25.40
  -3  -8   3  397.56   19.00
   2   8  -3  605.84   29.50
  -2  -8   3  611.84   30.80
  -2  -8   3  623.44   23.40
   1   8  -3    0.60    7.50
  -1  -8   3  -12.90    7.00
  -1  -8   3    5.20    5.20
   0   8  -3 1149.69   44.60
   0   8  -3 1164.08   42.20
   0  -8   3 1189.98   41.80
   0  -8   3 1161.18   45.20
  -1   8  -3  226.48   17.60
  -1   8  -3  187.58   17.70
   1  -8   3  243.88   16.10
   1  -8   3  170.88   15.50
   1  -8   3  279.97   32.00
  -2   8  -3   41.10    9.30
   2  -8   3   49.90   16.80
   2  -8   3   40.40    9.20
   2  -8   3   39.80    9.40
  -3   8  -3  401.26   23.10
   3  -8   3  391.46   23.80
   3  -8   3  376.96   32.30
   3  -8   3  404.56   22.50
  -4   8  -3  101.89   12.40
  -4   8  -3   96.99   12.00
   4  -8   3  121.19   17.60
   4  -8   3   87.79   12.30
  -5   8  -3   76.59   10.20
   5  -8   3   54.59   14.70
   5  -8   3   99.19   12.80
  -6   8  -3   98.79   12.40
   6  -8   3   92.99   13.20
   6   7  -3   33.30   12.10
   5   7  -3  303.97   25.70
   5   7  -3  299.07   20.50
   5   7  -3  241.58   22.50
  -5  -7   3  270.57   23.00
  -5  -7   3  264.27   21.20
   4   7  -3   23.70    9.90
   4   7  -3   17.60   10.00
   4   7  -3   11.80   18.50
   4   7  -3   14.90    8.20
  -4  -7   3    9.40    9.20
  -4  -7   3  -12.70   12.40
   3   7  -3  176.68   15.20
   3   7  -3  173.08   21.20
  -3  -7   3  185.48   17.10
  -3  -7   3  145.09   16.30
  -3  -7   3  144.89    8.50
   2   7  -3  224.78   24.90
   2   7  -3  310.37   18.10
  -2  -7   3  257.57   18.80
  -2  -7   3  274.77   12.70
  -2  -7   3  262.87   22.70
   1   7  -3   65.29   15.80
   1   7  -3   54.69    9.30
  -1  -7   3   47.60    7.30
  -1  -7   3   46.50   12.30
  -1  -7   3   66.49   11.80
   0   7  -3  169.78   15.60
   0   7  -3  174.68   23.70
   0  -7   3  179.78   21.20
   0  -7   3  154.58   19.50
   0  -7   3  180.58   14.50
   0  -7   3  196.88   12.30
  -1   7  -3  761.92   29.00
  -1   7  -3  763.92   31.60
   1  -7   3  763.32   31.50
   1  -7   3  748.23   33.60
   1  -7   3  782.22   30.50
  -2   7  -3   -0.60    5.80
  -2   7  -3   -6.20    6.70
   2  -7   3    4.70    5.80
   2  -7   3   -0.30   12.00
  -3   7  -3  407.56   18.20
  -3   7  -3  453.55   21.70
  -3   7  -3  416.76   17.10
   3  -7   3  418.76   21.60
   3  -7   3  416.76   23.10
   3  -7   3  420.96   27.20
  -4   7  -3  145.69   16.20
  -4   7  -3  126.09   11.40
  -4   7  -3  117.49   14.20
  -4   7  -3  112.19    8.80
   4  -7   3   95.79   13.10
   4  -7   3  118.09   16.30
   4  -7   3  153.08   16.20
  -5   7  -3   -3.00    7.70
  -5   7  -3   -3.50    7.40
   5  -7   3   -4.70    6.70
   5  -7   3   12.90    9.80
  -6   7  -3   84.89   11.80
   6  -7   3   69.99   10.50
   6  -7   3  100.79   17.10
   6   6  -3   53.59   10.00
   6   6  -3   70.79   11.10
   6   6  -3   33.90   13.50
  -6  -6   3   71.79   13.10
  -6  -6   3   46.10   12.80
   5   6  -3   10.90    7.10
   5   6  -3   -5.20    9.00
   5   6  -3  -15.90    6.60
  -5  -6   3    4.80    8.80
  -5  -6   3    8.30    9.70
  -5  -6   3    1.40   12.00
  -5  -6   3   20.10    9.00
   4   6  -3   35.70    8.00
   4   6  -3   30.80   15.40
   4   6  -3   40.30    7.60
  -4  -6   3   37.00    9.90
  -4  -6   3   25.80    8.60
  -4  -6   3   31.60   11.50
   3   6  -3  288.17   16.60
   3   6  -3  277.47   25.00
   3   6  -3  276.57   16.50
  -3  -6   3  303.97   14.20
  -3  -6   3  264.47   11.40
  -3  -6   3  246.38   17.90
  -3  -6   3  286.97   17.80
  -3  -6   3  284.97   21.00
   2   6  -3  283.27   16.10
   2   6  -3  248.98   23.20
  -2  -6   3  282.17   17.20
  -2  -6   3  299.17   19.90
  -2  -6   3  292.27   12.00
  -2  -6   3  287.17   20.90
  -2  -6   3  282.07   17.10
  -2  -6   3  295.27   12.10
   1   6  -3  428.16   20.30
   1   6  -3  405.66   25.30
  -1  -6   3  428.46   20.40
  -1  -6   3  410.76   23.50
  -1  -6   3  420.16   17.00
  -1  -6   3  398.86   22.20
   0   6  -3  435.76   25.60
   0   6  -3  449.66   21.20
   0  -6   3  492.75   23.40
   0  -6   3  435.46   22.50
   0  -6   3  456.65   19.20
   0  -6   3  430.66   20.80
  -1   6  -3   30.60    6.80
  -1   6  -3   31.00   11.30
  -1   6  -3   32.00    6.70
   1  -6   3   14.90    5.90
   1  -6   3   32.30    9.40
   1  -6   3   29.80    6.10
   1  -6   3   20.70    8.60
  -2   6  -3  228.38   14.60
  -2   6  -3  223.78   10.30
  -2   6  -3  211.18   20.00
  -2   6  -3  234.98   13.70
   2  -6   3  235.88   14.90
   2  -6   3  211.68   18.40
   2  -6   3  255.27   19.10
   2  -6   3  230.88   15.00
  -3   6  -3  633.94   23.30
  -3   6  -3  662.93   23.10
  -3   6  -3  608.24   30.60
  -3   6  -3  704.33   27.20
   3  -6   3  662.23   38.40
   3  -6   3  652.43   29.80
   3  -6   3  620.24   30.60
  -4   6  -3   54.29    8.40
  -4   6  -3   50.89    6.30
  -4   6  -3   50.19    7.40
  -4   6  -3   49.30    6.70
   4  -6   3   38.70    9.20
   4  -6   3   49.60    7.60
   4  -6   3   41.00   11.10
  -5   6  -3  329.37   18.40
  -5   6  -3  355.66   18.70
   5  -6   3  343.27   18.20
   5  -6   3  336.27   22.70
   5  -6   3  360.36   22.40
  -6   6  -3  216.58   17.40
   6  -6   3  219.38   14.90
   6  -6   3  250.97   22.50
  -7   6  -3    9.40   10.70
   7  -6   3   15.50    6.20
   7  -6   3    4.30   13.30
   7   5  -3   -9.30   13.60
   7   5  -3   15.40    7.90
  -7  -5   3   22.80   18.90
  -7  -5   3   11.70   11.80
   6   5  -3   61.19    9.00
   6   5  -3   74.99   14.60
   6   5  -3   66.29    9.40
  -6  -5   3   76.79   13.90
  -6  -5   3   79.59   12.20
   5   5  -3  187.08   13.60
   5   5  -3  177.08   13.60
   5   5  -3  200.28   24.00
  -5  -5   3  206.08   15.90
  -5  -5   3  174.78   20.70
  -5  -5   3  164.28   17.40
  -5  -5   3  155.88   15.10
   4   5  -3    6.90    5.30
   4   5  -3   -3.80    4.80
  -4  -5   3    0.80    7.40
  -4  -5   3    1.70    7.30
  -4  -5   3  -14.20    5.60
  -4  -5   3   11.40    9.10
   3   5  -3  872.01   35.80
   3   5  -3  873.21   32.30
   3   5  -3  884.81   31.90
  -3  -5   3  884.61   33.80
  -3  -5   3  887.31   33.30
  -3  -5   3  887.31   29.40
  -3  -5   3  889.31   35.00
  -3  -5   3  810.62   32.80
   2   5  -3  162.28   17.40
   2   5  -3  159.58   11.00
   2   5  -3  190.28   11.60
  -2  -5   3  167.98   15.50
  -2  -5   3  174.98    8.90
  -2  -5   3  167.18   14.40
  -2  -5   3  169.68   13.20
  -2  -5   3  168.08    7.80
  -2  -5   3  176.58   12.50
   1   5  -3  169.08   11.30
   1   5  -3  182.28   11.50
   1   5  -3  189.18   15.40
  -1  -5   3  165.98   13.90
  -1  -5   3  174.28   12.40
  -1  -5   3  197.58    9.60
  -1  -5   3  188.98   14.30
  -1  -5   3  179.88   11.70
   0   5  -3 2412.96   72.99
   0   5  -3 2274.87   74.19
   0  -5   3 2203.78   72.99
   0  -5   3 2378.96   73.29
   0  -5   3 2308.47   72.69
   0  -5   3 2270.17   71.39
  -1   5  -3  629.64   24.60
  -1   5  -3  614.04   26.60
   1  -5   3  675.03   26.60
   1  -5   3  629.24   25.40
   1  -5   3  617.04   24.60
   1  -5   3  625.34   25.00
  -2   5  -3 1127.59   40.60
  -2   5  -3 1086.89   34.10
  -2   5  -3 1156.08   38.60
  -2   5  -3 1091.59   36.00
   2  -5   3 1097.49   38.40
   2  -5   3 1067.39   39.30
   2  -5   3 1145.19   39.20
   2  -5   3 1082.99   39.50
  -3   5  -3 1695.23   57.59
  -3   5  -3 1773.92   55.99
  -3   5  -3 1663.73   52.69
  -3   5  -3 1608.14   54.19
   3  -5   3 1738.93   56.49
   3  -5   3 1757.12   57.69
   3  -5   3 1714.63   55.79
   3  -5   3 1815.92   58.99
  -4   5  -3    3.00    4.60
  -4   5  -3    5.90    6.00
  -4   5  -3    0.30    4.80
  -4   5  -3    6.70    9.20
  -4   5  -3    9.10    5.10
   4  -5   3    0.70    7.70
   4  -5   3   -1.10    9.20
   4  -5   3    1.80    4.50
  -5   5  -3  930.61   29.70
  -5   5  -3  922.61   32.50
  -5   5  -3  868.31   33.10
  -5   5  -3  782.22   35.40
   5  -5   3  845.62   33.30
   5  -5   3  949.90   38.20
   5  -5   3  897.41   31.50
  -6   5  -3  411.86   18.40
  -6   5  -3  375.86   22.00
   6  -5   3  392.26   24.80
   6  -5   3  389.36   20.70
   6  -5   3  406.66   17.40
   6  -5   3  391.66   14.50
  -7   5  -3   49.90   12.60
   7  -5   3   51.19   13.60
   7  -5   3   57.49    6.80
  -8   5  -3   46.80   11.00
   8  -5   3   44.30   16.70
   7   4  -3    9.60    7.50
   7   4  -3   22.10    6.10
   7   4  -3   22.80   13.00
  -7  -4   3    1.00   12.10
  -7  -4   3   16.60   11.30
   6   4  -3  317.37   16.10
   6   4  -3  266.37   23.70
   6   4  -3  311.27   22.80
   6   4  -3  321.47   17.40
  -6  -4   3  319.67   17.60
  -6  -4   3  313.27   24.80
  -6  -4   3  307.17   22.10
  -6  -4   3  312.77   19.90
   5   4  -3  308.37   21.00
   5   4  -3  306.97   16.20
   5   4  -3  296.57   16.00
  -5  -4   3  315.87   21.20
  -5  -4   3  323.37   17.70
  -5  -4   3  325.57   17.40
  -5  -4   3  313.77   20.60
   4   4  -3   62.79   10.90
   4   4  -3   88.89    9.20
   4   4  -3   67.79    8.70
  -4  -4   3   65.29    8.40
  -4  -4   3   59.99    9.60
  -4  -4   3   62.49    9.90
  -4  -4   3   67.89    8.20
  -4  -4   3   50.09    9.10
   3   4  -3 1167.88   38.60
   3   4  -3 1122.89   38.20
   3   4  -3 1091.09   41.20
  -3  -4   3 1117.29   39.50
  -3  -4   3 1177.08   40.30
  -3  -4   3 1149.98   36.50
  -3  -4   3 1116.09   39.30
  -3  -4   3 1146.69   39.70
   2   4  -3  966.10   32.70
  -2  -4   3  950.40   33.90
  -2  -4   3 1012.90   29.50
  -2  -4   3  920.11   33.40
  -2  -4   3  960.90   33.30
  -2  -4   3  865.61   33.70
   1   4  -3  180.78   10.40
   1   4  -3  212.28   14.60
   1   4  -3  178.78   10.50
  -1  -4   3  201.88   11.60
  -1  -4   3  175.98   12.30
  -1  -4   3  182.58   11.30
  -1  -4   3  191.88   12.70
  -1  -4   3  178.78    8.80
   0   4  -3 3786.22  118.79
   0   4  -3 4045.40  120.29
   0   4  -3 4068.39  119.29
   0  -4   3 4050.89  119.49
   0  -4   3 4051.69  117.09
   0  -4   3 4036.00  119.79
   0  -4   3 3937.51  118.99
   0  -4   3 3875.51  118.19
  -1   4  -3  568.44   17.00
  -1   4  -3  565.14   20.20
  -1   4  -3  567.64   21.50
  -1   4  -3  492.45   22.20
   1  -4   3  523.95   22.30
   1  -4   3  558.34   22.20
   1  -4   3  554.64   21.80
   1  -4   3  547.25   21.40
  -2   4  -3 1747.93   54.39
  -2   4  -3 1780.52   53.29
  -2   4  -3 1782.82   56.19
  -2   4  -3 1725.03   57.29
   2  -4   3 1810.72   56.69
   2  -4   3 1808.82   57.09
   2  -4   3 1765.52   56.39
   2  -4   3 1769.72   57.99
  -3   4  -3 1228.48   43.40
  -3   4  -3 1264.77   40.20
  -3   4  -3 1297.77   42.10
  -3   4  -3 1357.26   41.30
   3  -4   3 1272.67   42.40
   3  -4   3 1224.18   44.70
   3  -4   3 1316.47   39.40
   3  -4   3 1229.18   43.40
   3  -4   3 1311.67   42.20
  -4   4  -3    3.60    7.30
  -4   4  -3   12.60    4.50
  -4   4  -3   14.90    5.10
  -4   4  -3   10.00    5.80
   4  -4   3   11.80    6.40
   4  -4   3    9.40    3.70
   4  -4   3   14.30    3.20
   4  -4   3   16.20    5.90
   4  -4   3    8.90    7.40
  -5   4  -3   83.49   10.10
  -5   4  -3   76.19   10.50
  -5   4  -3   72.69    7.60
  -5   4  -3   80.99   10.60
   5  -4   3   71.59    6.70
   5  -4   3   69.69   13.00
   5  -4   3   77.09    7.60
   5  -4   3   70.19    8.70
   5  -4   3   48.90   10.70
  -6   4  -3   76.19   11.60
  -6   4  -3   66.59   11.60
   6  -4   3   74.49   11.90
   6  -4   3   68.59    7.20
   6  -4   3   73.89    8.10
   6  -4   3   72.99    8.10
   6  -4   3   59.59   13.20
  -7   4  -3    1.10    9.60
  -7   4  -3    2.80   11.20
   7  -4   3   -1.40    9.90
   7  -4   3    6.90    5.20
  -8   4  -3    4.20    8.20
   8  -4   3   16.90   14.20
   8   3  -3  -18.60   14.30
  -8  -3   3   14.70   13.20
   7   3  -3   27.70    8.20
   7   3  -3   32.60   12.20
  -7  -3   3   13.10   11.70
  -7  -3   3   30.70   11.30
   6   3  -3   -1.90    8.10
   6   3  -3   15.00    4.60
   6   3  -3   12.50    8.20
   6   3  -3   18.30    6.50
  -6  -3   3   45.10    8.90
  -6  -3   3    2.90   10.80
  -6  -3   3   13.60    9.90
  -6  -3   3   10.00    9.30
  -6  -3   3    9.40    8.60
   5   3  -3   18.70    5.80
   5   3  -3   12.00    8.10
   5   3  -3    9.80    4.30
  -5  -3   3    5.70    6.80
  -5  -3   3    1.20    8.20
  -5  -3   3    3.00    7.60
  -5  -3   3    3.90    4.60
  -5  -3   3    8.20    8.10
   4   3  -3  260.47   16.10
   4   3  -3  231.68   12.10
   4   3  -3  282.27   13.50
  -4  -3   3  251.57   16.20
  -4  -3   3  256.87   15.50
  -4  -3   3  229.28   15.60
  -4  -3   3  265.27   13.50
  -4  -3   3  236.48   13.80
   3   3  -3  160.48    9.30
   3   3  -3  158.38   13.00
   3   3  -3  140.99    9.60
  -3  -3   3  154.68   12.00
  -3  -3   3  143.69    9.70
  -3  -3   3  145.59   12.10
  -3  -3   3  155.48    9.50
  -3  -3   3  152.78   11.70
   2   3  -3   19.00    3.60
   2   3  -3   22.10    6.50
   2   3  -3   21.10    4.00
  -2  -3   3   22.00    2.60
  -2  -3   3   17.20    5.10
  -2  -3   3   22.50    5.50
  -2  -3   3   14.80    5.30
  -2  -3   3   20.30    3.60
  -2  -3   3   24.00    4.70
   1   3  -3  143.69    8.50
   1   3  -3  161.08   11.70
   1   3  -3  146.69    8.70
  -1  -3   3  145.89    7.20
  -1  -3   3  157.58   10.50
  -1  -3   3  150.08   10.40
  -1  -3   3  145.89    8.90
  -1  -3   3  159.28    9.50
   0   3  -3  130.49    8.30
   0   3  -3  136.89    8.30
   0   3  -3  136.99    8.50
   0   3  -3  128.49   10.10
   0  -3   3  151.68    9.00
   0  -3   3  130.19    9.70
   0  -3   3  138.59    8.00
   0  -3   3  134.99    8.40
  -1   3  -3   90.49    4.70
  -1   3  -3   89.09    7.10
  -1   3  -3   74.39    9.30
  -1   3  -3   83.79    6.40
  -1   3  -3   79.69    6.40
   1  -3   3   84.69    7.00
   1  -3   3   95.69    7.60
   1  -3   3   86.19    6.20
   1  -3   3   81.59    7.80
   1  -3   3   80.49    8.30
  -2   3  -3  143.59    8.50
  -2   3  -3  136.19    7.90
  -2   3  -3  138.49    8.50
  -2   3  -3  139.19   10.80
   2  -3   3  143.49    9.70
   2  -3   3  131.09   10.00
   2  -3   3  141.29    8.50
   2  -3   3  137.69    6.90
   2  -3   3  146.19   10.30
  -3   3  -3  167.28   11.70
  -3   3  -3  162.18   10.40
  -3   3  -3  156.08    9.50
  -3   3  -3  184.98    9.50
   3  -3   3  159.58   11.70
   3  -3   3  165.98   10.60
   3  -3   3  162.38    9.10
   3  -3   3  169.98   11.80
   3  -3   3  181.98    8.20
  -4   3  -3  403.06   15.80
  -4   3  -3  412.16   18.20
  -4   3  -3  367.36   17.80
  -4   3  -3  368.26   16.20
   4  -3   3  377.76   18.30
   4  -3   3  385.46   19.60
   4  -3   3  350.26   14.90
   4  -3   3  399.26   14.70
   4  -3   3  367.96   16.30
  -5   3  -3  213.28   13.80
  -5   3  -3  232.28   15.00
  -5   3  -3  215.58   12.90
  -5   3  -3  201.48   15.20
   5  -3   3  197.78   15.90
   5  -3   3  205.78   12.20
   5  -3   3  228.68   10.40
   5  -3   3  221.38   11.20
   5  -3   3  193.18   15.60
  -6   3  -3  216.48   16.50
  -6   3  -3  234.58   17.60
  -6   3  -3  207.48   15.50
  -6   3  -3  206.58   13.60
   6  -3   3  230.68   18.00
   6  -3   3  229.08   12.50
   6  -3   3  194.68   18.90
   6  -3   3  214.98    9.20
  -7   3  -3   59.39    9.20
  -7   3  -3   44.70   11.80
  -7   3  -3   46.70   10.00
   7  -3   3   42.70   11.50
   7  -3   3   45.60   13.10
   7  -3   3   59.29    7.70
  -8   3  -3   68.09   11.40
   8  -3   3   60.19    9.00
   8  -3   3   41.80   13.80
   8  -3   3   60.09   11.40
   8   2  -3   -1.20    8.50
   8   2  -3    5.90   14.10
  -8  -2   3   -5.40   13.10
   7   2  -3   12.20    7.30
   7   2  -3   18.90   10.20
  -7  -2   3    4.10    9.50
  -7  -2   3   17.60   11.10
  -7  -2   3    7.80    9.50
   6   2  -3   50.39    5.10
   6   2  -3   61.39    8.00
   6   2  -3   69.29    6.30
   6   2  -3   52.39    9.60
  -6  -2   3   68.19    8.80
  -6  -2   3   75.79   12.60
  -6  -2   3   70.69    9.50
  -6  -2   3   39.70    9.40
  -6  -2   3   68.59   11.50
   5   2  -3   69.69    6.30
   5   2  -3   76.09    9.10
   5   2  -3   58.29    7.50
  -5  -2   3   58.39    7.80
  -5  -2   3   58.19    8.50
  -5  -2   3   63.19    8.50
  -5  -2   3   49.70    9.90
  -5  -2   3   61.49   10.20
   4   2  -3    4.00    2.80
   4   2  -3    5.30    3.60
   4   2  -3    5.50    5.50
  -4  -2   3   -0.60    5.10
  -4  -2   3   17.20    6.40
  -4  -2   3    3.40    5.10
  -4  -2   3    1.50    6.00
  -4  -2   3   -0.40    6.40
   3   2  -3   29.20    4.50
   3   2  -3   16.70    5.50
   3   2  -3   22.00    3.60
  -3  -2   3   18.20    5.50
  -3  -2   3   36.90    4.90
  -3  -2   3   22.80    5.10
  -3  -2   3   27.70    4.80
   2   2  -3    0.60    2.30
   2   2  -3    2.00    2.60
   2   2  -3    1.60    4.20
  -2  -2   3    0.60    2.50
  -2  -2   3   -3.80    4.20
  -2  -2   3   -1.00    2.60
  -2  -2   3   -1.20    3.60
  -2  -2   3   -2.60    3.90
   1   2  -3  198.58    9.40
   1   2  -3  228.88   11.60
   1   2  -3  199.48    9.60
  -1  -2   3  216.78   10.40
  -1  -2   3  205.88    6.90
  -1  -2   3  187.18   10.40
  -1  -2   3  210.98   10.30
  -1  -2   3  214.38   10.40
   0   2  -3   80.59    6.30
   0   2  -3   75.59    5.50
   0   2  -3   84.09    5.80
   0   2  -3   73.99    7.80
   0  -2   3   80.59    6.00
   0  -2   3   70.09    7.00
   0  -2   3   91.49    6.50
   0  -2   3   78.99    7.00
  -1   2  -3   70.19    5.60
  -1   2  -3   79.49    5.00
  -1   2  -3   77.39    6.30
  -1   2  -3   86.39    7.80
  -1   2  -3   75.49    5.40
   1  -2   3   70.19    4.80
   1  -2   3   87.09    6.30
   1  -2   3   81.39    7.00
   1  -2   3   78.09    6.60
   1  -2   3   76.29    5.10
  -2   2  -3  200.28    9.60
  -2   2  -3  188.78    9.20
  -2   2  -3  193.18    9.50
  -2   2  -3  188.08   10.90
   2  -2   3  196.28   10.10
   2  -2   3  194.28   10.40
   2  -2   3  200.48    8.50
   2  -2   3  200.38    9.50
  -3   2  -3  313.77   14.50
  -3   2  -3  314.47   14.50
  -3   2  -3  305.77   13.10
  -3   2  -3  321.27   13.60
   3  -2   3  345.87   12.70
   3  -2   3  315.37   13.60
   3  -2   3  331.07   13.10
  -4   2  -3   13.10    5.40
  -4   2  -3    5.90    4.80
  -4   2  -3    9.80    4.40
  -4   2  -3    9.30    5.70
   4  -2   3    9.30    2.90
   4  -2   3   12.00    4.30
   4  -2   3   10.20    5.20
   4  -2   3   10.10    3.10
  -5   2  -3  213.48   13.30
  -5   2  -3  201.18   15.30
  -5   2  -3  203.18   14.40
  -5   2  -3  222.38   12.00
   5  -2   3  213.68   14.20
   5  -2   3  226.58   15.50
   5  -2   3  225.48   10.50
   5  -2   3  208.38   11.40
   5  -2   3  218.88    9.40
  -6   2  -3  176.18   15.50
  -6   2  -3  160.58   16.30
  -6   2  -3  182.68   13.50
   6  -2   3  178.98   16.10
   6  -2   3  187.88   12.20
   6  -2   3  164.18   15.30
  -7   2  -3    5.20    5.70
  -7   2  -3    2.30    9.60
  -7   2  -3   -2.20    6.30
   7  -2   3    0.90    9.90
   7  -2   3   -9.70    7.60
   7  -2   3   15.00    6.10
   8  -2   3  129.49   15.00
   8  -2   3  129.49   16.10
   8  -2   3  128.99   15.00
  -9   2  -3    3.00    8.40
   9  -2   3  -12.80   13.30
   9  -2   3    1.50   10.50
   8   1  -3  177.98   23.40
   8   1  -3  129.29   17.80
  -8  -1   3   94.99   16.00
  -8  -1   3  154.88   15.50
   7   1  -3   69.89   11.90
   7   1  -3   57.19    5.90
   7   1  -3   56.19    8.80
  -7  -1   3   72.19   12.20
  -7  -1   3   52.59    7.70
  -7  -1   3   54.69   12.60
   6   1  -3    5.50    2.60
   6   1  -3    3.20    5.20
   6   1  -3   -0.10    7.70
  -6  -1   3   -1.70    5.70
  -6  -1   3    3.50    9.00
  -6  -1   3    2.40   10.00
  -6  -1   3   -1.70    7.30
  -6  -1   3    3.10    6.40
   5   1  -3   27.20    4.50
   5   1  -3   27.80    3.10
   5   1  -3   32.20    5.80
  -5  -1   3   23.70    7.50
  -5  -1   3   32.60    8.80
  -5  -1   3   35.50    6.40
  -5  -1   3   34.60    7.60
  -5  -1   3   19.20    6.00
   4   1  -3  201.18   11.30
   4   1  -3  195.08    8.60
   4   1  -3  191.08   10.60
   4   1  -3  187.28    7.50
  -4  -1   3  186.08   11.70
  -4  -1   3  219.88   11.50
  -4  -1   3  210.88   14.00
  -4  -1   3  178.18   13.40
  -4  -1   3  193.88   11.10
   3   1  -3  265.87   12.30
   3   1  -3  260.17   10.40
   3   1  -3  263.17   12.00
   3   1  -3  252.47    8.70
  -3  -1   3  231.98   11.40
  -3  -1   3  248.68   13.50
  -3  -1   3  275.77   12.40
  -3  -1   3  258.67   12.00
  -3  -1   3  252.27   13.80
   2   1  -3    4.30    3.70
   2   1  -3    6.70    2.10
   2   1  -3    1.40    2.30
  -2  -1   3    8.40    3.60
  -2  -1   3    4.10    4.30
  -2  -1   3    7.90    2.70
  -2  -1   3    7.20    1.50
  -2  -1   3    4.90    3.60
   1   1  -3   53.19    4.50
   1   1  -3   52.59    4.50
   1   1  -3   53.99    6.30
  -1  -1   3   53.99    5.70
  -1  -1   3   59.79    4.00
  -1  -1   3   47.30    4.70
  -1  -1   3   56.69    3.30
  -1  -1   3   60.49    6.20
  -1  -1   3   57.89    5.50
   0   1  -3  747.53   24.70
   0   1  -3  703.93   24.50
   0   1  -3  722.03   25.30
   0   1  -3  807.82   24.90
   0  -1   3  748.43   23.90
   0  -1   3  780.72   24.50
   0  -1   3  772.92   25.10
   0  -1   3  795.52   25.10
   0  -1   3  736.23   25.10
  -1   1  -3    6.20    2.00
  -1   1  -3    3.20    3.10
  -1   1  -3    8.10    2.90
  -1   1  -3    7.00    2.00
   1  -1   3    6.60    2.80
   1  -1   3    3.80    2.80
   1  -1   3    5.20    1.80
   1  -1   3    3.90    2.20
  -2   1  -3 1149.19   36.00
  -2   1  -3 1136.79   35.10
  -2   1  -3 1123.09   35.40
  -2   1  -3 1118.09   35.30
  -2   1  -3 1029.30   35.30
   2  -1   3 1134.79   35.00
   2  -1   3 1122.79   35.40
   2  -1   3 1138.19   35.10
   2  -1   3 1130.59   35.40
  -3   1  -3 1247.88   39.90
  -3   1  -3 1156.58   38.90
  -3   1  -3 1234.78   38.40
  -3   1  -3 1241.48   39.00
   3  -1   3 1228.98   38.60
   3  -1   3 1237.98   38.20
   3  -1   3 1214.18   38.30
   3  -1   3 1209.18   38.10
  -4   1  -3   62.59    8.70
  -4   1  -3   42.70    5.20
  -4   1  -3   50.59    6.70
  -4   1  -3   55.59    7.60
   4  -1   3   50.79    4.80
   4  -1   3   49.60    6.00
   4  -1   3   46.30    6.00
   4  -1   3   53.19    5.90
  -5   1  -3  294.37   13.40
  -5   1  -3  310.67   17.20
  -5   1  -3  313.07   18.10
  -5   1  -3  308.17   14.30
   5  -1   3  304.17   14.70
   5  -1   3  309.27   11.80
   5  -1   3  331.57   11.40
  -6   1  -3  115.19   12.40
  -6   1  -3  112.19   15.00
  -6   1  -3  112.39    9.50
  -6   1  -3  121.89   10.30
   6  -1   3  116.39   12.40
   6  -1   3  142.59   11.40
  -7   1  -3   94.29    9.80
  -7   1  -3   99.59    9.60
  -7   1  -3   90.89   14.00
   7  -1   3   88.79    9.00
   7  -1   3   84.19   11.10
   7  -1   3  102.39   12.10
  -8   1  -3   43.70   13.70
   8  -1   3   38.00    8.10
   8  -1   3   31.50   11.40
   8  -1   3   37.80   17.60
   8  -1   3   34.90   11.20
  -9   1  -3   21.40   10.40
   9  -1   3   16.70   11.80
   9  -1   3   20.30   13.50
   8   0  -3   -6.50    8.60
   8   0  -3    4.30   11.10
  -8   0   3   -1.00   12.40
  -8   0   3    8.20    7.60
   7   0  -3  136.19    9.60
   7   0  -3  120.69   14.40
   7   0  -3   97.59   12.90
  -7   0   3  130.39   15.80
  -7   0   3  115.19   14.70
   6   0  -3   67.39    8.70
   6   0  -3   49.40    8.80
   6   0  -3   79.09    7.10
  -6   0   3   72.69   10.60
  -6   0   3   68.29    8.60
  -6   0   3   64.29   10.10
  -6   0   3   65.59    8.30
   5   0  -3   79.89    6.00
   5   0  -3   68.79    9.10
  -5   0   3   71.19    9.10
  -5   0   3   61.79    9.10
  -5   0   3   74.39   10.50
  -5   0   3   65.29    8.20
  -5   0   3   62.19    8.00
   4   0  -3  475.45   16.10
   4   0  -3  465.15   19.10
   4   0  -3  477.55   16.20
  -4   0   3  468.75   17.40
  -4   0   3  471.15   21.30
  -4   0   3  480.25   20.60
  -4   0   3  482.15   19.40
   3   0  -3  700.23   22.50
   3   0  -3  705.43   24.20
   3   0  -3  668.63   21.30
   3   0  -3  660.23   21.50
  -3   0   3  690.93   22.80
  -3   0   3  667.53   24.30
  -3   0   3  657.23   23.30
  -3   0   3  652.13   23.00
  -3   0   3  689.63   25.20
  -3   0   3  661.33   22.30
   2   0  -3    7.60    2.00
   2   0  -3    5.10    2.70
   2   0  -3    6.50    3.30
  -2   0   3    2.50    3.90
  -2   0   3    5.20    3.10
  -2   0   3    6.10    2.10
  -2   0   3    7.60    3.10
  -2   0   3    3.10    3.70
  -2   0   3    7.80    2.70
   1   0  -3 3984.60  111.99
   1   0  -3 3927.01  112.59
   1   0  -3 4017.50  112.49
   1   0  -3 3820.02  111.99
  -1   0   3 3462.75  112.59
  -1   0   3 3642.44  110.79
  -1   0   3 3839.72  110.59
  -1   0   3 3825.32  112.59
  -1   0   3 4069.19  112.09
  -1   0   3 3743.03  111.99
   0   0  -3  651.53   22.50
   0   0  -3  676.93   22.00
   0   0  -3  672.83   22.10
   0   0  -3  687.53   22.10
   0   0  -3  691.93   22.10
   0   0   3  675.33   22.50
   0   0   3  653.33   22.20
   0   0   3  643.54   21.70
   0   0   3  677.03   21.90
   0   0   3  700.23   21.50
   0   0   3  680.73   22.10
  -1   0  -3   93.39    6.40
  -1   0  -3  101.09    5.50
  -1   0  -3  103.59    5.20
  -1   0  -3   96.19    6.20
   1   0   3  109.29    5.70
   1   0   3   99.79    6.30
   1   0   3  104.89    5.60
  -2   0  -3 6454.45  186.48
  -2   0  -3 6540.55  185.18
  -2   0  -3 6491.45  186.28
  -2   0  -3 6119.29  185.88
   2   0   3 6425.66  185.08
   2   0   3 6368.06  186.28
   2   0   3 6351.86  186.18
   2   0   3 6654.43  185.98
  -3   0  -3  154.08   10.00
  -3   0  -3  149.39    8.70
  -3   0  -3  156.28    8.20
  -3   0  -3  163.08    9.80
   3   0   3  161.08    7.40
   3   0   3  141.59    8.30
   3   0   3  144.89    7.70
   3   0   3  158.38    7.70
  -4   0  -3  628.54   24.20
  -4   0  -3  622.04   21.80
  -4   0  -3  612.94   24.90
  -4   0  -3  594.44   21.30
   4   0   3  608.44   20.80
   4   0   3  674.63   23.30
   4   0   3  616.34   20.70
   4   0   3  621.04   20.70
  -5   0  -3  195.78   15.20
  -5   0  -3  154.08   14.30
  -5   0  -3  178.78   10.70
  -5   0  -3  179.78   10.20
   5   0   3  181.78    8.30
   5   0   3  187.58    7.80
   5   0   3  178.88   10.10
   5   0   3  169.08   11.40
  -6   0  -3   75.49    9.20
  -6   0  -3   83.39    8.70
  -6   0  -3   81.09   11.60
  -6   0  -3   71.59   10.90
   6   0   3   87.89    8.20
   6   0   3   75.49    9.90
   6   0   3   61.09    8.40
  -7   0  -3   29.40   11.10
  -7   0  -3   20.70    5.70
  -7   0  -3   20.40    5.60
   7   0   3   12.20    7.30
   7   0   3   11.20    5.20
   7   0   3   25.60    7.80
  -8   0  -3   40.10   13.90
   8   0   3   48.10   11.80
   8   0   3   61.29   11.50
   8   0   3   35.20    6.90
  -9   0  -3   18.40   10.20
   9   0   3   39.70   13.20
   9   0   3   34.90   13.30
   8  -1  -3  -11.50   10.90
   8  -1  -3   10.90   10.10
   8  -1  -3   -4.90    9.00
  -8   1   3   13.90    7.50
  -8   1   3   -9.90   12.10
   7  -1  -3   56.69   10.70
   7  -1  -3   70.39    9.70
   7  -1  -3   49.50   10.10
  -7   1   3   41.10   12.00
  -7   1   3   75.19   12.30
   6  -1  -3   23.50    5.20
   6  -1  -3   16.10    6.40
   6  -1  -3    8.80    6.50
  -6   1   3   23.70    9.70
  -6   1   3   20.50    3.90
  -6   1   3   19.50    7.90
   5  -1  -3    0.30    4.20
   5  -1  -3   -1.00    3.30
  -5   1   3   -1.00    6.10
  -5   1   3    3.40    7.10
  -5   1   3    7.80    4.40
  -5   1   3    0.70    4.00
   4  -1  -3    3.00    2.30
   4  -1  -3    1.90    2.50
   4  -1  -3   -7.80    3.00
  -4   1   3    1.90    3.50
  -4   1   3    2.30    5.30
  -4   1   3    2.80    4.70
  -4   1   3    0.90    5.90
   3  -1  -3    3.30    2.80
   3  -1  -3    2.50    1.80
   3  -1  -3    2.50    3.00
   3  -1  -3    2.50    2.00
  -3   1   3   -4.00    4.40
  -3   1   3    2.40    4.80
  -3   1   3   -2.00    3.50
  -3   1   3    1.90    3.30
  -3   1   3    3.70    3.20
  -3   1   3    0.00    3.60
   2  -1  -3  100.69    5.30
   2  -1  -3   88.89    6.60
   2  -1  -3   97.39    6.20
   2  -1  -3   92.89    5.10
   2  -1  -3   95.59    6.40
  -2   1   3   93.19    6.20
  -2   1   3   93.19    6.30
  -2   1   3   93.79    7.40
  -2   1   3   97.49    6.80
  -2   1   3   84.09    5.80
  -2   1   3   93.19    8.20
   1  -1  -3   49.70    5.00
   1  -1  -3   46.10    4.20
   1  -1  -3   50.69    4.90
   1  -1  -3   53.69    3.70
   1  -1  -3   52.09    4.10
  -1   1   3   53.89    5.50
  -1   1   3   55.19    4.80
  -1   1   3   55.09    3.80
  -1   1   3   48.20    4.60
  -1   1   3   51.59    4.10
  -1   1   3   53.49    5.80
  -1   1   3   47.60    3.70
   0  -1  -3  278.17   11.00
   0  -1  -3  259.37   10.10
   0  -1  -3  265.87   10.20
   0  -1  -3  262.07   10.30
   0  -1  -3  265.27   10.50
   0   1   3  261.57   10.20
   0   1   3  258.57   10.70
   0   1   3  266.77   10.10
   0   1   3  278.17   10.70
   0   1   3  268.87   10.00
  -1  -1  -3    4.30    2.40
  -1  -1  -3    7.30    2.80
  -1  -1  -3    3.90    1.90
  -1  -1  -3    5.70    2.10
   1   1   3    2.70    2.20
   1   1   3    4.60    2.00
   1   1   3    2.30    2.00
   1   1   3    3.30    1.70
   1   1   3    9.20    2.90
   1   1   3    2.90    1.90
  -2  -1  -3 4966.00  142.59
  -2  -1  -3 4973.50  141.89
  -2  -1  -3 4849.02  139.89
   2   1   3 4665.63  142.49
   2   1   3 4999.30  142.49
   2   1   3 4881.11  141.59
   2   1   3 4727.83  139.89
   2   1   3 4868.11  141.89
  -3  -1  -3   23.80    5.10
  -3  -1  -3   11.30    3.80
  -3  -1  -3   18.30    3.70
  -3  -1  -3   24.30    5.30
   3   1   3   19.10    3.60
   3   1   3   18.90    3.30
   3   1   3   16.60    2.20
   3   1   3   15.60    3.40
  -4  -1  -3 2425.46   73.79
  -4  -1  -3 2499.45   76.79
  -4  -1  -3 2478.95   73.89
  -4  -1  -3 2345.37   76.79
   4   1   3 2505.55   73.29
   4   1   3 2503.75   73.59
   4   1   3 2526.15   76.29
   4   1   3 2431.96   71.69
  -5  -1  -3    7.90    6.70
  -5  -1  -3   -1.40    7.40
  -5  -1  -3   10.20    4.50
  -5  -1  -3    7.90    4.60
   5   1   3    3.50    3.40
   5   1   3    6.60    3.10
   5   1   3   17.80    4.90
   5   1   3    4.40    2.70
  -6  -1  -3  254.67   19.70
  -6  -1  -3  249.97   13.20
  -6  -1  -3  243.48   18.80
   6   1   3  257.47   10.60
   6   1   3  259.07   11.50
   6   1   3  239.38   15.90
  -7  -1  -3   77.39   10.00
  -7  -1  -3   68.29    7.40
  -7  -1  -3   60.79   12.50
   7   1   3   73.79    7.30
   7   1   3   61.59   11.80
   7   1   3   71.19    6.60
  -8  -1  -3    3.80   12.40
   8   1   3   15.50    9.80
   8   1   3   -4.40    4.10
  -9  -1  -3   81.39   14.30
   9   1   3   41.70   13.60
   9   1   3   66.79   15.10
   8  -2  -3   48.70   11.80
   8  -2  -3   52.39   15.00
   8  -2  -3   46.10   12.10
  -8   2   3   41.30    9.40
  -8   2   3   44.30   13.80
   7  -2  -3   24.80    6.70
   7  -2  -3   29.80    8.30
   7  -2  -3   31.90    9.60
  -7   2   3    9.60    9.10
  -7   2   3   23.60   11.50
   6  -2  -3    7.30    4.80
   6  -2  -3   -5.10    6.40
   6  -2  -3    0.60    5.50
  -6   2   3    5.10    7.20
  -6   2   3    0.00    8.40
   5  -2  -3  119.69    8.80
   5  -2  -3  123.09   11.20
  -5   2   3  106.69    9.20
  -5   2   3  116.19    8.20
  -5   2   3  108.89   11.30
  -5   2   3  120.89   11.50
   4  -2  -3  355.86   16.30
   4  -2  -3  333.97   11.60
   4  -2  -3  323.67   14.10
   4  -2  -3  343.87   11.00
  -4   2   3  338.67   13.50
  -4   2   3  319.67   15.40
  -4   2   3  315.97   17.30
   3  -2  -3   81.39    6.30
   3  -2  -3   84.49    7.40
   3  -2  -3   98.19    6.50
   3  -2  -3   87.79    7.00
   3  -2  -3   84.59    5.30
  -3   2   3   82.99    7.20
  -3   2   3   93.19    9.10
  -3   2   3   90.39    6.90
  -3   2   3   94.69    8.90
   2  -2  -3 1299.07   38.70
   2  -2  -3 1218.28   38.20
   2  -2  -3 1294.57   40.20
   2  -2  -3 1236.68   37.90
   2  -2  -3 1285.67   38.20
  -2   2   3 1213.18   38.40
  -2   2   3 1250.57   38.70
  -2   2   3 1216.88   39.20
  -2   2   3 1242.58   39.10
  -2   2   3 1253.67   38.20
  -2   2   3 1063.19   42.00
   1  -2  -3 2153.18   62.29
   1  -2  -3 2040.00   61.89
   1  -2  -3 2070.39   62.09
   1  -2  -3 2075.69   61.49
   1  -2  -3 2139.69   62.99
  -1   2   3 2023.80   62.99
  -1   2   3 2074.09   62.19
  -1   2   3 2029.10   61.29
  -1   2   3 2019.50   62.09
  -1   2   3 2152.18   61.99
  -1   2   3 1995.20   62.69
   0  -2  -3 1143.69   35.10
   0  -2  -3 1112.59   35.20
   0  -2  -3 1168.18   35.50
   0  -2  -3 1109.49   35.60
   0  -2  -3 1133.79   35.20
   0   2   3 1144.09   35.70
   0   2   3 1114.99   34.80
   0   2   3 1161.08   34.60
   0   2   3 1048.40   34.90
   0   2   3 1127.89   35.60
   0   2   3 1162.88   35.40
  -1  -2  -3   68.29    5.10
  -1  -2  -3   79.39    6.50
  -1  -2  -3   73.59    5.30
  -1  -2  -3   70.69    5.90
   1   2   3   72.19    5.80
   1   2   3   86.59    5.40
   1   2   3   69.29    5.30
   1   2   3   70.09    4.80
   1   2   3   70.89    5.40
  -2  -2  -3  883.31   29.50
  -2  -2  -3  772.42   28.20
  -2  -2  -3  871.61   28.30
  -2  -2  -3  898.61   29.10
  -2  -2  -3  887.61   25.90
   2   2   3  847.52   28.30
   2   2   3  877.11   29.00
   2   2   3  871.21   28.60
   2   2   3  863.51   28.40
   2   2   3  874.11   25.90
  -3  -2  -3  393.46   16.40
  -3  -2  -3  438.86   15.70
  -3  -2  -3  392.56   17.90
   3   2   3  398.76   15.70
   3   2   3  407.56   16.90
   3   2   3  410.16   16.80
   3   2   3  421.66   15.50
  -4  -2  -3  109.39    8.00
  -4  -2  -3   92.19    8.40
  -4  -2  -3   90.89   10.20
  -4  -2  -3   84.29   10.70
   4   2   3   77.69    7.80
   4   2   3   94.99    9.80
   4   2   3   87.09    8.20
   4   2   3   84.39    6.50
  -5  -2  -3    0.60    6.70
  -5  -2  -3    4.50    5.00
  -5  -2  -3    1.30    4.60
  -5  -2  -3   -2.70    7.90
   5   2   3    3.80    3.10
   5   2   3   -0.80    4.10
   5   2   3   -1.00    6.50
   5   2   3    4.90    4.60
  -6  -2  -3   41.10    7.00
  -6  -2  -3   33.60    6.90
  -6  -2  -3   32.70   10.00
   6   2   3   42.00    9.90
   6   2   3   17.50    6.80
   6   2   3   40.60    5.50
   6   2   3   39.10    4.70
  -7  -2  -3   -7.20    6.80
  -7  -2  -3    9.40   11.00
   7   2   3    8.80   11.40
   7   2   3    0.70    7.80
  -8  -2  -3    6.00    7.90
  -8  -2  -3   15.70   12.40
   8   2   3   -3.40   14.30
   8   2   3    2.30    9.50
  -9  -2  -3    3.70    9.30
   9   2   3   15.60   14.10
   9   2   3   -5.30   11.10
   8  -3  -3   75.49   11.40
   8  -3  -3   54.09   13.10
  -8   3   3   53.39    9.90
  -8   3   3   72.29   15.50
   7  -3  -3   40.20    8.70
   7  -3  -3   45.20   10.80
   7  -3  -3   37.90   10.10
   7  -3  -3   48.70   12.00
  -7   3   3   48.90   10.60
  -7   3   3   53.69   12.60
   6  -3  -3   31.70    6.60
   6  -3  -3   52.49    9.40
   6  -3  -3   38.40    8.40
   6  -3  -3   41.40    6.90
  -6   3   3   17.30    9.90
  -6   3   3   29.90    8.40
  -6   3   3   42.80    6.60
  -6   3   3   35.30    5.50
   5  -3  -3  363.06   15.90
   5  -3  -3  376.46   16.80
   5  -3  -3  336.27   17.80
   5  -3  -3  373.06   19.40
  -5   3   3  359.06   19.40
  -5   3   3  370.26   15.30
  -5   3   3  385.06   23.50
  -5   3   3  356.66   15.70
  -5   3   3  377.86   17.60
   4  -3  -3  163.88    7.70
   4  -3  -3  169.68   11.70
   4  -3  -3  176.58   10.10
   4  -3  -3  161.58    8.40
   4  -3  -3  165.48    9.90
  -4   3   3  162.58   10.50
  -4   3   3  160.18   12.70
  -4   3   3  169.38   10.30
  -4   3   3  165.68   15.30
  -4   3   3  166.88   10.20
   3  -3  -3  608.04   21.80
   3  -3  -3  590.64   20.00
   3  -3  -3  581.04   22.90
   3  -3  -3  584.44   20.20
   3  -3  -3  606.44   20.50
  -3   3   3  609.04   21.50
  -3   3   3  595.74   22.50
  -3   3   3  592.04   23.90
  -3   3   3  586.24   21.40
  -3   3   3  546.55   20.90
   2  -3  -3   87.29    5.80
   2  -3  -3   84.19    7.10
   2  -3  -3   78.09    5.90
   2  -3  -3   87.59    6.30
   2  -3  -3   73.59    7.00
  -2   3   3   82.69    7.50
  -2   3   3   61.69    7.10
  -2   3   3  100.59    6.50
  -2   3   3   92.59    8.60
  -2   3   3   92.89    8.00
   1  -3  -3  153.68    7.50
   1  -3  -3  146.79    8.40
   1  -3  -3  147.99    8.00
   1  -3  -3  155.68    7.80
   1  -3  -3  159.18    9.10
  -1   3   3  162.38    9.10
  -1   3   3  161.08    6.80
  -1   3   3  156.88    8.30
  -1   3   3  146.89    8.40
  -1   3   3  150.08    8.90
   0  -3  -3   14.60    3.40
   0  -3  -3   12.80    2.60
   0  -3  -3   12.30    2.80
   0  -3  -3   12.40    2.50
   0  -3  -3   16.70    3.80
   0   3   3   10.00    3.60
   0   3   3   12.60    2.30
   0   3   3   11.10    3.30
   0   3   3   11.10    2.90
  -1  -3  -3   59.99    6.50
  -1  -3  -3   56.89    5.10
  -1  -3  -3   63.89    5.60
  -1  -3  -3   61.19    4.40
  -1  -3  -3   63.29    7.00
   1   3   3   63.19    6.90
   1   3   3   50.59    5.10
   1   3   3   63.09    5.90
   1   3   3   59.89    5.30
  -2  -3  -3  714.83   22.00
  -2  -3  -3  623.84   25.40
  -2  -3  -3  740.83   24.60
  -2  -3  -3  700.03   24.60
   2   3   3  736.53   25.00
   2   3   3  704.53   24.60
   2   3   3  736.63   25.20
   2   3   3  690.13   24.10
  -3  -3  -3   25.60    3.90
  -3  -3  -3   25.20    6.00
  -3  -3  -3   26.60    4.50
  -3  -3  -3   24.20    5.10
   3   3   3   25.40    4.60
   3   3   3   27.70    4.20
   3   3   3   17.90    4.80
   3   3   3   23.80    4.80
  -4  -3  -3  476.35   22.60
  -4  -3  -3  485.45   21.80
  -4  -3  -3  479.45   19.20
  -4  -3  -3  492.15   18.60
   4   3   3  473.55   19.10
   4   3   3  477.45   18.30
   4   3   3  485.15   20.90
   4   3   3  424.26   18.80
  -5  -3  -3  165.48   16.30
  -5  -3  -3  153.78   12.20
  -5  -3  -3  160.88   10.10
  -5  -3  -3  136.39   15.10
   5   3   3  169.38   13.00
   5   3   3  180.58   10.10
   5   3   3  183.48   13.60
   5   3   3  173.38   12.10
  -6  -3  -3    2.40    7.10
  -6  -3  -3    0.70    9.30
  -6  -3  -3   20.20    6.40
   6   3   3   -4.20    7.50
   6   3   3    3.50    4.20
   6   3   3    3.60    5.80
   6   3   3    2.90    6.60
  -7  -3  -3    8.50    8.60
  -7  -3  -3   13.70    8.30
  -7  -3  -3    4.50   11.70
   7   3   3    8.50    4.00
   7   3   3   13.50    8.90
   7   3   3    8.60   10.40
   7   3   3   25.20    9.70
   8   3   3   17.10   11.50
   8  -4  -3   19.50   13.70
   8  -4  -3    0.00   10.30
  -8   4   3   -0.10    7.00
  -8   4   3   23.40   15.20
   7  -4  -3  148.49   19.20
   7  -4  -3  145.69   12.40
   7  -4  -3  156.38   15.80
  -7   4   3  128.19   12.90
  -7   4   3  146.69   16.70
   6  -4  -3   83.39    9.70
   6  -4  -3   72.89    8.60
   6  -4  -3   64.49    9.30
   6  -4  -3   97.89   11.90
  -6   4   3   78.09   10.40
  -6   4   3   69.49    8.50
  -6   4   3   77.39    8.40
  -6   4   3   81.69   12.70
   5  -4  -3   46.80    4.40
   5  -4  -3   50.59    7.60
   5  -4  -3   35.10   10.30
   5  -4  -3   48.30    5.00
   5  -4  -3   42.70    6.20
   5  -4  -3   51.39    6.50
  -5   4   3   48.90    7.20
  -5   4   3   61.79    8.70
  -5   4   3   39.60   12.90
  -5   4   3   39.90    9.40
  -5   4   3   42.20    7.20
   4  -4  -3   67.59    8.10
   4  -4  -3   78.19    6.50
   4  -4  -3   64.89    6.90
   4  -4  -3   63.89    7.90
   4  -4  -3   88.49   10.40
  -4   4   3   68.39    7.60
  -4   4   3   86.09   10.00
  -4   4   3   67.29    8.80
  -4   4   3   73.09   11.80
  -4   4   3   71.19    9.20
   3  -4  -3  125.69    7.70
   3  -4  -3  127.89   10.20
   3  -4  -3  124.09    7.00
   3  -4  -3  119.99    9.40
   3  -4  -3  123.99    8.70
  -3   4   3  123.29   10.30
  -3   4   3  121.89   13.30
  -3   4   3  115.89    8.50
  -3   4   3  125.29    8.70
  -3   4   3  148.19   10.70
   2  -4  -3    1.50    3.20
   2  -4  -3    0.60    4.20
   2  -4  -3    0.70    2.60
   2  -4  -3    4.80    2.70
   2  -4  -3    0.20    2.60
  -2   4   3    4.70    4.60
  -2   4   3    5.30    3.00
  -2   4   3    5.30    3.50
  -2   4   3   -1.10    4.20
  -2   4   3    1.30    5.30
   1  -4  -3 1198.28   39.40
   1  -4  -3 1183.68   37.50
   1  -4  -3 1256.07   39.60
   1  -4  -3 1225.78   39.30
   1  -4  -3 1198.88   40.00
  -1   4   3 1204.88   39.50
  -1   4   3 1230.18   38.50
  -1   4   3 1222.08   37.20
  -1   4   3 1221.38   40.20
  -1   4   3 1239.08   39.90
   0  -4  -3  288.57   12.50
   0  -4  -3  267.87   11.90
   0  -4  -3  280.27   12.60
   0  -4  -3  272.17   13.20
   0   4   3  294.77   12.90
   0   4   3  265.27   13.00
   0   4   3  295.27   13.90
   0   4   3  293.97   11.50
  -1  -4  -3   28.60    4.20
  -1  -4  -3   26.50    4.10
  -1  -4  -3   25.70    5.20
  -1  -4  -3   27.60    5.80
   1   4   3   25.70    4.70
   1   4   3   30.60    4.70
   1   4   3   29.10    4.30
  -2  -4  -3 1107.09   33.60
  -2  -4  -3 1108.69   36.60
  -2  -4  -3 1106.49   36.40
  -2  -4  -3 1101.69   35.80
  -2  -4  -3 1089.89   37.20
   2   4   3 1129.39   36.90
   2   4   3 1079.69   36.30
   2   4   3  931.11   36.10
   2   4   3 1114.39   36.70
  -3  -4  -3   25.10    4.90
  -3  -4  -3   31.90    7.80
  -3  -4  -3   24.90    2.80
  -3  -4  -3   26.10    2.70
  -3  -4  -3   25.30    6.10
  -3  -4  -3   23.20    4.50
   3   4   3   38.10    6.90
   3   4   3   21.20    5.10
   3   4   3   24.40    4.90
   3   4   3   29.70    5.10
  -4  -4  -3   85.99    8.50
  -4  -4  -3   85.99   10.80
  -4  -4  -3  103.19   12.10
   4   4   3   87.09    9.40
   4   4   3   83.09    9.80
   4   4   3   98.69    8.20
   4   4   3   86.69   10.90
  -5  -4  -3    6.70    4.60
  -5  -4  -3   14.40    7.50
  -5  -4  -3   11.60    8.20
   5   4   3   11.70    7.20
   5   4   3   13.40    4.60
   5   4   3    8.20    6.30
   5   4   3    5.10    6.20
  -6  -4  -3   -0.60    8.50
  -6  -4  -3    3.50    4.90
  -6  -4  -3   -5.50    9.50
   6   4   3    3.40    7.70
   6   4   3    2.60    7.50
   6   4   3    1.20    6.80
   6   4   3   -5.50    4.80
  -7  -4  -3   12.50   12.30
  -7  -4  -3  -12.20    5.30
   7   4   3    4.90    9.80
   7   4   3    4.90    8.20
   7   4   3    4.90    8.80
   7   4   3    3.90    5.60
  -8  -4  -3   16.30   10.50
   8   4   3   13.00    4.80
   8   4   3    1.60   12.50
   7  -5  -3   74.89   12.10
   7  -5  -3   87.09   14.70
  -7   5   3   88.09   11.40
  -7   5   3   77.39   15.50
   6  -5  -3   14.30    5.30
   6  -5  -3    7.40    8.40
   6  -5  -3    2.10    7.10
  -6   5   3   10.40   10.80
  -6   5   3   15.70    9.00
  -6   5   3    9.20    8.00
   5  -5  -3  166.78    9.50
   5  -5  -3  181.88   16.10
   5  -5  -3  171.28   11.50
   5  -5  -3  182.78   13.70
  -5   5   3  168.58   15.20
  -5   5   3  184.68   13.40
  -5   5   3  178.88   15.30
  -5   5   3  153.38   15.90
   4  -5  -3  140.09   11.50
   4  -5  -3  125.29    8.80
   4  -5  -3  121.19   12.50
   4  -5  -3  134.69   11.60
  -4   5   3  139.79   10.10
  -4   5   3  140.59   19.70
  -4   5   3  116.89   12.70
  -4   5   3  118.99    9.60
  -4   5   3  116.19   12.60
   3  -5  -3  163.48    9.80
   3  -5  -3  164.98   12.50
   3  -5  -3  160.38   10.80
   3  -5  -3  154.28   12.10
  -3   5   3  163.48   17.00
  -3   5   3  157.38   11.80
  -3   5   3  158.78    9.70
  -3   5   3  167.28   10.60
  -3   5   3  167.08   13.60
   2  -5  -3   46.70    5.40
   2  -5  -3   53.89    6.50
   2  -5  -3   53.39    6.70
   2  -5  -3   48.90    6.70
   2  -5  -3   71.39    8.10
  -2   5   3   47.70    8.30
  -2   5   3   51.89    7.60
  -2   5   3   60.89    7.10
  -2   5   3   60.19    4.60
  -2   5   3   65.59    9.70
   1  -5  -3  331.87   13.40
   1  -5  -3  343.27   16.60
   1  -5  -3  324.57   14.60
   1  -5  -3  337.27   15.00
  -1   5   3  361.86   12.50
  -1   5   3  348.47   14.90
  -1   5   3  344.87   15.50
  -1   5   3  314.87   16.20
  -1   5   3  308.37   16.70
   0  -5  -3   -6.00    2.60
   0  -5  -3    2.00    5.40
   0  -5  -3   -0.40    4.00
   0  -5  -3    2.80    2.90
   0   5   3   -0.40    2.50
   0   5   3    1.90    4.50
   0   5   3   -1.20    5.30
   0   5   3    4.30    3.30
  -1  -5  -3  251.87   12.60
  -1  -5  -3  245.88   11.70
  -1  -5  -3  238.58   13.80
  -1  -5  -3  240.58   13.80
   1   5   3  250.97   12.20
   1   5   3  253.77   12.70
   1   5   3  248.38   13.20
   1   5   3  222.28   13.90
  -2  -5  -3   83.59    8.30
  -2  -5  -3   83.09   11.30
  -2  -5  -3   69.89    7.10
  -2  -5  -3   89.89   11.00
   2   5   3   87.09   11.60
   2   5   3   68.79    7.90
   2   5   3   78.69    8.70
   2   5   3   78.09    7.90
  -3  -5  -3   34.20    5.70
  -3  -5  -3   27.60    8.70
  -3  -5  -3   26.10    6.90
  -3  -5  -3   29.80    4.00
  -3  -5  -3   31.90    5.90
   3   5   3   39.10    6.50
   3   5   3   24.90    5.50
   3   5   3   34.00    8.10
   3   5   3   34.80    6.10
  -4  -5  -3  228.18   15.90
  -4  -5  -3  234.68   13.70
  -4  -5  -3  215.38   13.50
   4   5   3  247.38   17.00
   4   5   3  213.38   15.10
   4   5   3  232.58   13.40
   4   5   3  226.78   13.20
  -5  -5  -3    4.20    5.30
  -5  -5  -3    6.50    9.00
  -5  -5  -3    1.70    8.90
   5   5   3   -3.50    8.70
   5   5   3   12.20    6.90
   5   5   3    5.10    5.10
   5   5   3    2.60    6.20
  -6  -5  -3  251.97   15.80
  -6  -5  -3  226.28   20.40
   6   5   3  240.88   18.90
   6   5   3  239.98   15.00
   6   5   3  220.88   20.00
   6   5   3  224.08   16.30
  -7  -5  -3   17.60   13.20
   7   5   3   22.10    7.40
   7   5   3    8.00   11.30
   7   5   3   24.60   10.50
  -8  -5  -3   18.50   10.30
   8   5   3   20.30    7.90
   8   5   3   24.40   14.50
   7  -6  -3  -13.30   10.60
   7  -6  -3    2.30   12.80
  -7   6   3    8.40   15.10
  -7   6   3   -0.30    5.40
   6  -6  -3    6.80   10.20
   6  -6  -3    1.50    4.00
   6  -6  -3    4.00    8.10
  -6   6   3   12.80    7.80
  -6   6   3  -11.20   11.30
   5  -6  -3   41.00    8.60
   5  -6  -3   44.90    8.40
   5  -6  -3   43.60    9.40
   5  -6  -3   45.90    6.50
  -5   6   3   43.20    7.20
  -5   6   3   38.90    8.50
  -5   6   3   48.70   11.00
   4  -6  -3   89.79   10.00
   4  -6  -3   84.39   11.60
   4  -6  -3   90.29   11.50
   4  -6  -3  113.29    9.70
  -4   6   3   98.39   10.20
  -4   6   3   80.99   11.20
  -4   6   3   96.59   10.60
  -4   6   3   91.99   10.30
   3  -6  -3   21.50    6.70
   3  -6  -3   13.20    5.70
   3  -6  -3   28.90    5.80
   3  -6  -3   20.90    7.90
  -3   6   3   17.10    5.90
  -3   6   3   18.80    7.10
  -3   6   3   33.60   11.20
  -3   6   3   23.40    8.90
  -3   6   3   26.40    5.80
   2  -6  -3  351.26   16.30
   2  -6  -3  332.87   18.80
   2  -6  -3  328.47   16.10
  -2   6   3  300.17   11.20
  -2   6   3  320.67   18.40
  -2   6   3  314.77   16.20
  -2   6   3  336.57   16.50
  -2   6   3  305.97   19.60
   1  -6  -3    2.70    3.30
   1  -6  -3    1.50    3.50
   1  -6  -3    1.30    4.10
   1  -6  -3   -2.60    6.80
  -1   6   3    1.60    4.00
  -1   6   3   -2.90    2.20
  -1   6   3    3.60    7.10
  -1   6   3    2.40    6.70
   0  -6  -3    8.20    3.70
   0  -6  -3   14.80    5.60
   0  -6  -3   24.80    8.10
   0  -6  -3   13.10    4.80
   0   6   3   26.80    4.40
   0   6   3   21.50    7.00
   0   6   3   20.70    5.70
   0   6   3    7.20    6.60
  -1  -6  -3   31.20    7.00
  -1  -6  -3   28.50    7.90
  -1  -6  -3   23.90    4.80
  -1  -6  -3   20.80    5.10
   1   6   3   23.00    8.20
   1   6   3   25.30    6.90
   1   6   3   37.10    5.90
   1   6   3   31.30    5.90
  -2  -6  -3    7.60    6.80
  -2  -6  -3   -1.40    4.50
  -2  -6  -3    4.00    3.70
   2   6   3    1.90    4.30
   2   6   3    6.80    4.90
   2   6   3    0.40    7.10
   2   6   3   -1.80    5.50
  -3  -6  -3    3.20    4.20
  -3  -6  -3    6.90    4.50
  -3  -6  -3    3.20    5.00
  -3  -6  -3   -3.40    7.10
   3   6   3    6.20    5.50
   3   6   3    2.90    5.00
   3   6   3   -0.50    8.60
   3   6   3   -1.40    5.70
  -4  -6  -3   11.80    4.20
  -4  -6  -3   12.70    9.80
  -4  -6  -3   13.70    5.80
  -4  -6  -3   12.20    5.70
   4   6   3   14.50   10.40
   4   6   3   13.30    6.80
  -5  -6  -3   42.80    8.00
  -5  -6  -3   44.70   11.50
   5   6   3   33.80   12.40
   5   6   3   33.10    7.50
   5   6   3   46.00   10.30
   5   6   3   37.50    8.40
  -6  -6  -3   44.50   13.20
  -6  -6  -3   50.59    9.70
   6   6   3   54.39    9.20
   6   6   3   35.70   10.20
   6   6   3   50.59   10.20
   6   6   3   37.50   14.00
  -7  -6  -3   -6.90   13.10
   7   6   3    5.30   12.40
   7   6   3    6.20    8.10
   6  -7  -3   -8.40   12.00
   6  -7  -3    9.10   10.10
   6  -7  -3    7.70    6.20
  -6   7   3   -1.70    5.60
  -6   7   3   -5.80   12.50
   5  -7  -3   27.90   10.60
   5  -7  -3   46.00    7.70
   5  -7  -3   59.89   10.40
  -5   7   3   63.19    9.10
  -5   7   3   49.00   12.30
  -5   7   3   61.49    9.80
   4  -7  -3   46.10    9.10
   4  -7  -3   47.50   10.70
   4  -7  -3   39.00    7.50
   4  -7  -3   35.00    9.50
  -4   7   3   47.80    8.10
  -4   7   3   52.69   10.10
  -4   7   3   42.70    8.40
   3  -7  -3   14.60    6.00
   3  -7  -3   35.60   10.30
   3  -7  -3   26.60    6.70
  -3   7   3   23.00    7.10
  -3   7   3   17.70    7.90
   2  -7  -3   55.09    8.20
   2  -7  -3   54.09   10.70
  -2   7   3   35.80   11.00
  -2   7   3   45.10   13.10
  -2   7   3   72.19    8.90
  -2   7   3   46.40    7.80
  -2   7   3   53.39    4.90
   1  -7  -3  123.09   10.50
   1  -7  -3  107.99   10.30
   1  -7  -3  122.99   13.30
  -1   7   3  101.89   13.30
  -1   7   3  116.89    7.40
  -1   7   3   86.29   11.80
  -1   7   3  104.59   11.20
   0  -7  -3   10.40    9.30
   0  -7  -3    1.60    4.80
   0  -7  -3    1.40    4.10
   0   7   3    0.80    3.90
   0   7   3    1.20    5.10
   0   7   3   -4.30    8.10
   0   7   3    4.70    8.70
  -1  -7  -3  185.78   11.80
  -1  -7  -3  178.38   13.50
  -1  -7  -3  166.28   16.50
   1   7   3  174.48   11.80
   1   7   3  163.68   12.60
   1   7   3  178.08   17.10
   1   7   3  169.68   15.90
  -2  -7  -3  128.09   12.60
  -2  -7  -3  150.78   11.00
  -2  -7  -3  121.99   12.90
  -2  -7  -3  136.29   17.90
   2   7   3  114.59   14.00
   2   7   3  135.19   12.10
   2   7   3  130.89   12.80
   2   7   3  145.19   15.00
  -3  -7  -3    3.10    5.10
  -3  -7  -3    0.90    5.30
  -3  -7  -3    3.60    5.90
   3   7   3   -0.60   11.80
   3   7   3    2.80    5.60
   3   7   3   11.60    7.20
   3   7   3    3.30    7.70
  -4  -7  -3   67.59    7.40
  -4  -7  -3  100.69   11.30
  -4  -7  -3   70.39   10.30
   4   7   3   69.29   10.70
   4   7   3   69.09   11.00
   4   7   3   82.69   15.10
   4   7   3   78.39   10.20
  -5  -7  -3   -0.20   10.50
  -5  -7  -3    0.90    8.00
   5   7   3   13.50    8.70
   5   7   3    5.50    9.70
   5   7   3   -5.70   14.20
   5   7   3   13.40    7.40
  -6  -7  -3   22.60   13.40
  -6  -7  -3    6.30    9.40
   6   7   3    1.00    8.50
   6   7   3    9.00   11.50
   7   7   3   27.80   14.70
   7   7   3   10.70   10.20
   6  -8  -3   30.20    8.60
   6  -8  -3   23.80   19.90
   6  -8  -3    9.10   12.20
  -6   8   3   15.80   15.40
  -6   8   3   13.70    7.20
   5  -8  -3  151.48   19.00
   5  -8  -3   94.59   15.50
   5  -8  -3   99.39   11.10
  -5   8   3  107.39   15.50
  -5   8   3   76.89   17.90
   4  -8  -3  412.56   21.50
   4  -8  -3  423.76   26.50
   4  -8  -3  420.76   23.70
  -4   8   3  392.96   22.40
  -4   8   3  387.46   23.00
   3  -8  -3   79.49   11.90
   3  -8  -3   56.19    9.10
   3  -8  -3   62.09   13.60
  -3   8   3   59.19   10.40
  -3   8   3   66.59   10.00
   2  -8  -3  254.37   16.70
   2  -8  -3  246.28   15.50
  -2   8   3  237.78   16.00
  -2   8   3  263.77   17.20
   1  -8  -3  717.23   30.80
   1  -8  -3  769.62   35.10
   1  -8  -3  744.53   29.90
  -1   8   3  767.52   31.70
  -1   8   3  756.62   25.70
   0  -8  -3   29.60    8.00
   0  -8  -3   28.90    6.80
   0  -8  -3   26.80   11.40
   0   8   3   16.00    7.20
   0   8   3   21.70   11.70
   0   8   3   28.40    5.80
  -1  -8  -3  628.84   33.40
  -1  -8  -3  694.03   29.50
  -1  -8  -3  710.83   28.00
   1   8   3  695.13   32.00
   1   8   3  695.43   30.30
   1   8   3  749.23   27.90
   1   8   3  641.54   33.10
  -2  -8  -3  379.86   18.50
  -2  -8  -3  364.46   20.90
  -2  -8  -3  296.27   22.00
   2   8   3  336.57   19.70
   2   8   3  355.06   22.20
   2   8   3  353.26   20.70
   2   8   3  359.36   28.40
  -3  -8  -3   17.80    8.20
  -3  -8  -3    5.30    5.90
  -3  -8  -3    5.40   13.90
   3   8   3   19.10   10.70
   3   8   3    2.00    7.80
   3   8   3    5.70   14.80
   3   8   3   16.40    7.30
  -4  -8  -3  237.68   19.20
  -4  -8  -3  214.68   15.50
  -4  -8  -3  216.18   16.60
   4   8   3  232.18   20.90
   4   8   3  227.28   19.80
   4   8   3  228.48   29.20
   4   8   3  199.28   17.60
  -5  -8  -3  296.57   22.30
  -5  -8  -3  291.27   24.50
  -5  -8  -3  297.27   19.80
   5   8   3  321.07   22.30
   5   8   3  299.37   33.70
   5   8   3  303.67   23.40
   5   8   3  250.17   24.00
  -6  -8  -3   13.10   14.40
  -6  -8  -3   38.30   11.80
   6   8   3   35.60   11.70
   6   8   3    6.00   13.40
   5  -9  -3   17.90   20.60
   5  -9  -3    3.90   10.10
   5  -9  -3   18.70   13.20
  -5   9   3   21.20   12.40
   4  -9  -3  188.58   18.40
   4  -9  -3  168.48   18.70
   4  -9  -3  185.68   20.60
  -4   9   3  175.38   18.40
  -4   9   3  144.09   15.50
   3  -9  -3   24.90    9.80
   3  -9  -3   41.60   10.10
   3  -9  -3   43.20   27.10
  -3   9   3   36.20   10.60
  -3   9   3   35.40   10.20
   2  -9  -3   89.19   17.20
   2  -9  -3  112.19   15.20
   2  -9  -3  126.09   14.40
  -2   9   3  117.69   12.40
  -2   9   3  110.29   13.70
   1  -9  -3  283.07   18.10
   1  -9  -3  294.87   19.40
  -1   9   3  286.97   19.90
  -1   9   3  295.87   13.70
   0  -9  -3   63.49    9.40
   0  -9  -3   45.10    9.00
   0   9   3   47.30    7.20
   0   9   3   55.69   11.10
  -1  -9  -3    3.30   12.10
  -1  -9  -3   11.50    7.70
  -1  -9  -3   13.00    7.70
   1   9   3   32.00    7.90
   1   9   3    0.30    7.80
  -2  -9  -3  212.78   20.60
  -2  -9  -3  216.28   19.20
  -2  -9  -3  262.97   17.60
   2   9   3  190.58   17.10
  -3  -9  -3   27.80   10.80
  -3  -9  -3   33.60    8.90
  -3  -9  -3   13.10    9.90
   3   9   3   30.70   10.10
   3   9   3   24.70   16.50
   3   9   3   17.30    9.80
  -4  -9  -3  107.49   15.10
   4   9   3   66.79   13.20
   4   9   3   77.49   17.10
   4   9   3   69.99   13.20
  -5  -9  -3   26.30   14.80
  -5  -9  -3   39.20   14.00
  -5  -9  -3   24.90   10.00
   5   9   3   17.60   11.90
   5   9   3   28.70   14.70
   4 -10  -3   38.50   12.70
  -4  10   3   36.30   13.30
   3 -10  -3   36.40   12.10
   3 -10  -3   34.90   12.20
  -3  10   3   36.00   12.00
  -3  10   3   51.69   13.60
   2 -10  -3   24.50   10.50
   2 -10  -3   14.30   10.70
  -2  10   3   15.50   12.10
  -2  10   3   17.80   10.60
   1 -10  -3  116.69   15.40
   1 -10  -3  110.09   16.20
  -1  10   3   95.79   15.20
   0 -10  -3    7.60    8.30
   0 -10  -3    4.10   10.50
   0  10   3   17.90   11.50
   0  10   3    5.30    6.80
  -1 -10  -3   41.90   13.00
  -1 -10  -3   73.19   11.40
   1  10   3   49.20   10.10
   1  10   3   55.49   12.90
  -2 -10  -3  135.89   16.50
   2  10   3   97.99   15.80
   2  10   3  136.39   18.50
  -3 -10  -3   25.80   12.80
  -3 -10  -3   18.10    9.50
   3  10   3  -16.70   10.50
   3  10   3   -7.00   11.60
  -4 -10  -3   30.40   11.70
  -4 -10  -3   33.20   14.50
   4  10   3    0.30   11.80
   4  10   3   65.19   16.20
   2 -11  -3   62.29   21.20
  -2  11   3   98.99   15.30
  -2  11   3  126.29   18.00
   1 -11  -3   50.29   15.60
   1 -11  -3   90.49   14.70
  -1  11   3   78.09   15.70
   0 -11  -3    6.60   12.30
   0 -11  -3   24.20   12.30
   0  11   3   -1.50   14.30
  -1 -11  -3  232.48   22.40
  -1 -11  -3  233.58   24.20
   1  11   3  173.88   19.10
   1  11   3  187.18   26.10
  -2 -11  -3   51.59   13.40
  -2 -11  -3   74.49   17.70
   2  11   3   25.50   16.00
   2  11   3   83.49   14.50
   0  10  -4    0.70   13.60
   0  10  -4    5.80   11.40
   0 -10   4   22.30   10.20
   0 -10   4   10.90   13.10
  -1  10  -4  -16.40   11.70
   1 -10   4   -3.90   10.00
   1 -10   4  -15.70   13.80
  -2  10  -4    3.80   14.40
   2 -10   4   19.90   13.00
   3   9  -4  -16.40   13.10
   3   9  -4   -6.60   14.10
  -3  -9   4   -8.40   13.60
   2   9  -4  163.28   22.20
  -2  -9   4  106.59   17.60
   1   9  -4  133.69   17.50
  -1  -9   4  172.98   14.50
  -1  -9   4  175.88   21.90
   0   9  -4    7.70    9.60
   0  -9   4   15.90   11.00
   0  -9   4    5.40    7.60
  -1   9  -4  246.88   22.20
   1  -9   4  271.77   19.90
   1  -9   4  214.08   20.90
  -2   9  -4   81.49   14.40
   2  -9   4   82.09   13.00
   2  -9   4   72.29   13.70
  -3   9  -4    0.10   11.00
   3  -9   4   12.10   11.30
   3  -9   4   -2.50   10.30
  -4   9  -4  100.89   15.40
   4  -9   4   66.39   14.70
   4  -9   4   91.19   16.60
   4   8  -4  215.78   21.70
   4   8  -4  204.48   26.30
  -4  -8   4  215.28   23.20
   3   8  -4    5.90   10.40
  -3  -8   4   -5.60   11.00
   2   8  -4  322.97   21.30
  -2  -8   4  357.16   23.00
  -2  -8   4  345.77   15.80
   1   8  -4  176.98   17.80
  -1  -8   4  183.38   18.60
  -1  -8   4  178.08   12.40
   0   8  -4   -1.60    8.10
   0   8  -4    2.20   10.80
   0  -8   4   10.20    8.90
   0  -8   4    6.80    6.30
  -1   8  -4  226.08   19.40
  -1   8  -4  219.88   19.50
   1  -8   4  225.08   17.40
   1  -8   4  259.07   19.20
  -2   8  -4  204.48   19.10
  -2   8  -4  177.48   17.80
   2  -8   4  205.98   17.30
   2  -8   4  212.48   17.40
   2  -8   4  163.28   22.20
  -3   8  -4   26.80   10.70
   3  -8   4   17.90    9.40
   3  -8   4   27.40   19.00
   3  -8   4   19.60    9.60
  -4   8  -4   87.89    9.70
  -4   8  -4   98.89   13.70
   4  -8   4   76.29   12.40
   4  -8   4   98.79   15.20
  -5   8  -4  125.89   14.70
   5  -8   4  157.08   19.20
   5  -8   4  157.08   23.70
   5   7  -4  113.59   17.30
   5   7  -4  111.59   13.70
   5   7  -4   67.79   13.20
  -5  -7   4   83.19   15.80
  -5  -7   4   89.59   14.40
   4   7  -4  219.68   18.80
   4   7  -4  147.19   41.50
   4   7  -4  190.68   17.90
  -4  -7   4  130.99   15.80
  -4  -7   4  146.69   20.00
   3   7  -4   -5.00    7.00
   3   7  -4    3.50   19.40
   3   7  -4   -8.80    8.10
  -3  -7   4    6.80    9.20
  -3  -7   4    4.20    3.00
   2   7  -4  124.49   13.80
   2   7  -4  114.09   14.30
   2   7  -4   79.89   17.50
  -2  -7   4  118.59   16.00
  -2  -7   4  112.49    8.60
   1   7  -4   44.00   17.20
  -1  -7   4   82.39   11.70
  -1  -7   4   67.59    8.80
   0   7  -4   -6.70    8.70
   0   7  -4  -10.50    6.30
   0  -7   4    1.70    6.80
   0  -7   4   -2.00    4.60
  -1   7  -4   17.30    8.60
   1  -7   4   19.70   13.10
   1  -7   4   -3.40    6.10
   1  -7   4   17.40    6.70
  -2   7  -4  124.59   14.10
  -2   7  -4  105.39   11.10
   2  -7   4  106.09   13.00
   2  -7   4  104.39   13.50
   2  -7   4   79.89   15.80
  -3   7  -4   76.49   10.70
  -3   7  -4   69.59    9.60
  -3   7  -4   80.99    9.00
   3  -7   4   92.99   14.10
   3  -7   4   83.99   10.60
   3  -7   4   64.39   15.60
  -4   7  -4   32.40    7.40
  -4   7  -4   14.50    8.70
   4  -7   4   45.60   10.60
   4  -7   4   24.90   15.30
   4  -7   4   38.10    8.60
  -5   7  -4   41.50    9.80
  -5   7  -4   13.90    8.40
   5  -7   4   29.90   11.20
   5  -7   4   25.30    8.40
  -6   7  -4    7.50    9.30
   6  -7   4    0.90    8.50
   6  -7   4   -9.50   12.90
   6   6  -4   -4.20    9.60
   6   6  -4    0.30    9.50
   6   6  -4  -16.90   13.60
  -6  -6   4  -21.60    8.50
   5   6  -4  245.58   18.60
   5   6  -4  233.48   18.30
  -5  -6   4  236.28   20.00
  -5  -6   4  207.38   20.60
   4   6  -4   72.89   10.00
   4   6  -4   66.39   18.20
  -4  -6   4   47.70   10.90
  -4  -6   4   70.99   10.90
  -4  -6   4   58.99   14.10
   3   6  -4   69.29   16.70
   3   6  -4   82.39   10.30
   3   6  -4   82.69   10.20
  -3  -6   4   61.99   11.50
  -3  -6   4   84.59   14.00
  -3  -6   4   81.29   10.50
   2   6  -4  291.27   17.20
   2   6  -4  292.17   26.20
   2   6  -4  274.77   17.10
  -2  -6   4  289.77   17.70
  -2  -6   4  256.37   21.40
  -2  -6   4  299.57   18.50
  -2  -6   4  286.57   12.10
   1   6  -4  473.05   22.40
   1   6  -4  436.46   28.40
  -1  -6   4  486.95   18.80
  -1  -6   4  470.75   23.10
  -1  -6   4  478.45   26.30
  -1  -6   4  428.76   24.30
  -1  -6   4  479.45   21.80
   0   6  -4   67.89    9.70
   0   6  -4   47.90   13.50
   0  -6   4   69.79    9.40
   0  -6   4   69.59    8.40
   0  -6   4   60.99   12.70
   0  -6   4   61.39   10.50
  -1   6  -4 1807.12   65.89
  -1   6  -4 1950.60   61.09
  -1   6  -4 1986.70   63.69
   1  -6   4 1986.60   63.19
   1  -6   4 1851.01   64.29
   1  -6   4 2012.70   64.39
   1  -6   4 1812.42   63.69
  -2   6  -4   11.40   11.70
  -2   6  -4    7.10    6.90
  -2   6  -4    5.90    5.70
   2  -6   4   20.40   11.00
   2  -6   4    8.80    6.30
   2  -6   4   14.00   10.10
   2  -6   4   10.80    6.10
  -3   6  -4  556.54   24.30
  -3   6  -4  502.15   24.20
  -3   6  -4  520.25   21.90
   3  -6   4  562.64   24.40
   3  -6   4  570.34   26.60
   3  -6   4  562.54   28.20
  -4   6  -4  358.66   16.70
  -4   6  -4  337.07   19.10
  -4   6  -4  339.87   17.20
   4  -6   4  345.27   23.80
   4  -6   4  350.46   18.80
   4  -6   4  397.16   22.50
  -5   6  -4    7.30    7.70
  -5   6  -4    6.50    6.70
  -5   6  -4    2.70    7.20
   5  -6   4    8.80    9.40
   5  -6   4    5.10   11.80
   5  -6   4   10.50    6.70
  -6   6  -4   28.40   10.00
   6  -6   4   40.90   12.60
   6  -6   4   41.10    8.30
  -7   6  -4   22.10   11.60
   7  -6   4   21.90   14.70
   7  -6   4   20.60    7.90
   6   5  -4   16.30    8.40
   6   5  -4   16.60   13.10
   6   5  -4   -6.60    7.40
  -6  -5   4   32.70   12.50
  -6  -5   4    6.60   10.00
   5   5  -4   83.29   10.30
   5   5  -4  100.79   17.30
   5   5  -4  128.89   13.90
  -5  -5   4   94.99   11.60
  -5  -5   4   92.59   15.40
  -5  -5   4   92.69   10.70
  -5  -5   4   63.79   12.60
   4   5  -4   87.39   15.40
   4   5  -4   76.49    9.50
   4   5  -4   87.79   10.20
  -4  -5   4  106.39   12.80
  -4  -5   4   94.09   10.80
  -4  -5   4  111.49   14.10
  -4  -5   4   85.59   12.30
   3   5  -4   82.59    9.70
   3   5  -4   51.09    7.70
   3   5  -4   68.99   13.60
  -3  -5   4   62.69    8.40
  -3  -5   4   60.79   10.20
  -3  -5   4   79.19    7.80
  -3  -5   4   57.89   10.90
   2   5  -4 1498.85   49.20
   2   5  -4 1438.56   52.99
  -2  -5   4 1450.55   50.29
  -2  -5   4 1456.45   48.90
  -2  -5   4 1474.55   50.49
  -2  -5   4 1406.76   50.99
  -2  -5   4 1460.45   44.30
   1   5  -4  450.55   20.00
   1   5  -4  457.65   25.00
   1   5  -4  445.26   20.20
  -1  -5   4  415.66   22.10
  -1  -5   4  449.16   17.40
  -1  -5   4  439.86   22.70
  -1  -5   4  439.86   20.10
  -1  -5   4  470.35   21.30
   0   5  -4 1994.10   62.29
   0   5  -4 1923.11   60.69
   0   5  -4 1953.30   62.19
   0   5  -4 1876.31   63.69
   0  -5   4 1898.01   63.09
   0  -5   4 1878.21   62.49
   0  -5   4 1922.71   62.99
   0  -5   4 1899.01   59.69
   0  -5   4 1862.51   60.59
  -1   5  -4 1303.07   43.70
  -1   5  -4 1208.18   41.60
  -1   5  -4 1298.57   45.70
   1  -5   4 1251.67   44.20
   1  -5   4 1270.27   44.10
   1  -5   4 1306.37   45.00
   1  -5   4 1220.98   43.40
  -2   5  -4   11.00    6.10
  -2   5  -4    2.70    3.40
  -2   5  -4    8.50    9.30
  -2   5  -4    4.80    4.50
   2  -5   4    7.70    8.30
   2  -5   4    3.90    4.70
   2  -5   4    1.90    7.80
   2  -5   4    5.90    4.90
  -3   5  -4 1068.69   34.40
  -3   5  -4 1094.99   41.10
  -3   5  -4 1094.19   37.80
  -3   5  -4 1041.20   36.40
   3  -5   4 1049.59   37.50
   3  -5   4 1082.79   39.20
   3  -5   4  994.30   39.70
   3  -5   4 1000.30   38.90
  -4   5  -4  380.76   18.20
  -4   5  -4  411.26   18.40
  -4   5  -4  423.96   19.40
  -4   5  -4  428.76   24.60
   4  -5   4  376.66   23.70
   4  -5   4  392.36   22.60
   4  -5   4  419.06   19.10
   4  -5   4  400.76   22.40
  -5   5  -4   40.30    8.20
  -5   5  -4   31.90    8.90
  -5   5  -4   46.00    7.90
   5  -5   4   40.10    5.10
   5  -5   4   13.70    8.80
   5  -5   4   32.40    6.90
   5  -5   4   33.60   10.50
  -6   5  -4  213.18   15.10
  -6   5  -4  189.98   17.40
   6  -5   4  207.48   13.70
   6  -5   4  224.18   11.40
   6  -5   4  198.68   19.20
   6  -5   4  187.08   20.00
   7  -5   4  167.08   23.20
   7  -5   4  114.69   11.90
  -8   5  -4  -10.00    7.70
   8  -5   4   10.50   15.90
   7   4  -4  144.59   17.60
   7   4  -4  181.78   13.80
   7   4  -4  107.99   17.90
  -7  -4   4  180.48   19.50
  -7  -4   4  172.08   19.20
   6   4  -4   -1.80    6.00
   6   4  -4    7.70    7.60
  -6  -4   4   11.90   10.60
  -6  -4   4   -0.80    8.70
  -6  -4   4  -24.50   14.00
   5   4  -4  828.22   32.10
   5   4  -4  793.62   36.00
   5   4  -4  874.11   31.10
  -5  -4   4  817.82   32.50
  -5  -4   4  805.82   34.80
  -5  -4   4  871.01   31.30
  -5  -4   4  782.92   35.80
   4   4  -4 1076.29   40.80
   4   4  -4  966.70   39.00
   4   4  -4 1056.19   37.50
  -4  -4   4 1004.60   37.80
  -4  -4   4 1060.09   39.50
  -4  -4   4 1075.39   40.20
  -4  -4   4 1161.78   39.00
  -4  -4   4 1004.90   39.90
   3   4  -4  161.08   11.60
   3   4  -4  161.88   11.30
  -3  -4   4  182.18   15.90
  -3  -4   4  168.98   15.70
  -3  -4   4  164.88   13.90
  -3  -4   4  191.58   12.90
  -3  -4   4  168.78    9.70
   2   4  -4 2955.50   90.39
   2   4  -4 2910.91   90.29
   2   4  -4 3078.59   92.59
  -2  -4   4 2943.61   91.39
  -2  -4   4 3000.60   84.89
  -2  -4   4 2968.90   91.19
  -2  -4   4 2959.00   90.29
  -2  -4   4 2976.10   91.59
  -2  -4   4 2684.03   86.19
   1   4  -4  337.87   15.50
   1   4  -4  323.97   19.50
   1   4  -4  327.37   15.40
  -1  -4   4  296.27   17.60
  -1  -4   4  333.07   16.00
  -1  -4   4  335.07   13.50
  -1  -4   4  320.27   17.20
   0   4  -4 1234.88   44.30
   0   4  -4 1265.07   41.90
   0   4  -4 1231.68   41.10
   0   4  -4 1240.78   41.90
   0  -4   4 1281.47   40.30
   0  -4   4 1205.98   42.40
   0  -4   4 1250.67   41.10
   0  -4   4 1237.18   42.60
   0  -4   4 1268.27   43.00
  -1   4  -4 1593.94   51.89
  -1   4  -4 1539.55   50.39
  -1   4  -4 1593.64   51.69
  -1   4  -4 1542.85   46.10
  -1   4  -4 1570.54   53.59
   1  -4   4 1649.13   49.00
   1  -4   4 1647.24   52.59
   1  -4   4 1633.24   52.49
   1  -4   4 1510.35   51.59
   1  -4   4 1625.74   52.59
  -2   4  -4  350.96   12.90
  -2   4  -4  315.67   15.20
  -2   4  -4  307.67   18.50
   2  -4   4  318.87   16.70
   2  -4   4  359.36   16.00
   2  -4   4  313.97   16.90
   2  -4   4  317.67   17.40
  -3   4  -4  513.55   24.50
  -3   4  -4  560.54   21.70
  -3   4  -4  568.84   20.90
  -3   4  -4  587.04   22.50
   3  -4   4  558.34   19.90
   3  -4   4  554.64   25.00
   3  -4   4  556.94   24.40
   3  -4   4  560.64   23.70
   3  -4   4  545.05   22.20
  -4   4  -4  805.02   32.30
  -4   4  -4  792.22   29.20
  -4   4  -4  782.82   29.10
  -4   4  -4  772.32   28.50
   4  -4   4  793.62   33.20
   4  -4   4  769.22   28.80
   4  -4   4  814.62   30.40
   4  -4   4  774.12   31.60
   4  -4   4  818.52   26.90
  -5   4  -4   13.40    9.80
  -5   4  -4    2.50    7.40
  -5   4  -4    3.50    5.10
   5  -4   4    7.20    9.60
   5  -4   4    6.80    7.50
   5  -4   4    9.60    4.60
   5  -4   4    7.90    4.20
   5  -4   4   11.40    7.80
  -6   4  -4  412.66   18.30
  -6   4  -4  405.46   21.40
  -6   4  -4  354.86   21.90
  -6   4  -4  356.16   28.30
   6  -4   4  387.86   16.90
   6  -4   4  378.06   23.90
   6  -4   4  402.76   16.60
   6  -4   4  362.46   26.00
   6  -4   4  372.36   19.80
  -7   4  -4   55.89   12.20
   7  -4   4   59.39   13.40
   7  -4   4   55.69    7.20
  -8   4  -4    4.30    8.70
   8  -4   4   28.80   15.30
   7   3  -4  173.38   23.20
   7   3  -4  179.48   18.20
   7   3  -4  150.18    8.90
  -7  -3   4  112.09   16.30
  -7  -3   4  126.19   14.70
   6   3  -4   40.50    6.30
   6   3  -4   34.10   10.10
   6   3  -4   60.89    9.40
  -6  -3   4   34.70   14.00
  -6  -3   4   29.80    9.50
  -6  -3   4   34.60    7.40
  -6  -3   4   30.60   11.30
   5   3  -4  705.93   28.30
   5   3  -4  727.13   26.20
   5   3  -4  727.43   30.20
  -5  -3   4  738.53   27.70
  -5  -3   4  667.93   30.30
  -5  -3   4  720.93   32.10
  -5  -3   4  653.83   29.90
  -5  -3   4  724.13   27.90
   4   3  -4  182.48   17.10
   4   3  -4  206.78   13.30
   4   3  -4  213.68   11.90
  -4  -3   4  222.18   12.60
  -4  -3   4  210.68   12.90
  -4  -3   4  194.98   16.20
  -4  -3   4  197.08   17.30
  -4  -3   4  213.68   16.20
   3   3  -4  478.45   19.70
   3   3  -4  488.55   23.30
   3   3  -4  538.35   21.20
  -3  -3   4  531.25   23.00
  -3  -3   4  482.15   22.10
  -3  -3   4  530.55   18.50
  -3  -3   4  537.45   21.60
  -3  -3   4  487.15   22.00
   2   3  -4 2818.32   85.59
   2   3  -4 2934.31   85.49
   2   3  -4 2806.52   86.79
  -2  -3   4 2857.31   86.49
  -2  -3   4 2757.62   85.99
  -2  -3   4 2605.34   81.29
  -2  -3   4 2853.21   85.99
  -2  -3   4 2702.73   85.49
  -2  -3   4 2884.61   81.29
  -2  -3   4 2748.63   81.29
   1   3  -4   75.59    6.80
   1   3  -4   59.29    6.70
  -1  -3   4   55.89    7.20
  -1  -3   4   75.59    7.70
  -1  -3   4   67.39    8.60
  -1  -3   4   82.99    5.90
  -1  -3   4   78.39    8.00
   0   3  -4  690.63   27.00
   0   3  -4  683.33   24.90
   0   3  -4  662.63   24.60
   0   3  -4  658.83   24.60
   0  -3   4  694.53   25.50
   0  -3   4  695.33   25.60
   0  -3   4  719.03   23.80
   0  -3   4  664.43   25.50
  -1   3  -4 1861.51   65.29
  -1   3  -4 2107.99   64.79
  -1   3  -4 2020.00   65.59
  -1   3  -4 2057.99   64.49
  -1   3  -4 2102.79   60.39
   1  -3   4 2101.59   65.49
   1  -3   4 2082.69   64.69
   1  -3   4 2176.68   65.39
   1  -3   4 2164.98   62.09
  -2   3  -4   66.29    8.40
  -2   3  -4   64.69    8.40
  -2   3  -4   71.79    7.10
  -2   3  -4   65.59    6.90
   2  -3   4   42.80    6.80
   2  -3   4   61.49    7.60
   2  -3   4   58.79    6.70
   2  -3   4   71.49    5.80
  -3   3  -4  748.23   26.10
  -3   3  -4  750.62   26.60
  -3   3  -4  747.33   26.20
  -3   3  -4  707.53   28.00
   3  -3   4  705.93   27.30
   3  -3   4  742.53   24.90
   3  -3   4  744.43   27.20
   3  -3   4  707.13   26.40
  -4   3  -4  948.51   37.10
  -4   3  -4  999.30   37.00
  -4   3  -4 1073.09   35.20
  -4   3  -4 1073.59   36.40
   4  -3   4 1039.90   35.00
   4  -3   4 1059.59   33.90
   4  -3   4 1059.39   35.80
   4  -3   4 1016.70   36.60
  -5   3  -4   37.20    8.10
  -5   3  -4   42.00    5.90
  -5   3  -4   41.00    9.60
  -5   3  -4   45.90    9.60
   5  -3   4   45.30    5.80
   5  -3   4   51.29    7.90
   5  -3   4   45.00    9.30
   5  -3   4   32.70    8.70
   5  -3   4   45.90    5.80
  -6   3  -4  186.68   13.90
  -6   3  -4  144.49   16.60
  -6   3  -4  134.09   16.10
  -6   3  -4  133.79   13.40
   6  -3   4  149.79   11.90
   6  -3   4  139.49    9.30
   6  -3   4  152.48   11.00
   6  -3   4  142.99   16.70
   6  -3   4  155.38   18.50
  -7   3  -4  149.39   20.40
  -7   3  -4  164.48   19.10
  -7   3  -4  189.78   19.70
   7  -3   4  151.28   16.90
   7  -3   4  204.68   20.00
   7  -3   4  209.48   13.80
  -8   3  -4    9.40    8.40
   8  -3   4    5.10   13.00
   8  -3   4    7.40    7.50
   7   2  -4   23.30    9.00
   7   2  -4   10.80   11.10
  -7  -2   4   -0.60   11.40
  -7  -2   4   -2.40    9.40
   6   2  -4   -3.80    3.40
   6   2  -4   15.80    7.20
   6   2  -4    9.90    6.80
  -6  -2   4    4.60    8.10
  -6  -2   4   -9.60    9.60
  -6  -2   4   -1.30    7.80
  -6  -2   4  -10.80   11.90
  -6  -2   4   -5.10    8.90
   5   2  -4   60.89    8.20
   5   2  -4   65.69    9.20
   5   2  -4   72.39    7.50
  -5  -2   4   63.99   12.20
  -5  -2   4   74.19   10.00
  -5  -2   4   69.29   11.20
  -5  -2   4   74.29    9.10
   4   2  -4   31.80    6.10
   4   2  -4   38.20    8.00
  -4  -2   4   35.60    7.90
  -4  -2   4   36.20    8.50
  -4  -2   4   48.40    6.40
  -4  -2   4   32.30    8.40
  -4  -2   4   35.00    6.30
   3   2  -4  419.76   16.30
   3   2  -4  402.16   17.30
   3   2  -4  416.16   19.10
  -3  -2   4  394.56   18.90
  -3  -2   4  406.96   18.50
  -3  -2   4  407.16   15.70
  -3  -2   4  393.86   19.30
  -3  -2   4  419.86   17.60
   2   2  -4   24.90    6.30
   2   2  -4   24.00    4.00
   2   2  -4   31.00    4.70
  -2  -2   4   31.40    4.10
  -2  -2   4   27.70    5.90
  -2  -2   4   19.90    5.50
  -2  -2   4   23.40    5.40
  -2  -2   4   29.30    3.20
  -2  -2   4   29.00    5.00
   1   2  -4   99.09    7.40
   1   2  -4  103.49   10.00
   1   2  -4   99.29    7.10
   1   2  -4  103.09    8.60
  -1  -2   4  116.89    9.40
  -1  -2   4  112.39    8.80
  -1  -2   4  107.49    6.90
  -1  -2   4  108.29    8.20
  -1  -2   4   93.69    8.40
   0   2  -4  373.16   15.10
   0   2  -4  351.46   16.40
   0   2  -4  382.76   15.20
   0  -2   4  372.76   14.40
   0  -2   4  363.06   15.50
   0  -2   4  367.46   15.60
  -1   2  -4 2392.86   68.79
  -1   2  -4 2213.28   67.99
  -1   2  -4 2356.96   65.79
  -1   2  -4 2303.87   68.49
  -1   2  -4 1991.30   71.89
   1  -2   4 2062.79   68.39
   1  -2   4 2195.08   68.89
   1  -2   4 2278.57   68.89
   1  -2   4 2196.38   67.49
   1  -2   4 2371.86   66.29
  -2   2  -4  105.89    7.80
  -2   2  -4   95.89    7.10
  -2   2  -4   98.59    8.40
  -2   2  -4   82.49    9.40
  -2   2  -4  106.89    7.40
   2  -2   4   92.39    6.40
   2  -2   4   88.59    8.50
   2  -2   4   94.89    8.80
   2  -2   4  100.69    7.60
  -3   2  -4 1974.20   61.69
  -3   2  -4 2021.70   62.59
  -3   2  -4 2003.50   61.39
  -3   2  -4 1998.00   61.49
   3  -2   4 1966.30   61.49
   3  -2   4 2006.60   60.69
   3  -2   4 1886.01   61.29
   3  -2   4 2028.40   61.59
  -4   2  -4  194.58   13.20
  -4   2  -4  207.58   13.90
  -4   2  -4  202.28   14.10
  -4   2  -4  215.88   11.20
   4  -2   4  211.48   12.20
   4  -2   4  200.48   10.40
   4  -2   4  216.48   13.20
   4  -2   4  204.48   10.80
  -5   2  -4  447.36   20.90
  -5   2  -4  431.56   20.40
  -5   2  -4  451.75   19.00
  -5   2  -4  429.16   21.40
   5  -2   4  436.86   18.40
   5  -2   4  441.96   20.30
   5  -2   4  453.15   17.10
   5  -2   4  432.46   18.00
  -6   2  -4  677.93   29.10
  -6   2  -4  652.03   27.30
  -6   2  -4  673.73   25.30
  -6   2  -4  622.04   29.60
   6  -2   4  651.03   27.60
   6  -2   4  646.04   22.80
   6  -2   4  683.53   22.10
   6  -2   4  695.53   25.80
   6  -2   4  560.44   34.20
  -7   2  -4    8.50    8.70
  -7   2  -4   21.40   11.20
  -7   2  -4   11.60   11.30
   7  -2   4   10.10    6.10
   7  -2   4    8.50   10.80
   7  -2   4    9.10    9.90
  -8   2  -4   12.00   16.60
   8  -2   4   45.40    9.80
   8  -2   4   49.99    9.60
   8  -2   4   86.89   15.10
   8   1  -4  137.69   15.40
   8   1  -4  115.09   18.20
  -8  -1   4  102.99   13.30
  -8  -1   4  122.79   17.60
   7   1  -4   10.70    9.90
   7   1  -4   -1.70    8.00
  -7  -1   4    8.90   11.30
  -7  -1   4   14.70    9.80
  -7  -1   4    7.70    9.50
   6   1  -4  548.65   23.90
  -6  -1   4  524.85   30.10
  -6  -1   4  492.45   23.70
  -6  -1   4  502.85   22.40
  -6  -1   4  486.15   26.30
   5   1  -4  265.67   11.20
   5   1  -4  280.87   15.50
   5   1  -4  262.77   10.10
   5   1  -4  265.87   13.70
  -5  -1   4  222.28   17.30
  -5  -1   4  288.87   16.30
  -5  -1   4  255.97   15.30
  -5  -1   4  285.87   15.50
  -5  -1   4  279.37   20.70
   4   1  -4    8.00    4.30
   4   1  -4    3.50    5.60
   4   1  -4    2.80    2.70
   4   1  -4    1.60    2.60
  -4  -1   4   -3.10    6.40
  -4  -1   4   -3.50    4.60
  -4  -1   4    4.40    5.70
  -4  -1   4    2.10    7.10
  -4  -1   4    6.10    5.60
   3   1  -4  571.04   21.80
   3   1  -4  551.84   20.00
   3   1  -4  559.64   18.30
   3   1  -4  535.45   21.70
  -3  -1   4  500.85   22.20
  -3  -1   4  600.84   21.80
  -3  -1   4  580.64   20.20
  -3  -1   4  581.94   23.50
  -3  -1   4  595.74   21.50
  -3  -1   4  587.54   18.30
   2   1  -4 1336.07   40.80
   2   1  -4 1281.57   41.80
   2   1  -4 1257.67   41.50
  -2  -1   4 1280.97   41.30
  -2  -1   4 1221.98   38.10
  -2  -1   4 1337.07   41.70
  -2  -1   4 1307.97   38.90
  -2  -1   4 1319.77   41.80
  -2  -1   4 1210.88   41.90
   1   1  -4    7.40    2.70
   1   1  -4    7.70    4.40
   1   1  -4    7.20    2.80
  -1  -1   4    9.10    2.70
  -1  -1   4    4.80    2.60
  -1  -1   4    9.30    4.00
   0   1  -4 4460.55  129.49
   0   1  -4 4375.66  129.49
   0   1  -4 4304.77  129.49
   0   1  -4 4270.27  130.19
   0  -1   4 4614.64  129.99
   0  -1   4 4273.67  129.09
   0  -1   4 4478.45  130.39
   0  -1   4 4619.14  128.49
   0  -1   4 4324.57  129.49
   0  -1   4 4326.27  129.09
  -1   1  -4 1774.72   56.99
  -1   1  -4 1883.81   57.99
  -1   1  -4 1937.31   57.19
  -1   1  -4 1884.11   56.79
   1  -1   4 1847.62   57.39
   1  -1   4 1884.41   55.09
   1  -1   4 1860.21   57.69
   1  -1   4 1810.92   56.49
   1  -1   4 1838.42   56.79
  -2   1  -4   71.29    7.40
  -2   1  -4   79.39    5.70
  -2   1  -4   65.69    5.90
  -2   1  -4   77.19    7.00
   2  -1   4   67.89    7.20
   2  -1   4   70.99    5.50
   2  -1   4   75.19    6.30
   2  -1   4   66.59    6.90
  -3   1  -4 3067.79   93.89
  -3   1  -4 3188.08   94.39
  -3   1  -4 3195.08   94.19
  -3   1  -4 3074.49   93.29
   3  -1   4 3116.99   93.59
   3  -1   4 3183.98   93.59
   3  -1   4 3146.69   92.99
   3  -1   4 3045.90   93.19
  -4   1  -4  310.77   16.20
  -4   1  -4  313.57   15.80
   4  -1   4  326.37   13.50
   4  -1   4  315.37   14.10
   4  -1   4  316.07   14.50
   4  -1   4  315.47   14.20
  -5   1  -4  440.56   18.20
  -5   1  -4  458.45   19.40
  -5   1  -4  447.16   22.20
  -5   1  -4  425.76   21.30
   5  -1   4  426.96   16.40
   5  -1   4  441.16   18.60
   5  -1   4  426.16   17.10
   5  -1   4  427.46   18.60
  -6   1  -4  607.14   23.20
  -6   1  -4  609.94   24.10
  -6   1  -4  598.64   28.40
  -6   1  -4  592.74   28.40
   6  -1   4  615.64   20.00
   6  -1   4  585.34   20.50
   6  -1   4  586.34   24.20
   6  -1   4  592.34   24.50
  -7   1  -4   -0.80   11.30
  -7   1  -4    6.90    7.70
  -7   1  -4    3.40    7.70
  -7   1  -4   -3.90   10.00
   7  -1   4  -14.40    9.00
   7  -1   4   -4.90    6.40
   7  -1   4    6.30    8.90
  -8   1  -4  121.29   19.20
   8  -1   4  131.29   19.40
   8  -1   4  126.59   13.70
   8  -1   4   92.39   12.30
  -9   1  -4   95.99   15.40
   9  -1   4  102.59   15.00
   9  -1   4  112.29   17.20
   8   0  -4   -6.60   12.50
   8   0  -4    0.60   10.30
  -8   0   4  -21.40   12.60
  -8   0   4    0.70    7.10
   7   0  -4   -1.70    4.00
   7   0  -4   -3.50    9.10
   7   0  -4   14.20    8.50
  -7   0   4  -19.20    9.70
  -7   0   4   -4.20    8.50
   6   0  -4   41.00    8.30
   6   0  -4   35.70    4.80
  -6   0   4   39.70    7.60
  -6   0   4   40.00    9.20
  -6   0   4   43.30   10.80
  -6   0   4   48.40   14.00
  -6   0   4   37.00    7.50
   5   0  -4  717.13   28.30
   5   0  -4  718.43   22.50
   5   0  -4  724.03   23.70
  -5   0   4  729.83   27.70
  -5   0   4  722.83   32.00
  -5   0   4  736.63   27.90
  -5   0   4  735.93   26.20
  -5   0   4  697.13   29.80
   4   0  -4   14.70    4.80
   4   0  -4    8.00    4.40
   4   0  -4   12.30    3.00
   4   0  -4   12.10    2.70
  -4   0   4    7.40    4.80
  -4   0   4   12.00    5.30
  -4   0   4    8.10    6.90
  -4   0   4   11.50    5.50
  -4   0   4   18.50    7.60
  -4   0   4    9.70    5.00
   3   0  -4 1496.35   46.70
   3   0  -4 1582.24   47.90
   3   0  -4 1525.45   46.00
   3   0  -4 1535.45   49.30
  -3   0   4 1568.24   48.40
  -3   0   4 1538.55   47.90
  -3   0   4 1439.66   46.40
  -3   0   4 1527.45   50.19
   2   0  -4 3419.16  101.09
   2   0  -4 3291.17   98.39
   2   0  -4 3262.57  100.19
   2   0  -4 3606.34  100.59
   2   0  -4 3351.06   99.49
  -2   0   4 3320.07   98.29
  -2   0   4 3466.25  100.59
  -2   0   4 3344.97  101.39
  -2   0   4 3237.78  100.29
  -2   0   4 3362.96   98.49
  -2   0   4 3408.56  100.09
   1   0  -4   68.79    4.80
   1   0  -4   72.19    5.30
   1   0  -4   63.89    6.70
   1   0  -4   62.09    7.40
   1   0  -4   61.79    5.60
  -1   0   4   64.29    7.50
  -1   0   4   66.09    6.30
  -1   0   4   65.09    5.60
  -1   0   4   55.39    6.70
  -1   0   4   58.69    4.90
   0   0  -4 3524.95  106.39
   0   0  -4 3763.22  106.79
   0   0  -4 3604.44  106.49
   0   0  -4 3611.94  107.19
   0   0   4 3513.55  107.09
   0   0   4 3469.55  105.99
   0   0   4 3740.73  105.59
   0   0   4 3472.95  106.19
   0   0   4 3699.93  106.69
   0   0   4 3694.63  106.79
  -1   0  -4 4135.09  121.29
  -1   0  -4 4069.99  120.09
  -1   0  -4 4030.20  120.79
  -1   0  -4 4152.48  120.89
   1   0   4 4117.09  120.19
   1   0   4 4155.18  121.39
   1   0   4 4353.66  118.99
   1   0   4 3961.50  120.29
   1   0   4 4070.99  120.69
   1   0   4 3996.50  121.19
  -2   0  -4  144.29    9.30
  -2   0  -4  131.39    7.60
  -2   0  -4  144.09    6.90
  -2   0  -4  146.09    9.20
   2   0   4  143.19    7.30
   2   0   4  149.99    8.10
   2   0   4  136.69    7.70
   2   0   4  127.49    7.60
   2   0   4  138.09    8.60
  -3   0  -4 2849.22   86.69
  -3   0  -4 2855.71   86.19
  -3   0  -4 2990.70   87.79
   3   0   4 2896.71   86.89
   3   0   4 2852.31   84.99
   3   0   4 2871.91   86.09
   3   0   4 2867.01   86.49
  -4   0  -4 3652.83  108.79
  -4   0  -4 3665.23  111.29
  -4   0  -4 3627.34  110.39
   4   0   4 3577.94  107.19
   4   0   4 3715.43  107.99
   4   0   4 3711.23  108.39
   4   0   4 3652.83  109.99
  -5   0  -4  231.58   16.70
  -5   0  -4  235.28   16.90
  -5   0  -4  241.78   13.50
  -5   0  -4  219.88   12.90
   5   0   4  246.88   10.90
   5   0   4  246.98   13.70
   5   0   4  241.98   11.60
   5   0   4  221.68   11.80
  -6   0  -4 1009.00   34.10
  -6   0  -4  970.70   33.60
  -6   0  -4 1006.70   39.60
  -6   0  -4  984.20   39.60
   6   0   4  997.00   31.30
   6   0   4  983.50   31.10
   6   0   4  982.80   36.40
   6   0   4  996.10   33.20
  -7   0  -4   95.89   15.40
  -7   0  -4  120.49   13.20
  -7   0  -4   87.59   14.70
   7   0   4  135.19   10.40
   7   0   4  120.29   14.10
  -8   0  -4   35.20    9.70
  -8   0  -4   30.80   12.90
   8   0   4   36.10    6.50
   8   0   4   11.50   12.10
   8   0   4   20.70    9.80
  -9   0  -4   96.49   15.30
   9   0   4   79.99   14.80
   9   0   4   68.99   16.20
   8  -1  -4    0.30   11.20
   8  -1  -4   30.20   12.60
  -8   1   4   17.20   14.30
  -8   1   4   20.30    7.70
   7  -1  -4   52.99   10.60
   7  -1  -4   32.80    6.10
   7  -1  -4   30.70    9.80
  -7   1   4   29.00   10.10
  -7   1   4   23.70   11.60
   6  -1  -4   53.59    6.10
  -6   1   4   46.40    6.80
  -6   1   4   46.40    7.20
  -6   1   4   54.69   11.40
  -6   1   4   39.90    9.00
   5  -1  -4   85.39    7.40
   5  -1  -4   97.79   10.80
  -5   1   4  100.69    9.90
  -5   1   4  102.59   13.50
  -5   1   4   74.29   10.50
  -5   1   4   97.19   10.90
   4  -1  -4    0.10    2.70
   4  -1  -4    3.80    3.90
   4  -1  -4   -0.70    3.90
   4  -1  -4    4.80    2.40
  -4   1   4   10.90    7.50
  -4   1   4    7.00    5.00
  -4   1   4    3.80    4.50
  -4   1   4    0.00    4.60
  -4   1   4    5.40    6.40
  -4   1   4    3.50    5.70
   3  -1  -4  121.49    6.90
   3  -1  -4  131.49    7.00
   3  -1  -4  127.39    9.80
   3  -1  -4  120.29    8.60
   3  -1  -4  124.19    9.00
  -3   1   4  127.89   11.00
  -3   1   4  132.59    9.20
  -3   1   4  128.59    9.70
  -3   1   4  131.39    9.10
  -3   1   4  127.49    8.20
  -3   1   4  129.39   12.20
   2  -1  -4  149.29    7.10
   2  -1  -4  130.49    7.30
   2  -1  -4  137.39    8.80
   2  -1  -4  126.59    8.60
   2  -1  -4  147.09    9.10
  -2   1   4  145.29    7.80
  -2   1   4  140.69    9.50
  -2   1   4  134.79   10.10
  -2   1   4  132.79    8.90
  -2   1   4  148.19    7.30
   1  -1  -4   34.30    4.60
   1  -1  -4   34.50    3.70
   1  -1  -4   33.80    4.90
   1  -1  -4   24.70    3.80
   1  -1  -4   30.60    4.10
  -1   1   4   32.30    4.80
  -1   1   4   29.60    3.90
  -1   1   4   26.60    4.50
  -1   1   4   33.40    4.50
  -1   1   4   30.90    4.30
  -1   1   4   30.10    4.00
   0  -1  -4  478.45   17.40
   0  -1  -4  501.25   17.60
   0  -1  -4  495.55   17.70
   0  -1  -4  472.55   18.30
   0  -1  -4  478.45   17.90
   0   1   4  486.15   17.30
   0   1   4  480.95   17.40
   0   1   4  516.35   17.90
   0   1   4  491.75   18.20
   0   1   4  489.45   18.00
   0   1   4  474.95   16.90
  -1  -1  -4 1000.50   32.70
  -1  -1  -4  955.50   32.20
  -1  -1  -4 1019.70   32.20
  -1  -1  -4  999.60   32.70
  -1  -1  -4  993.60   31.10
   1   1   4  964.50   32.50
   1   1   4  991.60   31.30
   1   1   4 1021.30   32.50
   1   1   4 1000.40   30.50
   1   1   4  954.30   32.20
   1   1   4  992.10   32.00
  -2  -1  -4  260.67   12.50
  -2  -1  -4  258.97   11.40
  -2  -1  -4  258.67   12.90
  -2  -1  -4  278.77   10.20
   2   1   4  284.37   12.00
   2   1   4  272.87   13.20
   2   1   4  277.37   10.60
   2   1   4  267.47   11.80
   2   1   4  286.57   12.10
  -3  -1  -4 1040.00   34.70
  -3  -1  -4 1090.89   36.20
  -3  -1  -4  966.70   33.10
  -3  -1  -4 1062.39   34.30
   3   1   4 1076.49   32.30
   3   1   4 1054.79   34.50
   3   1   4 1085.89   34.40
   3   1   4 1007.70   36.20
   3   1   4 1113.19   35.60
  -4  -1  -4  433.16   20.20
  -4  -1  -4  403.96   16.90
  -4  -1  -4  430.86   17.70
  -4  -1  -4  425.96   20.20
   4   1   4  409.66   14.40
   4   1   4  412.46   16.40
   4   1   4  402.96   16.60
   4   1   4  462.85   18.40
  -5  -1  -4  103.89   14.40
  -5  -1  -4   99.29    9.60
  -5  -1  -4   92.59   11.50
  -5  -1  -4  108.19   10.90
   5   1   4  109.09    9.90
   5   1   4  105.49    9.00
   5   1   4  113.09    7.70
   5   1   4  105.49    6.80
  -6  -1  -4   16.10    6.00
  -6  -1  -4   18.20    9.30
  -6  -1  -4   10.20   11.00
  -6  -1  -4   13.20    6.80
   6   1   4   14.50    4.80
   6   1   4   18.50    4.20
   6   1   4   18.10    6.80
   6   1   4    9.50    3.20
   6   1   4   19.80    3.90
  -7  -1  -4   89.49   14.50
  -7  -1  -4   97.79    9.90
   7   1   4  137.99   14.70
   7   1   4  108.49    7.30
   7   1   4  116.99    9.50
  -8  -1  -4   53.79   16.40
  -8  -1  -4   24.20    8.10
   8   1   4   27.40   10.50
  -9  -1  -4    9.00   10.20
   9   1   4   30.70   13.10
   9   1   4   24.40   14.20
   8  -2  -4   18.00   11.60
   8  -2  -4   25.50   11.80
  -8   2   4    0.60   13.50
  -8   2   4  -11.30    6.60
   7  -2  -4   67.79   11.50
   7  -2  -4   71.79   10.90
   7  -2  -4   59.39   10.20
  -7   2   4   58.69   13.30
  -7   2   4   59.79   11.10
   6  -2  -4  110.79   12.30
   6  -2  -4  133.09   10.60
   6  -2  -4  116.59   13.70
  -6   2   4  113.19   10.60
  -6   2   4  127.59   13.80
  -6   2   4  123.39   13.20
  -6   2   4  129.39   11.50
   5  -2  -4   -5.80    5.40
   5  -2  -4    7.80    4.20
   5  -2  -4    9.00    7.10
  -5   2   4    5.90    6.10
  -5   2   4   -0.50    5.30
  -5   2   4    2.00    8.80
  -5   2   4   10.80    8.00
   4  -2  -4    6.70    3.30
   4  -2  -4    5.80    4.70
   4  -2  -4    5.00    5.40
   4  -2  -4    5.00    3.80
   4  -2  -4    7.60    2.70
  -4   2   4    3.90    6.70
  -4   2   4   21.60    7.50
  -4   2   4   10.40    4.90
  -4   2   4    5.00    4.80
  -4   2   4   -2.20    4.90
   3  -2  -4   34.90    4.90
   3  -2  -4   31.60    4.00
   3  -2  -4   36.00    5.00
   3  -2  -4   27.60    5.30
   3  -2  -4   34.00    5.70
  -3   2   4   29.00    4.70
  -3   2   4   37.60    5.60
  -3   2   4   27.50    7.50
  -3   2   4   33.30    5.60
  -3   2   4   21.60    5.90
  -3   2   4   33.30    6.10
   2  -2  -4  442.96   16.50
   2  -2  -4  436.06   17.00
   2  -2  -4  461.55   17.30
   2  -2  -4  451.75   18.20
   2  -2  -4  448.76   16.50
  -2   2   4  498.45   18.40
  -2   2   4  478.05   17.60
  -2   2   4  434.26   17.40
  -2   2   4  393.46   16.20
  -2   2   4  471.95   19.60
  -2   2   4  472.75   17.40
   1  -2  -4   29.30    4.20
   1  -2  -4   23.50    3.50
   1  -2  -4   32.20    4.90
   1  -2  -4   31.00    4.30
   1  -2  -4   28.50    3.90
  -1   2   4   35.50    4.00
  -1   2   4   28.50    4.60
  -1   2   4   30.60    4.50
  -1   2   4   28.20    4.10
  -1   2   4   32.30    4.20
  -1   2   4   26.10    5.50
   0  -2  -4  979.20   33.40
   0  -2  -4 1018.70   33.00
   0  -2  -4 1030.00   32.70
   0  -2  -4 1006.70   32.80
   0  -2  -4 1010.60   32.90
   0   2   4 1001.60   32.40
   0   2   4 1005.30   32.60
   0   2   4 1062.99   33.20
   0   2   4 1061.19   32.30
   0   2   4  998.40   33.20
   0   2   4 1034.80   33.50
  -1  -2  -4    3.60    4.10
  -1  -2  -4    0.30    2.10
  -1  -2  -4    4.80    3.80
  -1  -2  -4    3.30    2.40
  -1  -2  -4    2.40    1.70
   1   2   4    0.60    3.40
   1   2   4    2.60    2.70
   1   2   4    2.60    2.30
   1   2   4    4.80    2.90
   1   2   4    0.40    3.10
   1   2   4    0.00    2.00
  -2  -2  -4   23.10    4.60
  -2  -2  -4   21.30    3.10
  -2  -2  -4   30.20    4.30
   2   2   4   18.90    4.40
   2   2   4   34.60    4.60
   2   2   4   15.50    4.30
   2   2   4   24.10    3.50
   2   2   4   21.30    3.00
  -3  -2  -4  270.77    9.10
  -3  -2  -4  255.17   13.00
  -3  -2  -4  270.87   12.00
  -3  -2  -4  271.77   15.00
   3   2   4  252.07   12.00
   3   2   4  267.17   12.70
   3   2   4  252.47   13.80
   3   2   4  268.77   13.10
   3   2   4  273.27    9.30
  -4  -2  -4    4.40    5.90
  -4  -2  -4   11.80    3.80
  -4  -2  -4   11.20    7.00
  -4  -2  -4    7.40    5.20
   4   2   4   11.10    5.00
   4   2   4   11.00    6.10
   4   2   4   11.70    4.20
   4   2   4    9.60    3.70
  -5  -2  -4    9.40    4.00
  -5  -2  -4    7.20    9.00
  -5  -2  -4   -2.30    7.70
  -5  -2  -4    4.40    5.60
   5   2   4   -1.40    6.80
   5   2   4    5.60    3.60
   5   2   4    3.00    4.60
   5   2   4    4.20    5.20
  -6  -2  -4  142.39   16.80
  -6  -2  -4  144.89   13.00
  -6  -2  -4  141.69   13.70
  -6  -2  -4  149.79   20.10
   6   2   4  145.49   11.00
   6   2   4  145.79   17.80
   6   2   4  131.09    9.60
   6   2   4  141.89   13.90
  -7  -2  -4    7.00   10.60
  -7  -2  -4    1.50    7.80
  -7  -2  -4   12.50    8.20
   7   2   4   -2.70   12.10
   7   2   4   -0.80    3.60
   7   2   4    0.40    7.60
  -8  -2  -4   48.50   12.60
   8   2   4   64.79   12.90
  -9  -2  -4   26.00   11.70
   9   2   4   52.59   15.30
   9   2   4   44.10   15.80
   8  -3  -4  -22.60   11.70
   8  -3  -4   -4.40    8.80
  -8   3   4   22.40   15.00
  -8   3   4    1.90    6.90
   7  -3  -4  165.68   19.50
   7  -3  -4  196.08   16.30
   7  -3  -4  152.38   16.90
  -7   3   4  177.88   17.70
  -7   3   4  119.59   15.80
   6  -3  -4   94.49   11.80
   6  -3  -4   81.59   11.30
   6  -3  -4   86.99   11.40
   6  -3  -4   81.09   10.50
  -6   3   4   82.19   12.90
  -6   3   4  103.29   12.70
  -6   3   4   71.49   10.20
  -6   3   4  114.19   11.40
   5  -3  -4   82.09    9.10
   5  -3  -4   87.39    9.20
  -5   3   4   89.19    9.90
  -5   3   4   77.69    8.10
  -5   3   4   89.39   11.40
  -5   3   4   79.59   13.40
   4  -3  -4  757.42   30.50
   4  -3  -4  793.22   28.00
   4  -3  -4  820.12   25.90
   4  -3  -4  807.22   26.20
   4  -3  -4  791.62   27.50
  -4   3   4  807.62   28.50
  -4   3   4  765.02   28.00
  -4   3   4  777.32   31.60
  -4   3   4  750.92   29.90
  -4   3   4  775.42   27.60
   3  -3  -4  658.23   23.90
   3  -3  -4  683.53   23.50
   3  -3  -4  679.83   25.90
   3  -3  -4  656.53   23.20
   3  -3  -4  675.73   23.00
  -3   3   4  648.94   26.00
  -3   3   4  626.24   26.40
  -3   3   4  668.73   25.50
  -3   3   4  703.53   24.30
  -3   3   4  642.84   23.50
   2  -3  -4  154.58   10.20
   2  -3  -4  142.29    8.40
   2  -3  -4  141.59    9.50
   2  -3  -4  148.89    8.80
   2  -3  -4  159.98    8.50
  -2   3   4  141.39    8.90
  -2   3   4  150.48   10.50
  -2   3   4  154.08    8.50
  -2   3   4  157.28   10.50
  -2   3   4  141.99    9.90
   1  -3  -4 1633.34   51.39
   1  -3  -4 1666.93   50.59
   1  -3  -4 1629.34   51.19
   1  -3  -4 1629.44   52.09
   1  -3  -4 1600.54   51.59
  -1   3   4 1728.03   51.19
  -1   3   4 1699.73   50.39
  -1   3   4 1643.24   51.89
  -1   3   4 1620.74   51.79
  -1   3   4 1663.63   51.79
   0  -3  -4   25.70    3.80
   0  -3  -4   36.10    4.70
   0  -3  -4   29.30    5.50
   0  -3  -4   31.60    4.80
   0  -3  -4   45.50    4.90
   0   3   4   41.30    5.80
   0   3   4   25.20    4.10
   0   3   4   34.80    4.30
   0   3   4   28.10    4.30
  -1  -3  -4    1.60    2.50
  -1  -3  -4    6.60    2.70
  -1  -3  -4    0.30    1.90
  -1  -3  -4    5.00    4.40
  -1  -3  -4   10.40    4.40
   1   3   4    6.20    4.50
   1   3   4   -0.30    2.20
   1   3   4    0.80    2.70
  -2  -3  -4  950.20   29.00
  -2  -3  -4  895.11   31.90
  -2  -3  -4  960.30   32.90
  -2  -3  -4  924.51   31.70
  -2  -3  -4  978.60   32.20
   2   3   4  876.71   31.30
   2   3   4  929.61   31.80
   2   3   4  959.80   32.00
   2   3   4  940.71   31.80
  -3  -3  -4  392.16   17.40
  -3  -3  -4  393.36   12.50
  -3  -3  -4  403.06   19.30
  -3  -3  -4  405.36   17.60
  -3  -3  -4  361.96   16.20
   3   3   4  400.36   17.30
   3   3   4  390.76   17.40
   3   3   4  413.46   17.20
   3   3   4  417.86   16.70
  -4  -3  -4  175.48   10.30
  -4  -3  -4  150.68   11.90
  -4  -3  -4  154.38   14.80
   4   3   4  170.38   12.00
   4   3   4  154.68    9.80
   4   3   4  193.28   12.50
   4   3   4  174.68   11.80
  -5  -3  -4  152.58   13.70
  -5  -3  -4  181.88   10.80
  -5  -3  -4  157.68   15.90
  -5  -3  -4  153.58   18.30
   5   3   4  184.48   13.70
   5   3   4  166.48   13.00
   5   3   4  150.68   10.40
   5   3   4  166.58   14.40
  -6  -3  -4  395.46   20.70
  -6  -3  -4  363.66   22.90
  -6  -3  -4  395.16   17.90
   6   3   4  402.06   22.30
   6   3   4  403.06   21.80
   6   3   4  410.16   19.20
   6   3   4  396.16   17.40
  -7  -3  -4    1.70   11.10
  -7  -3  -4   -1.40   11.50
   7   3   4   -3.10   11.10
   7   3   4   -8.40    7.60
   7   3   4    2.10    7.00
   7   3   4    6.40    4.90
  -8  -3  -4    8.30   11.20
   8   3   4   10.80   14.80
   8   3   4   30.70   12.50
   7  -4  -4   61.19   10.30
   7  -4  -4   47.90   13.10
  -7   4   4   50.49    9.00
  -7   4   4   57.49   14.60
   6  -4  -4   25.10    8.70
   6  -4  -4   22.40    8.90
   6  -4  -4    8.30    6.60
   6  -4  -4   25.60    6.30
  -6   4   4   16.60    7.70
  -6   4   4   20.60   11.50
  -6   4   4   14.20    8.10
   5  -4  -4   -0.30    6.20
   5  -4  -4    2.50    6.40
   5  -4  -4    9.10    5.40
   5  -4  -4   -0.10    3.10
  -5   4   4    1.40   12.40
  -5   4   4   -2.50    6.90
  -5   4   4    2.00    6.30
  -5   4   4   -1.80    8.50
  -5   4   4    9.60    7.40
   4  -4  -4  151.68   10.80
   4  -4  -4  153.88   10.60
   4  -4  -4  159.28    9.20
   4  -4  -4  145.39   10.80
   4  -4  -4  133.59   12.90
  -4   4   4  148.79   11.00
  -4   4   4  152.58   17.70
  -4   4   4  147.09   14.10
  -4   4   4  173.88   12.10
  -4   4   4  142.99   12.60
   3  -4  -4   76.99    7.70
   3  -4  -4   70.29    7.40
   3  -4  -4   77.89    9.40
   3  -4  -4   74.99    9.20
   3  -4  -4   73.39    6.70
  -3   4   4   80.89    8.90
  -3   4   4   70.19    9.70
  -3   4   4   69.79    7.60
  -3   4   4   72.69    7.70
  -3   4   4   72.19    8.10
   2  -4  -4  161.48    8.90
   2  -4  -4  147.79    8.80
   2  -4  -4  151.98   10.80
   2  -4  -4  139.09   10.30
   2  -4  -4  149.29    9.00
  -2   4   4  161.08    7.50
  -2   4   4  157.68   11.50
  -2   4   4  160.88    9.70
  -2   4   4  163.88   13.00
  -2   4   4  161.18   12.10
   1  -4  -4   75.29    9.10
   1  -4  -4   79.79    7.40
   1  -4  -4   75.69    7.40
   1  -4  -4   77.69    6.50
   1  -4  -4   79.69    6.80
  -1   4   4   75.39    7.80
  -1   4   4   77.59    8.90
  -1   4   4   79.29    5.50
  -1   4   4   74.39    7.20
  -1   4   4   78.79    9.00
   0  -4  -4  152.88   11.50
   0  -4  -4  144.09    8.70
   0  -4  -4  138.69    8.40
   0  -4  -4  134.99    9.60
   0  -4  -4  152.88    9.20
   0   4   4  149.49   10.80
   0   4   4  144.69    9.00
   0   4   4  140.99    7.90
   0   4   4  149.79    9.30
   0   4   4  138.19    9.60
  -1  -4  -4   56.69    5.40
  -1  -4  -4   68.49    6.10
  -1  -4  -4   58.09    7.60
  -1  -4  -4   52.99    6.70
   1   4   4   63.09    6.50
   1   4   4   77.59    7.70
   1   4   4   48.70    6.60
   1   4   4   46.30    6.00
  -2  -4  -4   62.49    5.00
  -2  -4  -4   59.59    6.80
  -2  -4  -4   69.59    6.70
  -2  -4  -4   68.79    8.20
  -2  -4  -4   76.69   10.50
   2   4   4   69.19    6.90
   2   4   4   68.69    7.10
   2   4   4   58.69    7.60
   2   4   4   56.89    8.60
  -3  -4  -4   81.39    8.50
  -3  -4  -4   79.49    5.10
  -3  -4  -4   70.99    7.70
  -3  -4  -4   55.59    7.90
  -3  -4  -4   72.29    9.50
   3   4   4   73.29    8.80
   3   4   4   72.19    7.70
   3   4   4   72.19    9.20
   3   4   4   64.89    8.50
  -4  -4  -4  152.68   17.00
  -4  -4  -4  156.98   13.60
  -4  -4  -4  158.88   11.00
   4   4   4  157.98   12.20
   4   4   4  151.98   10.40
   4   4   4  171.38   13.90
   4   4   4  194.88   13.10
  -5  -4  -4  227.28   16.90
  -5  -4  -4  255.17   22.00
  -5  -4  -4  236.18   14.10
  -5  -4  -4  230.48   17.20
   5   4   4  225.88   15.70
   5   4   4  245.68   16.30
   5   4   4  261.27   16.60
   5   4   4  247.68   13.50
  -6  -4  -4  241.48   20.70
  -6  -4  -4  228.88   18.90
  -6  -4  -4  240.18   14.70
   6   4   4  250.57   18.10
   6   4   4  250.17   18.00
   6   4   4  239.58   18.40
   6   4   4  260.77   14.80
  -7  -4  -4   -3.30   11.70
  -7  -4  -4   14.50    6.50
   7   4   4   16.80    9.20
   7   4   4   16.90   10.20
   7   4   4   13.40   11.40
   7   4   4   18.40   11.00
  -8  -4  -4   48.80   13.20
   8   4   4   80.29   15.20
   7  -5  -4   15.80    9.90
   7  -5  -4   34.90   12.70
  -7   5   4   26.40    7.70
  -7   5   4   44.20   14.90
   6  -5  -4   70.69   10.00
   6  -5  -4   70.89   12.00
   6  -5  -4   63.59    8.10
  -6   5   4   77.99   13.90
  -6   5   4   52.29   12.40
  -6   5   4   73.09   10.60
   5  -5  -4   62.79    8.80
   5  -5  -4   72.29    6.70
   5  -5  -4   68.09    7.60
   5  -5  -4   73.19    9.30
   5  -5  -4   56.99    9.80
   5  -5  -4   75.39    7.80
  -5   5   4   85.89   12.30
  -5   5   4   66.19   10.00
  -5   5   4   63.89    9.10
  -5   5   4   66.79   10.40
   4  -5  -4   14.30    6.90
   4  -5  -4    8.50    4.40
   4  -5  -4   14.30    6.80
   4  -5  -4   14.90    4.70
   4  -5  -4    7.00    5.10
  -4   5   4    5.70    5.00
  -4   5   4   11.60    7.80
  -4   5   4    4.70   11.10
  -4   5   4    3.90    5.00
  -4   5   4   12.60    7.80
   3  -5  -4  319.97   14.70
   3  -5  -4  305.27   12.80
   3  -5  -4  308.17   15.60
   3  -5  -4  318.47   17.60
   3  -5  -4  319.17   17.10
  -3   5   4  334.07   15.80
  -3   5   4  287.37   14.50
  -3   5   4  304.97   16.90
  -3   5   4  297.47   17.30
  -3   5   4  322.87   20.80
   2  -5  -4   44.10    5.80
   2  -5  -4   43.80    6.50
   2  -5  -4   44.00    6.50
   2  -5  -4   46.40    7.80
   2  -5  -4   47.90    5.40
  -2   5   4   33.80    5.80
  -2   5   4   48.10    8.20
  -2   5   4   45.30    4.40
  -2   5   4   52.49    7.60
  -2   5   4   47.40    8.90
   1  -5  -4    3.00    4.30
   1  -5  -4    5.50    5.60
   1  -5  -4    4.00    3.20
   1  -5  -4   -0.20    2.90
   1  -5  -4    5.60    3.70
  -1   5   4    1.10    4.20
  -1   5   4    9.00    6.20
  -1   5   4   12.40    6.50
  -1   5   4    3.90    2.50
  -1   5   4    5.50    4.90
   0  -5  -4  329.87   15.00
   0  -5  -4  342.77   15.40
   0  -5  -4  357.26   17.50
   0  -5  -4  333.17   15.80
   0  -5  -4  357.46   15.90
   0   5   4  333.97   16.50
   0   5   4  349.37   15.90
   0   5   4  316.77   17.30
   0   5   4  357.26   14.20
  -1  -5  -4  152.48   12.40
  -1  -5  -4  161.88    9.20
  -1  -5  -4  146.39    9.80
  -1  -5  -4  156.28   13.10
  -1  -5  -4  171.48    9.90
   1   5   4  149.99   10.20
   1   5   4  154.88    9.80
   1   5   4  159.38   13.40
   1   5   4  162.28   11.10
  -2  -5  -4    8.70    6.60
  -2  -5  -4   11.40    3.00
  -2  -5  -4    0.70    3.10
  -2  -5  -4    0.70    4.10
  -2  -5  -4    9.30    6.60
   2   5   4    3.10    4.00
   2   5   4    3.10    6.10
   2   5   4    4.50    4.30
   2   5   4    5.40    4.90
  -3  -5  -4  336.57   12.10
  -3  -5  -4  340.77   16.50
  -3  -5  -4  288.17   17.70
  -3  -5  -4  304.87   19.80
  -3  -5  -4  334.97   16.10
   3   5   4  341.67   16.40
   3   5   4  315.17   16.60
   3   5   4  310.87   15.60
   3   5   4  305.77   17.40
  -4  -5  -4   -1.40    5.00
  -4  -5  -4   12.70    8.30
  -4  -5  -4   -2.50    4.80
  -4  -5  -4    5.00    9.60
   4   5   4   -0.80    5.90
   4   5   4    4.50    7.90
   4   5   4   -2.30    4.50
   4   5   4    2.30    5.30
  -5  -5  -4   13.00    9.40
  -5  -5  -4    6.60    9.40
  -5  -5  -4    9.20    6.00
   5   5   4   15.40    7.70
   5   5   4   16.20    9.90
   5   5   4   10.80    6.90
   5   5   4   16.20    8.60
  -6  -5  -4    2.20    6.60
  -6  -5  -4   -3.90   10.80
   6   5   4    2.00    9.00
   6   5   4   11.10   10.90
   6   5   4   10.70    8.50
   6   5   4  -10.90    5.50
  -7  -5  -4   12.40   11.90
  -7  -5  -4   19.60   13.10
   7   5   4   26.70    7.80
   7   5   4   23.80   11.90
   7   5   4   14.90   10.70
  -8  -5  -4   12.50    9.80
   8   5   4  -12.90   13.10
   8   5   4   -5.40    7.80
   7  -6  -4   18.50   14.10
   7  -6  -4   28.20   11.80
  -7   6   4   17.10    7.50
  -7   6   4   14.90   16.20
   6  -6  -4   -5.60    4.10
   6  -6  -4    0.80   11.00
   6  -6  -4    3.60    8.20
  -6   6   4   -8.40    4.40
  -6   6   4    2.00   12.30
   5  -6  -4  210.48   15.50
   5  -6  -4  195.98   12.70
   5  -6  -4  188.48   16.30
   5  -6  -4  195.88   18.10
  -5   6   4  206.08   14.40
  -5   6   4  238.68   20.10
  -5   6   4  223.18   15.10
   4  -6  -4  125.69   12.30
   4  -6  -4  123.19   15.10
   4  -6  -4  114.29   10.90
   4  -6  -4  116.39   14.40
  -4   6   4  124.69   12.00
  -4   6   4  134.19   14.80
  -4   6   4  127.49   11.30
   3  -6  -4  118.09   12.20
   3  -6  -4  121.09   14.80
   3  -6  -4  129.89   10.80
  -3   6   4  126.79   11.20
  -3   6   4  108.49   12.40
  -3   6   4   77.89   13.30
  -3   6   4  121.19   16.60
   2  -6  -4   24.60    5.00
   2  -6  -4   12.30    4.80
   2  -6  -4   34.40    6.30
   2  -6  -4   11.80    5.80
  -2   6   4   15.30    8.30
  -2   6   4   21.50    7.00
  -2   6   4   21.70    9.90
  -2   6   4   15.10    2.80
  -2   6   4   18.10    5.70
   1  -6  -4   84.69    9.60
   1  -6  -4   90.09    9.30
   1  -6  -4  102.39   13.70
   1  -6  -4   90.79    9.70
   1  -6  -4   85.99    8.80
  -1   6   4   92.89   11.60
  -1   6   4   99.49    9.80
  -1   6   4   83.19    9.70
  -1   6   4   98.69    6.90
  -1   6   4   95.19   11.90
   0  -6  -4   26.20    5.10
   0  -6  -4   22.00    5.10
   0  -6  -4   32.80    6.20
   0  -6  -4   27.60    8.50
   0   6   4   25.60    4.30
   0   6   4   25.30    7.90
   0   6   4   24.20    5.30
   0   6   4   19.00    8.00
  -1  -6  -4  353.06   18.80
  -1  -6  -4  376.26   17.90
  -1  -6  -4  361.06   16.60
  -1  -6  -4  393.46   16.60
  -1  -6  -4  345.67   19.20
   1   6   4  360.86   16.40
   1   6   4  368.26   18.50
   1   6   4  385.46   18.10
   1   6   4  346.57   20.40
  -2  -6  -4   18.10    7.90
  -2  -6  -4   22.70    6.10
  -2  -6  -4   33.50    4.90
  -2  -6  -4   11.90    7.90
  -2  -6  -4   28.70    5.60
   2   6   4   20.50    6.10
   2   6   4   21.00    6.70
   2   6   4   25.20    9.40
   2   6   4   31.60    6.20
  -3  -6  -4   51.69    5.90
  -3  -6  -4   47.80    7.30
  -3  -6  -4   44.00    9.40
  -3  -6  -4   48.80   11.00
  -3  -6  -4   50.49    6.00
  -3  -6  -4   51.59    7.90
   3   6   4   29.40    6.80
   3   6   4   47.30    9.80
   3   6   4   46.60    8.20
   3   6   4   44.20    7.00
  -4  -6  -4    2.20    3.50
  -4  -6  -4    2.30   12.00
  -4  -6  -4   -4.00    5.30
  -4  -6  -4   11.90    6.00
   4   6   4    3.30    7.10
   4   6   4    9.30    5.90
   4   6   4   -7.20   10.20
  -5  -6  -4    3.30    6.40
   5   6   4    4.00    6.60
   5   6   4   -6.00   11.60
   5   6   4    6.80    8.40
   5   6   4   18.30    8.00
  -6  -6  -4   -4.20   11.80
  -6  -6  -4   -5.40    7.60
   6   6   4   -2.40    7.00
   6   6   4    3.60    9.10
   6   6   4    4.00   10.10
  -7  -6  -4   38.30   13.70
   7   6   4   10.70    8.60
   7   6   4   40.20   13.40
   6  -7  -4   33.10   11.60
   6  -7  -4    2.10    6.40
   6  -7  -4   46.90   14.40
  -6   7   4   16.00    6.70
  -6   7   4    4.80   13.70
   5  -7  -4   42.90   10.20
   5  -7  -4   61.49   13.50
   5  -7  -4   50.99    8.20
  -5   7   4   58.29   10.20
  -5   7   4   54.69   12.90
   4  -7  -4  251.17   17.20
   4  -7  -4  270.67   19.50
   4  -7  -4  250.17   15.40
   4  -7  -4  237.58   20.00
  -4   7   4  225.68   18.20
  -4   7   4  232.98   17.30
   3  -7  -4    4.90    5.90
   3  -7  -4    6.60    7.10
   3  -7  -4    9.30    6.40
  -3   7   4   -0.40    6.40
  -3   7   4    5.80    7.70
   2  -7  -4  763.52   29.50
   2  -7  -4  790.62   32.10
   2  -7  -4  746.93   29.20
   2  -7  -4  725.83   31.10
  -2   7   4  708.43   23.40
  -2   7   4  754.12   30.00
  -2   7   4  707.13   28.70
   1  -7  -4  195.78   20.60
   1  -7  -4  242.98   13.80
   1  -7  -4  235.18   15.40
   1  -7  -4  224.48   15.50
   1  -7  -4  245.08   19.90
  -1   7   4  241.28   11.10
  -1   7   4  240.38   14.50
  -1   7   4  249.88   15.40
  -1   7   4  205.28   19.60
  -1   7   4  199.18   19.30
   0  -7  -4  338.57   18.20
   0  -7  -4  332.07   16.90
   0  -7  -4  309.27   21.60
   0  -7  -4  326.97   17.70
   0   7   4  314.27   22.40
   0   7   4  327.87   20.70
   0   7   4  341.87   15.20
   0   7   4  333.87   17.40
  -1  -7  -4  101.29   10.20
  -1  -7  -4   92.89   10.50
  -1  -7  -4  111.39   13.60
  -1  -7  -4  107.29   14.40
   1   7   4  109.69   14.70
   1   7   4  122.59   11.80
   1   7   4  128.59   17.70
   1   7   4   97.79   10.00
  -2  -7  -4    4.30    4.80
  -2  -7  -4   -2.30    9.30
  -2  -7  -4   -4.70    8.80
  -2  -7  -4    5.90    5.50
   2   7   4   11.20    5.50
   2   7   4   10.00    6.10
   2   7   4   -3.40   10.70
   2   7   4    0.60    8.10
  -3  -7  -4   40.50    7.50
  -3  -7  -4   54.19    7.50
  -3  -7  -4   36.90    8.40
   3   7   4   24.40    7.50
   3   7   4   36.70   13.10
   3   7   4   39.70    8.50
   3   7   4   30.80    9.30
  -4  -7  -4   10.40    6.90
  -4  -7  -4   24.80    8.20
  -4  -7  -4   14.60    3.90
  -4  -7  -4   23.00    5.70
   4   7   4    8.60    9.10
   4   7   4    8.40    6.80
   4   7   4   27.10   13.60
   4   7   4   13.20    8.20
  -5  -7  -4   29.90    9.40
   5   7   4   31.60   10.70
   5   7   4   24.70   15.60
   5   7   4   25.20    8.70
   5   7   4   25.80    9.30
  -6  -7  -4   11.70    9.60
  -6  -7  -4    4.00   13.30
   6   7   4   25.50    9.50
   6   7   4    9.30   12.10
   6   7   4   11.00   11.60
  -7  -7  -4    9.50    9.70
   7   7   4   14.70   10.50
   7   7   4   19.60   13.70
   5  -8  -4   35.50   14.30
   5  -8  -4   45.90    9.20
   5  -8  -4   27.10   11.10
  -5   8   4   39.70   13.90
   4  -8  -4   81.99   11.90
   4  -8  -4   80.59   12.80
   4  -8  -4  106.89   13.50
  -4   8   4  108.59   13.30
  -4   8   4   98.59   11.90
   3  -8  -4   34.80    9.30
   3  -8  -4   30.60    8.30
   3  -8  -4   50.99    9.80
  -3   8   4   42.10   10.20
  -3   8   4   49.00    9.70
   2  -8  -4   -4.70    6.20
   2  -8  -4   -1.70    7.30
   2  -8  -4  -12.60    5.20
   2  -8  -4    0.00   12.30
  -2   8   4    4.00    7.20
  -2   8   4   13.90    8.30
   1  -8  -4   16.00   12.00
   1  -8  -4   15.80    6.60
   1  -8  -4   13.40    6.50
  -1   8   4   16.80    7.60
  -1   8   4   13.90    6.70
  -1   8   4   13.50    4.30
   0  -8  -4   78.69   10.60
   0  -8  -4   62.49   14.70
   0  -8  -4   60.69    9.20
   0   8   4   68.09    9.10
   0   8   4   67.99   10.30
  -1  -8  -4   57.89    8.80
  -1  -8  -4   42.00    9.10
  -1  -8  -4   23.70   12.40
   1   8   4   67.49    8.40
   1   8   4   51.79    9.30
   1   8   4   35.70   12.10
  -2  -8  -4   99.99   12.00
  -2  -8  -4   87.79   14.40
   2   8   4   88.19   11.90
   2   8   4   76.89   10.40
   2   8   4   61.69   12.90
   2   8   4   47.50   15.70
  -3  -8  -4  165.78   15.50
  -3  -8  -4  178.38   16.10
  -3  -8  -4  190.68   15.70
   3   8   4  214.98   17.40
   3   8   4  179.58   20.80
   3   8   4  201.28   20.60
   3   8   4  143.49   15.60
  -4  -8  -4    1.50    4.70
  -4  -8  -4   17.00    9.70
  -4  -8  -4   17.10    8.90
   4   8   4   -9.90   15.80
   4   8   4   16.00   11.80
   4   8   4   -7.60    8.10
   4   8   4    6.80    8.40
  -5  -8  -4  -17.40    8.40
  -5  -8  -4   33.40   18.60
   5   8   4  -13.70   12.40
   5   8   4    0.10    9.90
   5   8   4   14.00    9.80
   5   8   4   -5.90   18.40
  -6  -8  -4   25.10   15.60
  -6  -8  -4   31.90   12.40
   6   8   4   22.20   11.90
   6   8   4   23.60   14.10
   4  -9  -4    4.70   10.00
   4  -9  -4   16.40   12.40
   4  -9  -4   -6.50    9.60
  -4   9   4   -6.70   10.60
   3  -9  -4   43.10   11.10
   3  -9  -4   27.10   11.90
   3  -9  -4   51.39   10.90
  -3   9   4   41.50   11.00
  -3   9   4   59.39   12.10
   2  -9  -4   28.90    9.10
   2  -9  -4   23.70    9.20
   2  -9  -4   16.40    9.90
   2  -9  -4   16.30   17.20
  -2   9   4   19.30    9.90
  -2   9   4   18.80    9.50
   1  -9  -4   35.30   16.30
   1  -9  -4   47.70    8.80
   1  -9  -4   33.30    9.40
  -1   9   4   53.49    6.30
  -1   9   4   65.89   11.80
  -1   9   4   27.70    9.90
   0  -9  -4  208.78   18.00
   0  -9  -4  177.28   15.00
   0   9   4  185.48   13.20
   0   9   4  195.18   18.50
  -1  -9  -4   26.80    8.90
  -1  -9  -4    7.30    7.20
   1   9   4    9.90    7.00
   1   9   4   11.40    9.10
  -2  -9  -4   47.30   11.10
  -2  -9  -4   53.69   10.00
  -2  -9  -4   60.49   12.70
   2   9   4   61.49   12.50
   2   9   4   70.39   11.40
  -3  -9  -4    9.10    8.50
  -3  -9  -4    6.30   10.00
  -3  -9  -4    6.20    9.40
   3   9   4   10.60    9.00
   3   9   4   10.90    9.30
  -4  -9  -4    5.30   11.30
  -4  -9  -4  -12.00    9.50
   4   9   4   10.90    9.90
   4   9   4   20.80   11.10
  -5  -9  -4   17.80   12.90
  -5  -9  -4   12.50   11.10
   5   9   4    7.80   11.80
   5   9   4   20.60   13.50
   3 -10  -4   17.70   14.00
   3 -10  -4    4.50   11.10
   3 -10  -4   15.50   11.30
  -3  10   4   -3.90   11.00
  -3  10   4    2.50   11.80
   2 -10  -4    1.30    9.60
   2 -10  -4   -0.30   11.90
   2 -10  -4  -17.00    9.90
  -2  10   4    1.60   11.10
  -2  10   4    8.60   10.10
   1 -10  -4   13.30   10.00
   1 -10  -4   -1.20    9.90
  -1  10   4   30.30   11.70
  -1  10   4   19.10   10.20
   0 -10  -4    5.60   10.10
   0 -10  -4   -3.90    8.80
   0  10   4   12.10    7.10
   0  10   4    3.10   10.70
  -1 -10  -4   -4.70   10.50
  -1 -10  -4    8.80    9.20
   1  10   4    7.20    9.90
   1  10   4   10.90    8.20
  -2 -10  -4   -9.10   11.00
  -2 -10  -4    5.20    9.40
   2  10   4   -4.80   11.60
   2  10   4   11.30    9.70
  -3 -10  -4   25.10   13.90
  -3 -10  -4   37.90   11.30
   3  10   4   22.00   12.70
   3  10   4   13.60   11.70
  -4 -10  -4    1.30   11.70
  -4 -10  -4    1.70   13.90
   4  10   4   20.10   13.40
   4  10   4   21.40   14.00
   1 -11  -4  -12.90   20.70
   1 -11  -4   33.10   12.70
  -1  11   4   62.79   16.50
  -1  11   4   74.19   14.30
   0 -11  -4    0.30   11.90
   0 -11  -4    9.80   14.10
   0  11   4   31.60   15.30
  -1 -11  -4   39.80   14.40
  -1 -11  -4   24.30   12.60
   1  11   4   30.10   15.90
   1  11   4   18.50   11.70
  -2 -11  -4   -0.20   15.20
   2  11   4    6.70   11.70
   2  11   4    4.90   15.00
   2   9  -5    3.70   13.40
  -2  -9   5   17.80   14.30
   1   9  -5   39.30   13.40
  -1  -9   5   19.40    8.90
  -1  -9   5   24.00   13.60
   0   9  -5    5.80   12.90
   0  -9   5   -2.10    8.60
   0  -9   5   21.50   12.90
  -1   9  -5    9.70   12.30
   1  -9   5   16.00    9.20
   1  -9   5  -10.10   10.00
  -2   9  -5   22.40   13.10
   2  -9   5   15.10   10.70
   2  -9   5   18.40   12.50
  -3   9  -5   41.90   14.50
   3  -9   5   34.70   13.60
   3  -9   5   58.29   14.80
   4   8  -5   -6.60   12.20
  -4  -8   5   32.70   15.00
   3   8  -5    8.30   11.30
  -3  -8   5   -8.80   11.60
   2   8  -5   -4.60   10.50
  -2  -8   5   12.60   11.90
   1   8  -5   39.50   10.70
  -1  -8   5   42.20   11.40
  -1  -8   5   56.39    7.90
   0   8  -5   28.80   10.00
   0  -8   5   33.60    8.40
   0  -8   5   32.10   10.60
  -1   8  -5   27.60   12.70
  -1   8  -5   13.50   10.00
   1  -8   5   24.50    8.80
   1  -8   5   45.40   10.70
  -2   8  -5   12.70    9.90
  -2   8  -5   27.10   11.70
   2  -8   5   -7.00    8.70
   2  -8   5   -6.70    7.80
  -3   8  -5  122.29   15.80
   3  -8   5  116.29   14.90
   3  -8   5  103.69   23.80
   3  -8   5   95.49   13.90
  -4   8  -5   43.50   12.20
  -4   8  -5   16.10    7.90
   4  -8   5   33.80   11.60
   4  -8   5   25.30   12.60
  -5   8  -5   51.49   10.30
   5  -8   5   43.00   16.00
   5  -8   5   84.39   13.40
   5   7  -5   -1.50   11.50
   5   7  -5   -1.20   12.00
  -5  -7   5   10.70    9.00
   4   7  -5    7.50   10.20
   4   7  -5   -9.70    9.60
  -4  -7   5  -19.70   10.30
  -4  -7   5   30.20   12.30
   3   7  -5   21.30    9.20
   3   7  -5   16.30    9.70
   3   7  -5   27.20   21.90
  -3  -7   5   20.60   11.40
  -3  -7   5   32.00   11.90
   2   7  -5    8.10    7.70
   2   7  -5   14.70   23.60
   2   7  -5    9.80    8.90
  -2  -7   5   10.70    9.20
  -2  -7   5   14.00    8.80
  -2  -7   5    2.70    4.20
   1   7  -5    6.60    7.60
  -1  -7   5    3.20    4.90
  -1  -7   5   14.00    9.00
   0   7  -5   18.60   11.30
   0   7  -5   34.10    9.00
   0  -7   5   25.80    6.60
   0  -7   5   33.60    8.90
  -1   7  -5   -2.10    9.90
   1  -7   5   -9.30    6.80
   1  -7   5    3.40    6.40
  -2   7  -5    0.00    9.70
   2  -7   5   17.40   13.80
   2  -7   5   13.10    6.70
   2  -7   5    8.60    7.60
  -3   7  -5    2.10    5.50
  -3   7  -5   14.80    9.60
   3  -7   5   12.10    8.50
   3  -7   5   -5.80    7.30
   3  -7   5   -3.10   15.40
  -4   7  -5   30.30    7.50
   4  -7   5    6.20   16.30
   4  -7   5   18.30    8.60
   4  -7   5   37.00   10.90
  -5   7  -5   16.60    9.60
  -5   7  -5    6.50    8.60
   5  -7   5   20.80   12.40
   5  -7   5    6.60    8.80
  -6   7  -5   15.80   10.20
   6  -7   5   16.50   15.70
   6  -7   5   12.20   10.30
   5   6  -5   40.70   11.30
   5   6  -5   34.80   10.90
  -5  -6   5   38.40   13.40
  -5  -6   5   58.79   12.10
   4   6  -5   47.10   10.20
   4   6  -5   48.20    9.80
   4   6  -5   22.60   18.20
  -4  -6   5   21.80   11.10
  -4  -6   5   54.59   10.80
   3   6  -5   28.50    8.20
   3   6  -5   35.70    8.90
   3   6  -5   12.30   17.20
  -3  -6   5   30.30    9.80
  -3  -6   5   27.50   10.50
   2   6  -5  124.69   14.00
   2   6  -5   89.79   17.80
   2   6  -5   97.19   12.40
  -2  -6   5   92.39   11.90
  -2  -6   5   97.79    7.50
  -2  -6   5  134.19   14.80
   1   6  -5    9.70    6.90
   1   6  -5    3.20   10.00
   1   6  -5   16.90   14.80
  -1  -6   5   -4.90    6.80
  -1  -6   5    3.60    7.80
  -1  -6   5   -0.10    4.10
   0   6  -5   47.00    8.80
   0   6  -5   44.70   10.20
   0   6  -5   50.69   15.20
   0   6  -5   49.80    8.90
   0  -6   5   21.40   11.30
   0  -6   5   49.50    7.40
  -1   6  -5   31.20    9.40
  -1   6  -5   29.10   14.90
  -1   6  -5   38.30    7.60
   1  -6   5   26.60   11.30
   1  -6   5   26.10    6.80
   1  -6   5   34.60    7.90
  -2   6  -5   -4.60    7.70
  -2   6  -5    8.10    6.50
   2  -6   5    3.30    5.60
   2  -6   5    1.90   11.60
   2  -6   5   -5.30    6.30
  -3   6  -5  205.58   11.60
  -3   6  -5  227.98   16.00
  -3   6  -5  220.08   16.80
   3  -6   5  216.28   15.80
   3  -6   5  198.28   22.80
   3  -6   5  216.48   17.30
  -4   6  -5    0.60    6.40
  -4   6  -5    3.00    7.30
  -4   6  -5    1.60    8.60
   4  -6   5    4.50    7.80
   4  -6   5   -3.20   12.60
   4  -6   5    0.60    6.30
  -5   6  -5   18.80    8.50
  -5   6  -5   18.00    8.80
   5  -6   5    8.60   10.20
   5  -6   5   11.70    7.40
   5  -6   5   15.40   13.80
  -6   6  -5   19.00   10.30
   6  -6   5   11.00   13.50
   6  -6   5    1.00    7.80
  -7   6  -5    0.30   11.40
   7  -6   5   -4.80    8.30
   7  -6   5   -5.40   16.70
   6   5  -5   12.10    8.60
   6   5  -5  -21.60    8.90
  -6  -5   5   17.70    9.30
   5   5  -5  127.29   14.20
   5   5  -5  137.79   16.20
  -5  -5   5  114.49   14.80
  -5  -5   5  148.29   13.10
  -5  -5   5  136.59   16.70
   4   5  -5  218.88   16.20
   4   5  -5  222.38   28.20
   4   5  -5  226.88   17.20
  -4  -5   5  228.48   17.60
  -4  -5   5  232.88   19.70
  -4  -5   5  254.07   12.40
   3   5  -5  118.39   12.70
   3   5  -5  103.99   11.90
   3   5  -5  120.69   16.90
  -3  -5   5   78.89   13.30
  -3  -5   5   78.79   12.10
  -3  -5   5  121.59   13.20
   2   5  -5  407.76   19.90
   2   5  -5  402.26   27.20
   2   5  -5  383.96   20.00
  -2  -5   5  385.06   20.60
  -2  -5   5  421.16   14.70
  -2  -5   5  376.66   20.60
  -2  -5   5  358.56   23.80
   1   5  -5  179.58   13.10
   1   5  -5  177.98   16.00
   1   5  -5  156.48   13.00
   1   5  -5  148.89   20.20
  -1  -5   5  169.78   14.20
  -1  -5   5  174.58   10.40
  -1  -5   5  170.68   13.80
  -1  -5   5  177.78   17.50
  -1  -5   5  166.48   18.20
   0   5  -5   -4.20    4.90
   0   5  -5    8.70    5.50
   0   5  -5    9.30    7.50
   0   5  -5  -11.10    9.00
   0  -5   5    0.40    4.30
   0  -5   5    4.10    8.50
   0  -5   5    4.30    5.60
   0  -5   5   -0.20    7.90
   0  -5   5   10.60    6.80
  -1   5  -5  389.56   19.70
  -1   5  -5  363.66   22.90
  -1   5  -5  389.06   18.90
  -1   5  -5  366.96   19.70
   1  -5   5  395.06   19.40
   1  -5   5  368.16   22.70
   1  -5   5  392.96   19.00
   1  -5   5  362.36   21.70
  -2   5  -5  331.17   18.40
  -2   5  -5  377.36   18.00
  -2   5  -5  327.67   22.20
  -2   5  -5  355.96   12.80
   2  -5   5  357.36   19.50
   2  -5   5  334.87   22.10
   2  -5   5  352.46   18.70
   2  -5   5  350.06   21.30
  -3   5  -5   92.99   12.80
  -3   5  -5   57.69   13.10
  -3   5  -5   80.59    9.20
  -3   5  -5   76.19   10.40
   3  -5   5   74.99   12.60
   3  -5   5   84.99   12.80
   3  -5   5  111.29   13.40
  -4   5  -5  164.68   13.00
  -4   5  -5  157.38   13.20
  -4   5  -5  158.58   15.10
   4  -5   5  168.58   18.60
   4  -5   5  165.78   16.90
   4  -5   5  171.98   13.10
  -5   5  -5  182.38   16.70
  -5   5  -5  147.59   14.00
  -5   5  -5  170.98   15.60
   5  -5   5  186.28   18.10
   5  -5   5  173.48   13.80
   5  -5   5  168.68   20.70
   5  -5   5  174.28   11.00
  -6   5  -5   -0.20    9.60
  -6   5  -5    0.20    7.10
   6  -5   5    5.30   10.70
   6  -5   5   -0.10    6.30
   6  -5   5  -11.30    4.70
  -7   5  -5   -3.90   11.20
   7  -5   5    5.80   14.00
   6   4  -5  103.99   13.00
   6   4  -5   58.39   11.40
  -6  -4   5   63.79   10.90
  -6  -4   5   81.89   14.70
   5   4  -5    3.20    6.50
   5   4  -5   11.60   14.00
   5   4  -5   15.10    8.00
  -5  -4   5   12.20    7.80
  -5  -4   5   10.00    9.50
  -5  -4   5   14.70    7.60
   4   4  -5  349.77   19.20
   4   4  -5  299.87   28.20
   4   4  -5  333.17   17.70
  -4  -4   5  352.16   25.10
  -4  -4   5  310.47   20.60
  -4  -4   5  332.97   19.40
   3   4  -5  276.47   16.20
   3   4  -5  267.57   21.50
  -3  -4   5  274.87   20.20
  -3  -4   5  275.17   16.30
  -3  -4   5  263.37   11.00
  -3  -4   5  260.27   17.30
  -3  -4   5  256.57   20.00
   2   4  -5   22.00   10.20
   2   4  -5   32.20    6.10
   2   4  -5   62.69    8.40
  -2  -4   5   45.50    9.50
  -2  -4   5   48.30    8.50
  -2  -4   5   37.80    6.80
  -2  -4   5   39.60   10.00
  -2  -4   5   34.80    4.50
  -2  -4   5   42.50    5.40
   1   4  -5 1268.87   43.40
   1   4  -5 1227.08   46.10
   1   4  -5 1225.48   43.10
   1   4  -5 1234.58   43.30
  -1  -4   5 1300.07   42.50
  -1  -4   5 1318.57   41.00
  -1  -4   5 1221.28   44.30
  -1  -4   5 1277.37   44.50
  -1  -4   5 1283.87   45.00
   0   4  -5  228.28   13.20
   0   4  -5  231.78   13.60
   0   4  -5  226.28   17.40
   0   4  -5  251.07   15.10
   0  -4   5  236.08   17.10
   0  -4   5  254.57   13.40
   0  -4   5  275.47   17.30
   0  -4   5  254.07   14.90
   0  -4   5  236.28   13.60
  -1   4  -5  558.54   23.30
  -1   4  -5  554.14   22.70
  -1   4  -5  514.45   25.30
  -1   4  -5  525.45   22.50
   1  -4   5  575.44   20.80
   1  -4   5  565.84   23.60
   1  -4   5  565.64   24.40
   1  -4   5  587.04   23.70
   1  -4   5  525.65   24.90
  -2   4  -5  676.03   30.70
  -2   4  -5  723.43   27.40
  -2   4  -5  716.53   23.50
  -2   4  -5  719.33   27.50
   2  -4   5  728.53   28.10
   2  -4   5  749.03   29.60
   2  -4   5  716.83   29.50
   2  -4   5  696.73   28.60
  -3   4  -5   14.00    6.00
  -3   4  -5   10.10    9.00
  -3   4  -5   23.60    7.10
  -3   4  -5   27.30    6.30
   3  -4   5   24.80    5.60
   3  -4   5   25.20    8.10
   3  -4   5   32.70    7.70
   3  -4   5   23.70    4.60
   3  -4   5   24.00    8.80
  -4   4  -5   25.10    7.40
  -4   4  -5   28.70   11.00
  -4   4  -5   20.40    7.50
  -4   4  -5   18.60    6.10
   4  -4   5   18.20    8.90
   4  -4   5   29.70   13.10
   4  -4   5   16.10    9.20
   4  -4   5   19.70    4.90
   4  -4   5   26.60    6.00
  -5   4  -5  200.58   15.60
  -5   4  -5  184.08   16.60
  -5   4  -5  208.58   13.80
   5  -4   5  200.18   18.00
   5  -4   5  181.88   20.00
   5  -4   5  176.28   16.80
   5  -4   5  191.48   11.40
   5  -4   5  160.18   14.60
  -6   4  -5   17.50    6.80
  -6   4  -5   18.60   10.30
  -6   4  -5    0.60    9.50
   6  -4   5    9.90    5.90
   6  -4   5    8.00    9.20
   6  -4   5    2.40    5.00
   6  -4   5   10.40   10.00
  -7   4  -5   25.20   11.70
   7  -4   5   54.49    8.60
   7  -4   5   43.70   13.50
   7  -4   5   35.80    7.10
  -8   4  -5   88.99   13.10
   8  -4   5  101.69   19.80
   7   3  -5   44.00   12.20
   7   3  -5   56.29    8.00
   7   3  -5   41.00   15.20
  -7  -3   5   56.89   11.90
  -7  -3   5   75.19   16.30
   6   3  -5   98.29   11.70
   6   3  -5  122.89   16.80
  -6  -3   5  110.59   14.40
  -6  -3   5  129.69   16.10
   5   3  -5   31.90    8.90
   5   3  -5   44.20    6.80
   5   3  -5   44.00   12.10
  -5  -3   5   35.50    8.00
  -5  -3   5   27.90   13.20
  -5  -3   5   29.20   10.90
  -5  -3   5   48.90    8.80
   4   3  -5  872.31   35.10
   4   3  -5  847.22   32.20
  -4  -3   5  860.61   32.50
  -4  -3   5  810.02   35.30
  -4  -3   5  795.72   33.80
  -4  -3   5  843.82   34.20
  -4  -3   5  838.52   28.70
   3   3  -5  463.95   24.40
   3   3  -5  451.95   19.70
   3   3  -5  463.65   21.10
  -3  -3   5  458.85   23.20
  -3  -3   5  478.15   17.00
  -3  -3   5  498.15   24.00
  -3  -3   5  480.35   22.80
  -3  -3   5  526.95   22.10
   2   3  -5  379.66   16.70
   2   3  -5  359.06   17.00
   2   3  -5  344.67   20.70
  -2  -3   5  344.17   13.60
  -2  -3   5  354.86   13.20
  -2  -3   5  383.66   12.30
  -2  -3   5  372.16   18.30
  -2  -3   5  390.06   19.70
  -2  -3   5  347.37   17.70
  -2  -3   5  380.96   19.60
   1   3  -5 1270.37   44.00
   1   3  -5 1364.46   44.20
   1   3  -5 1321.87   43.90
   1   3  -5 1418.56   46.40
  -1  -3   5 1339.67   44.80
  -1  -3   5 1252.57   43.80
  -1  -3   5 1335.97   45.10
  -1  -3   5 1224.08   44.40
   0   3  -5  451.65   19.20
   0   3  -5  413.86   18.20
   0   3  -5  439.36   21.60
   0   3  -5  423.46   18.30
   0  -3   5  463.95   19.80
   0  -3   5  427.86   20.20
   0  -3   5  441.36   20.10
   0  -3   5  461.35   18.20
  -1   3  -5 1009.60   37.30
  -1   3  -5 1015.30   30.80
  -1   3  -5 1023.90   35.30
  -1   3  -5 1020.40   35.20
  -1   3  -5 1004.90   35.30
   1  -3   5 1037.40   32.80
   1  -3   5  998.60   36.00
   1  -3   5 1026.30   35.90
   1  -3   5 1028.00   36.10
  -2   3  -5  767.62   27.80
  -2   3  -5  728.03   27.40
  -2   3  -5  764.52   24.90
  -2   3  -5  700.93   28.80
  -2   3  -5  729.93   27.40
   2  -3   5  782.12   24.00
   2  -3   5  755.92   26.00
   2  -3   5  709.73   28.50
   2  -3   5  739.93   28.00
   2  -3   5  713.63   27.90
  -3   3  -5  109.19   13.90
  -3   3  -5  108.79   11.20
  -3   3  -5  106.39    9.40
  -3   3  -5  125.49   10.60
   3  -3   5  116.39    9.10
   3  -3   5  111.49   12.10
   3  -3   5  120.49    8.20
   3  -3   5   93.39   12.80
  -4   3  -5  405.36   22.50
  -4   3  -5  414.06   19.60
  -4   3  -5  392.66   19.50
  -4   3  -5  407.16   18.50
   4  -3   5  394.16   20.20
   4  -3   5  384.26   20.40
   4  -3   5  396.06   16.80
   4  -3   5  417.66   18.00
  -5   3  -5   90.29   12.70
  -5   3  -5   94.59    9.90
  -5   3  -5  102.89   11.20
  -5   3  -5   78.99   11.20
   5  -3   5  106.69    9.40
   5  -3   5   81.99   11.30
   5  -3   5   66.69    9.90
   5  -3   5   91.29    9.20
  -6   3  -5   -0.90    9.60
  -6   3  -5   -0.10    5.20
  -6   3  -5   19.10   11.40
  -6   3  -5   -0.40    9.40
   6  -3   5   -1.70    7.90
   6  -3   5    9.00    5.20
   6  -3   5    1.00    4.70
   6  -3   5   -4.70   10.50
   6  -3   5   11.20    9.40
  -7   3  -5   -6.30   12.60
  -7   3  -5    4.00   11.00
   7  -3   5    3.10   13.20
   7  -3   5   -3.00   10.00
   7  -3   5   -4.20    7.10
   7  -3   5    7.90    4.40
   7  -3   5   11.80    6.20
  -8   3  -5    4.20    8.80
   8  -3   5   16.50   14.30
   8  -3   5   14.10    8.10
   7   2  -5  106.39   13.90
   7   2  -5   83.79   16.80
  -7  -2   5  112.59   13.70
  -7  -2   5   93.49   16.70
   6   2  -5   14.10    8.10
   6   2  -5    8.50    9.70
   6   2  -5    3.60    4.70
  -6  -2   5    4.30   10.50
  -6  -2   5   -3.30    7.60
   5   2  -5  234.98   12.60
   5   2  -5  245.38   16.50
   5   2  -5  225.28   18.00
  -5  -2   5  238.08   14.60
  -5  -2   5  222.48   18.70
  -5  -2   5  181.88   18.90
  -5  -2   5  233.28   23.60
  -5  -2   5  238.08   14.60
   4   2  -5   50.49    7.70
   4   2  -5   56.49    7.50
   4   2  -5   67.29   10.40
  -4  -2   5   57.69   10.80
  -4  -2   5   47.40    9.50
  -4  -2   5   58.69    7.70
  -4  -2   5   58.79    7.00
  -4  -2   5   60.09    9.80
   3   2  -5  123.79   14.70
   3   2  -5  138.19   10.60
   3   2  -5  112.49    8.90
  -3  -2   5  135.89   11.10
  -3  -2   5  113.29   14.20
  -3  -2   5  129.79    8.10
  -3  -2   5  134.79   12.90
  -3  -2   5  133.29   12.50
   2   2  -5 1042.10   37.20
   2   2  -5 1061.89   38.40
   2   2  -5 1129.29   36.40
   2   2  -5 1075.99   37.10
  -2  -2   5 1100.09   38.30
  -2  -2   5 1096.79   37.60
  -2  -2   5 1121.89   32.70
  -2  -2   5 1022.60   37.30
  -2  -2   5 1039.90   37.10
  -2  -2   5 1066.39   32.90
   1   2  -5  428.36   18.70
   1   2  -5  411.36   17.60
   1   2  -5  427.06   17.50
   1   2  -5  413.86   20.20
  -1  -2   5  407.26   16.10
  -1  -2   5  412.36   18.90
  -1  -2   5  433.16   18.90
  -1  -2   5  439.86   18.50
  -1  -2   5  422.56   17.80
   0   2  -5 1066.49   38.60
   0   2  -5 1082.79   37.20
   0   2  -5 1122.69   37.30
   0   2  -5 1102.49   37.10
   0  -2   5 1116.09   38.10
   0  -2   5 1123.29   38.10
   0  -2   5 1180.68   36.20
   0  -2   5 1090.79   37.70
  -1   2  -5  444.26   18.60
  -1   2  -5  434.86   20.00
  -1   2  -5  458.25   18.40
  -1   2  -5  441.06   17.90
  -1   2  -5  459.05   15.80
   1  -2   5  423.06   19.30
   1  -2   5  458.45   19.20
   1  -2   5  467.05   19.10
   1  -2   5  425.36   17.20
   1  -2   5  449.95   16.60
  -2   2  -5   24.30    5.20
  -2   2  -5   31.00    7.40
  -2   2  -5   24.00    4.40
  -2   2  -5   24.60    5.80
  -2   2  -5   12.60    3.80
   2  -2   5   21.70    3.90
   2  -2   5   30.40    4.40
   2  -2   5   22.40    5.70
   2  -2   5   19.40    4.10
   2  -2   5   21.20    5.60
  -3   2  -5  351.46   16.60
  -3   2  -5  363.06   17.00
  -3   2  -5  338.57   18.60
  -3   2  -5  380.06   16.20
   3  -2   5  349.47   14.90
   3  -2   5  355.76   16.10
   3  -2   5  357.16   17.20
   3  -2   5  378.66   16.90
  -4   2  -5  795.62   30.00
  -4   2  -5  815.32   28.80
  -4   2  -5  771.82   30.30
  -4   2  -5  786.82   31.20
   4  -2   5  822.32   29.60
   4  -2   5  794.32   29.30
   4  -2   5  774.42   28.10
   4  -2   5  814.72   28.60
  -5   2  -5   22.90    8.60
  -5   2  -5   14.60    4.90
  -5   2  -5   24.20    9.10
  -5   2  -5   15.30    8.70
   5  -2   5   17.80    7.00
   5  -2   5   26.20    5.50
   5  -2   5   17.60    7.40
   5  -2   5    7.20    4.20
  -6   2  -5   79.09    9.30
  -6   2  -5   62.09   11.40
  -6   2  -5   71.09   12.00
  -6   2  -5   59.49   12.10
   6  -2   5   55.89    6.50
   6  -2   5   51.19   10.40
   6  -2   5   86.19   10.40
   6  -2   5   58.99    8.20
  -7   2  -5  163.08   16.10
  -7   2  -5  148.29   19.70
  -7   2  -5  160.58   19.70
  -7   2  -5  159.18   17.60
   7  -2   5  151.38   18.30
   7  -2   5  135.99    8.60
   7  -2   5  163.68   13.90
   7  -2   5  161.28   20.80
  -8   2  -5  -18.60    9.50
   8  -2   5  -12.90    8.10
   8  -2   5    8.40   13.40
   7   1  -5  174.88   19.00
  -7  -1   5  155.38   17.90
  -7  -1   5  190.38   17.30
   6   1  -5   63.99    6.30
   6   1  -5   55.29   10.00
   6   1  -5   51.99    7.10
  -6  -1   5   39.30   11.30
  -6  -1   5   47.40    9.20
  -6  -1   5   62.99   13.40
  -6  -1   5   39.60   11.00
   5   1  -5  469.35   20.70
   5   1  -5  462.65   22.10
  -5  -1   5  464.75   20.30
  -5  -1   5  448.06   24.00
  -5  -1   5  440.06   27.80
  -5  -1   5  468.55   23.00
  -5  -1   5  489.65   26.20
   4   1  -5  918.61   34.00
   4   1  -5  879.31   33.30
   4   1  -5  963.20   31.10
  -4  -1   5  919.81   36.70
  -4  -1   5  908.81   31.40
  -4  -1   5  966.80   33.90
  -4  -1   5  914.61   35.30
  -4  -1   5  948.81   32.90
   3   1  -5    8.20    3.90
   3   1  -5   13.50    7.00
   3   1  -5   12.20    3.40
  -3  -1   5    5.50    4.40
  -3  -1   5   12.40    6.50
  -3  -1   5   17.60    6.80
  -3  -1   5   17.30    3.40
  -3  -1   5    5.20    6.90
  -3  -1   5   18.70    7.20
   2   1  -5  852.61   30.40
   2   1  -5  822.42   31.20
   2   1  -5  869.91   30.80
   2   1  -5  864.81   29.40
  -2  -1   5  859.61   30.50
  -2  -1   5  829.72   30.50
  -2  -1   5  901.11   27.00
  -2  -1   5  851.21   31.50
  -2  -1   5  870.01   27.00
   1   1  -5 1265.67   39.30
   1   1  -5 1164.88   40.40
   1   1  -5 1175.88   39.50
   1   1  -5 1217.98   39.60
  -1  -1   5 1189.48   40.10
  -1  -1   5 1176.98   40.20
  -1  -1   5 1171.48   39.90
  -1  -1   5 1171.98   37.40
  -1  -1   5 1240.58   39.10
   0   1  -5  123.79    8.20
   0   1  -5  115.19    7.90
   0   1  -5  107.49   11.00
   0   1  -5  115.59    9.50
   0  -1   5  125.39    8.70
   0  -1   5  102.39    8.00
   0  -1   5  115.69    9.50
   0  -1   5  115.39    7.50
   0  -1   5  118.19    9.00
   0  -1   5  104.89    9.90
  -1   1  -5 3505.65  102.69
  -1   1  -5 3387.56  102.39
  -1   1  -5 3442.16  103.39
  -1   1  -5 3491.95  102.09
   1  -1   5 3346.77  101.99
   1  -1   5 3487.85  100.09
   1  -1   5 3382.76  103.09
   1  -1   5 3318.17  101.69
   1  -1   5 3387.16  102.69
  -2   1  -5 1617.24   52.19
  -2   1  -5 1661.13   51.49
  -2   1  -5 1649.33   51.09
  -2   1  -5 1631.54   50.39
  -2   1  -5 1705.53   50.19
   2  -1   5 1629.94   50.39
   2  -1   5 1597.54   51.59
   2  -1   5 1350.76   51.89
   2  -1   5 1593.74   51.29
   2  -1   5 1615.14   47.80
  -3   1  -5  931.01   33.10
  -3   1  -5  909.11   31.50
  -3   1  -5  939.41   31.00
  -3   1  -5  938.21   32.30
  -3   1  -5  887.41   32.50
   3  -1   5  931.91   32.10
   3  -1   5  885.31   31.40
   3  -1   5  958.80   31.60
   3  -1   5  914.11   31.90
  -4   1  -5  542.75   24.10
  -4   1  -5  567.54   24.00
  -4   1  -5  601.04   24.70
  -4   1  -5  604.24   22.30
   4  -1   5  598.54   22.40
   4  -1   5  578.94   22.10
   4  -1   5  582.84   22.90
   4  -1   5  592.64   22.20
  -5   1  -5  110.89   13.50
  -5   1  -5   98.59   13.80
  -5   1  -5   99.29    8.80
  -5   1  -5  109.79   14.20
   5  -1   5  110.89   11.20
   5  -1   5  124.89   10.10
   5  -1   5  120.79    8.90
   5  -1   5  105.39   10.90
  -6   1  -5  354.76   22.50
  -6   1  -5  335.37   22.00
  -6   1  -5  322.47   20.00
  -6   1  -5  334.47   18.50
   6  -1   5  344.37   14.50
   6  -1   5  320.97   16.00
   6  -1   5  343.17   17.60
   6  -1   5  314.17   17.60
  -7   1  -5  265.77   26.60
  -7   1  -5  234.48   17.00
  -7   1  -5  248.78   22.00
  -7   1  -5  253.17   19.40
   7  -1   5  234.58   18.70
   7  -1   5  258.67   10.40
   7  -1   5  210.08   10.70
   7  -1   5  254.67   17.00
  -8   1  -5  -15.50   14.70
   8  -1   5    4.60    8.80
   8  -1   5    1.10   12.20
   8  -1   5   -3.80    6.90
  -9   1  -5   50.39   11.80
   9  -1   5   68.89   17.60
   9  -1   5   22.00   12.60
   7   0  -5  138.69   18.00
  -7   0   5  124.89   16.40
  -7   0   5  124.59   16.40
   6   0  -5   30.80    4.80
   6   0  -5    4.80    7.90
  -6   0   5   11.40    9.80
  -6   0   5   15.70    8.00
  -6   0   5   23.60    9.10
   5   0  -5  207.58   12.90
   5   0  -5  212.38   15.70
   5   0  -5  256.47   10.70
  -5   0   5  241.18   14.40
  -5   0   5  209.58   15.90
  -5   0   5  216.98   18.20
  -5   0   5  226.88   22.20
  -5   0   5  227.58   15.80
   4   0  -5  971.50   33.00
   4   0  -5  970.70   35.00
   4   0  -5  968.30   31.40
   4   0  -5  950.20   30.60
  -4   0   5  963.20   32.20
  -4   0   5 1014.80   34.00
  -4   0   5  930.91   32.60
  -4   0   5  959.80   37.30
  -4   0   5  914.21   35.40
   3   0  -5  494.65   17.20
   3   0  -5  469.35   21.10
   3   0  -5  479.45   20.10
   3   0  -5  487.65   20.30
   3   0  -5  505.85   18.50
  -3   0   5  487.35   17.80
  -3   0   5  483.55   19.60
  -3   0   5  479.55   21.40
  -3   0   5  498.15   18.10
  -3   0   5  474.55   20.20
  -3   0   5  488.55   22.80
   2   0  -5 3705.33  109.59
   2   0  -5 3686.53  107.59
   2   0  -5 3574.74  109.79
   2   0  -5 3514.85  109.19
   2   0  -5 3604.64  108.59
  -2   0   5 3913.01  110.09
  -2   0   5 3768.62  109.39
  -2   0   5 3581.14  106.69
  -2   0   5 3564.34  109.39
  -2   0   5 3864.91  110.89
  -2   0   5 3423.06  106.79
   1   0  -5 4780.12  136.59
   1   0  -5 4600.74  136.09
   1   0  -5 4567.54  135.49
   1   0  -5 4522.25  134.79
   1   0  -5 4542.45  135.59
  -1   0   5 4728.23  136.59
  -1   0   5 4566.04  136.39
  -1   0   5 4397.36  133.89
  -1   0   5 4616.54  135.09
  -1   0   5 4617.64  135.89
   0   0  -5   10.00    5.10
   0   0  -5    9.20    3.30
   0   0  -5    8.90    2.90
   0   0  -5    5.90    4.30
   0   0   5    5.30    5.10
   0   0   5    9.20    4.00
   0   0   5    7.80    4.30
   0   0   5    6.30    3.60
   0   0   5    5.00    3.50
   0   0   5   12.10    3.10
  -1   0  -5 6321.57  203.48
  -1   0  -5 6814.82  202.78
  -1   0  -5 7021.30  201.58
  -1   0  -5 6927.91  200.78
   1   0   5 7499.25  199.38
   1   0   5 7024.00  201.58
   1   0   5 6957.50  200.78
   1   0   5 6992.50  201.18
   1   0   5 6603.84  201.48
   1   0   5 6872.71  202.18
  -2   0  -5 1785.22   55.99
  -2   0  -5 1744.73   55.39
  -2   0  -5 1803.82   54.29
  -2   0  -5 1665.13   55.99
   2   0   5 1794.52   52.49
   2   0   5 1801.52   55.59
   2   0   5 1711.33   54.99
   2   0   5 1784.02   54.39
   2   0   5 1771.22   56.79
   2   0   5 1813.62   56.09
  -3   0  -5  549.95   22.20
  -3   0  -5  532.65   20.70
  -3   0  -5  572.94   19.60
  -3   0  -5  562.14   22.50
   3   0   5  516.85   20.90
   3   0   5  547.95   20.00
   3   0   5  567.74   21.20
   3   0   5  575.54   21.30
   3   0   5  550.04   17.80
  -4   0  -5 1379.06   45.10
  -4   0  -5 1441.96   46.20
  -4   0  -5 1376.26   47.10
  -4   0  -5 1380.36   47.40
   4   0   5 1398.46   41.20
   4   0   5 1411.26   43.70
   4   0   5 1361.06   44.80
   4   0   5 1384.16   45.80
   4   0   5 1396.96   45.10
  -5   0  -5  311.77   19.20
  -5   0  -5  306.07   14.40
  -5   0  -5  291.67   17.00
  -5   0  -5  312.77   19.90
   5   0   5  303.37   15.40
   5   0   5  316.17   14.30
   5   0   5  338.37   14.60
   5   0   5  327.37   16.10
  -6   0  -5   21.20    6.60
  -6   0  -5    3.40    8.00
  -6   0  -5   -5.80    8.90
  -6   0  -5    4.30   10.50
   6   0   5    8.50    4.10
   6   0   5    4.50    5.60
   6   0   5    5.20    5.60
   6   0   5    4.60    5.50
  -7   0  -5  305.17   20.10
  -7   0  -5  327.87   18.40
  -7   0  -5  318.97   27.50
  -7   0  -5  304.47   22.10
   7   0   5  315.57   12.40
   7   0   5  284.67   21.90
  -8   0  -5   11.20   11.60
   8   0   5   -0.70    5.80
   8   0   5   12.50    9.50
   9   0   5   59.89   17.50
   9   0   5   50.79   14.10
   7  -1  -5   65.79    7.30
   7  -1  -5   67.69   11.90
   7  -1  -5   75.19   13.10
  -7   1   5   63.49   11.40
  -7   1   5   68.09   14.40
   6  -1  -5  125.29   15.20
   6  -1  -5  125.99   16.20
   6  -1  -5  171.08   10.60
  -6   1   5  155.68   14.70
  -6   1   5  177.68   14.20
  -6   1   5  143.29   13.90
  -6   1   5  144.09   15.30
   5  -1  -5   69.89    8.40
   5  -1  -5   74.99   10.90
   5  -1  -5   77.39    9.80
   5  -1  -5   77.29    5.60
   5  -1  -5   78.79    7.50
  -5   1   5   68.59   10.40
  -5   1   5   67.89   10.30
  -5   1   5   74.69    9.20
  -5   1   5   78.19   10.00
  -5   1   5   76.19    9.40
  -5   1   5   61.49   13.10
   4  -1  -5 1284.77   43.60
   4  -1  -5 1282.67   44.30
   4  -1  -5 1295.97   40.50
   4  -1  -5 1273.97   40.00
   4  -1  -5 1263.17   41.10
  -4   1   5 1287.27   42.10
  -4   1   5 1296.27   42.90
  -4   1   5 1211.98   44.30
  -4   1   5 1322.37   46.90
  -4   1   5 1273.77   41.90
   3  -1  -5    3.70    5.50
   3  -1  -5    0.90    2.60
   3  -1  -5    0.40    2.70
   3  -1  -5   -8.30    4.60
   3  -1  -5    0.50    3.80
  -3   1   5    6.00    3.90
  -3   1   5    4.80    4.50
  -3   1   5    1.70    3.70
  -3   1   5    3.50    5.90
  -3   1   5    4.60    5.20
  -3   1   5   -0.90    6.80
   2  -1  -5 3031.50   91.09
   2  -1  -5 2950.30   90.89
   2  -1  -5 3005.10   89.99
   2  -1  -5 2961.10   91.99
   2  -1  -5 3000.40   90.59
  -2   1   5 3106.09   91.69
  -2   1   5 3039.30   91.29
  -2   1   5 3049.89   89.99
  -2   1   5 3082.29   92.79
  -2   1   5 3023.80   91.59
   1  -1  -5 2291.37   69.49
   1  -1  -5 2131.59   68.89
   1  -1  -5 2293.17   68.89
   1  -1  -5 2267.37   68.39
   1  -1  -5 2285.67   69.39
  -1   1   5 2347.27   70.09
  -1   1   5 2256.17   68.69
  -1   1   5 2121.19   68.89
  -1   1   5 2291.27   69.59
  -1   1   5 2292.17   68.69
  -1   1   5 2202.58   67.69
   0  -1  -5  826.12   27.50
   0  -1  -5  866.71   28.90
   0  -1  -5  716.83   29.20
   0  -1  -5  791.62   27.60
   0  -1  -5  886.91   28.10
   0   1   5  854.61   28.50
   0   1   5  797.92   27.20
   0   1   5  839.62   28.10
   0   1   5  817.02   26.80
   0   1   5  787.92   27.20
   0   1   5  677.13   29.30
  -1  -1  -5 3247.18   96.89
  -1  -1  -5 3199.78   97.09
  -1  -1  -5 3390.76   96.59
  -1  -1  -5 3192.98   95.29
   1   1   5 2978.40   98.09
   1   1   5 3125.79   95.99
   1   1   5 3146.49   95.39
   1   1   5 3330.97   94.39
   1   1   5 3321.07   97.09
   1   1   5 3192.08   96.29
  -2  -1  -5   97.49    6.10
  -2  -1  -5   93.59    9.60
  -2  -1  -5  101.29    9.80
  -2  -1  -5   96.79    7.60
   2   1   5  111.69    7.50
   2   1   5  100.79    8.90
   2   1   5  101.29    7.80
   2   1   5   99.39    6.70
   2   1   5  108.99    9.70
   2   1   5   89.79    7.10
  -3  -1  -5  355.16   12.70
  -3  -1  -5  324.67   14.60
  -3  -1  -5  339.87   16.10
   3   1   5  325.07   15.40
   3   1   5  344.77   15.20
   3   1   5  340.67   13.30
   3   1   5  320.77   17.40
   3   1   5  354.36   15.00
  -4  -1  -5 2837.22   86.79
  -4  -1  -5 2666.93   88.19
  -4  -1  -5 2955.30   88.79
  -4  -1  -5 2859.31   86.39
   4   1   5 2888.01   83.59
   4   1   5 2873.51   87.69
   4   1   5 2844.82   86.49
   4   1   5 2794.12   88.99
   4   1   5 2832.12   85.99
  -5  -1  -5   69.89    8.90
  -5  -1  -5   70.59    7.70
  -5  -1  -5   71.69   11.60
  -5  -1  -5   75.19   11.40
   5   1   5   66.79    7.80
   5   1   5   74.69    9.30
   5   1   5   73.29    7.20
   5   1   5   72.19   11.70
   5   1   5   66.19    8.00
  -6  -1  -5 1015.10   36.00
  -6  -1  -5  970.00   40.30
  -6  -1  -5 1024.10   40.80
   6   1   5 1006.50   33.50
   6   1   5 1005.70   37.60
   6   1   5  985.50   31.50
   6   1   5  976.20   33.60
   6   1   5  953.90   40.70
  -7  -1  -5  161.98   20.10
  -7  -1  -5  199.68   17.50
  -7  -1  -5  186.08   16.40
   7   1   5  182.98   10.10
   7   1   5  182.88    9.30
   7   1   5  189.78   11.20
   7   1   5  190.58   12.50
   7   1   5  175.18   16.30
  -8  -1  -5   -2.50   12.70
   8   1   5   10.60   10.10
  -9  -1  -5   12.40   10.30
   9   1   5  -11.80   13.20
   7  -2  -5  147.49   18.10
   7  -2  -5  131.19   15.50
   7  -2  -5  150.68   12.70
  -7   2   5  142.39   18.10
  -7   2   5  107.19   14.10
   6  -2  -5   10.00   11.20
   6  -2  -5   14.30    8.30
   6  -2  -5   18.90    5.60
  -6   2   5   12.80    7.80
  -6   2   5    7.70   10.50
  -6   2   5   22.80   13.00
  -6   2   5   -3.60    7.00
   5  -2  -5  526.65   17.20
   5  -2  -5  518.65   24.80
   5  -2  -5  527.55   20.70
   5  -2  -5  503.85   24.00
   5  -2  -5  530.45   20.00
  -5   2   5  545.55   22.20
  -5   2   5  530.55   25.50
  -5   2   5  532.55   22.50
  -5   2   5  515.45   22.90
  -5   2   5  511.65   26.10
   4  -2  -5  443.76   17.40
   4  -2  -5  424.36   19.80
   4  -2  -5  424.56   17.50
   4  -2  -5  434.06   16.20
   4  -2  -5  408.46   20.20
  -4   2   5  405.46   20.90
  -4   2   5  458.15   19.30
  -4   2   5  449.76   24.50
  -4   2   5  450.95   18.50
  -4   2   5  429.46   19.60
  -4   2   5  429.66   21.30
   3  -2  -5  353.46   14.70
   3  -2  -5  362.26   16.70
   3  -2  -5  365.56   16.40
   3  -2  -5  356.26   17.10
   3  -2  -5  370.76   15.00
  -3   2   5  356.16   17.80
  -3   2   5  358.76   15.10
  -3   2   5  357.66   16.60
  -3   2   5  397.86   16.30
  -3   2   5  354.46   16.90
  -3   2   5  385.26   20.40
   2  -2  -5   84.29    9.20
   2  -2  -5   78.59    6.50
   2  -2  -5   80.19    8.60
   2  -2  -5   77.79    6.80
   2  -2  -5   68.19    7.10
  -2   2   5   87.99    9.60
  -2   2   5   69.99    7.70
  -2   2   5   84.39    8.40
  -2   2   5   72.79    7.30
  -2   2   5   79.09    8.70
  -2   2   5   89.99    6.80
   1  -2  -5   16.10    3.50
   1  -2  -5    9.90    4.60
   1  -2  -5   18.30    5.20
   1  -2  -5   11.00    3.70
   1  -2  -5   15.40    3.70
  -1   2   5   20.50    3.50
  -1   2   5   13.40    4.80
  -1   2   5    8.30    4.40
  -1   2   5    8.40    5.00
  -1   2   5   14.80    4.00
   0  -2  -5  131.79    7.90
   0  -2  -5  132.69    7.90
   0  -2  -5  118.69   10.20
   0  -2  -5  135.89    8.20
   0  -2  -5  135.59    9.60
   0   2   5  115.49    9.40
   0   2   5  124.89    8.60
   0   2   5  122.59    8.90
   0   2   5  114.19    7.30
   0   2   5  130.79    8.40
   0   2   5  102.19    9.60
  -1  -2  -5  462.65   20.00
  -1  -2  -5  505.05   19.40
  -1  -2  -5  495.55   19.60
  -1  -2  -5  499.65   18.10
   1   2   5  482.85   19.40
   1   2   5  507.15   19.60
   1   2   5  512.95   19.80
   1   2   5  509.25   19.00
   1   2   5  511.95   17.90
   1   2   5  541.05   18.90
  -2  -2  -5  546.95   18.20
  -2  -2  -5  527.05   21.20
  -2  -2  -5  496.15   21.10
  -2  -2  -5  540.85   20.40
  -2  -2  -5  516.55   21.40
   2   2   5  530.95   21.00
   2   2   5  541.75   21.10
   2   2   5  548.95   20.40
   2   2   5  543.15   18.50
   2   2   5  523.55   20.60
   2   2   5  526.05   18.70
  -3  -2  -5  307.37   11.10
  -3  -2  -5  319.47   15.60
  -3  -2  -5  306.57   14.10
  -3  -2  -5  301.07   16.60
   3   2   5  305.87   14.50
   3   2   5  308.17   14.20
   3   2   5  323.87   15.20
   3   2   5  296.67   11.70
   3   2   5  276.07   15.80
  -4  -2  -5  149.49   15.00
  -4  -2  -5  147.89   12.30
  -4  -2  -5  157.88   10.20
   4   2   5  154.58   11.90
   4   2   5  160.28    7.10
   4   2   5  150.18   11.10
   4   2   5  178.38   14.00
   4   2   5  153.08   10.20
  -5  -2  -5    5.40    4.20
  -5  -2  -5   -0.10    6.90
  -5  -2  -5    1.00    7.90
  -5  -2  -5    2.00    8.70
   5   2   5   -2.30    5.10
   5   2   5    1.20    4.00
   5   2   5    2.10    6.00
   5   2   5   -5.20    7.70
  -6  -2  -5  211.68   23.80
  -6  -2  -5  214.28   19.20
  -6  -2  -5  235.18   13.10
  -6  -2  -5  222.28   16.90
   6   2   5  231.18   13.10
   6   2   5  214.78   20.40
   6   2   5  216.08   14.30
  -7  -2  -5   50.29   11.00
  -7  -2  -5   71.39   14.30
   7   2   5   73.39   11.30
   7   2   5   97.19   12.20
   7   2   5   76.69   16.00
   7   2   5   77.89    9.00
  -8  -2  -5   16.40   10.00
   8   2   5   13.70   10.90
  -9  -2  -5   40.00   12.90
   9   2   5   52.39   15.90
   7  -3  -5    9.00    7.40
   7  -3  -5    6.20    8.90
   7  -3  -5   -5.50   10.30
  -7   3   5  -17.60   12.10
  -7   3   5   12.80    6.80
   6  -3  -5  126.39   14.30
   6  -3  -5  142.49   19.50
   6  -3  -5  124.09   12.00
  -6   3   5  119.99   18.30
  -6   3   5  120.29   14.80
  -6   3   5  124.89   14.90
  -6   3   5  141.69   14.20
   5  -3  -5  611.24   23.80
   5  -3  -5  618.34   25.70
   5  -3  -5  625.14   21.20
   5  -3  -5  601.44   27.70
   5  -3  -5  610.44   20.10
  -5   3   5  581.74   30.60
  -5   3   5  596.74   24.40
  -5   3   5  607.94   25.40
  -5   3   5  600.64   27.70
  -5   3   5  584.74   24.50
   4  -3  -5   -1.80    5.20
   4  -3  -5   -6.20    5.50
   4  -3  -5    0.40    6.40
   4  -3  -5    0.10    3.80
   4  -3  -5   -1.70    3.40
  -4   3   5   -2.50    6.50
  -4   3   5   22.00    6.50
  -4   3   5   -3.00    4.30
  -4   3   5   -3.60    8.00
  -4   3   5    2.80    7.30
   3  -3  -5  541.45   21.30
   3  -3  -5  546.85   20.70
   3  -3  -5  574.94   21.20
   3  -3  -5  564.24   21.80
   3  -3  -5  571.64   23.70
  -3   3   5  532.75   21.50
  -3   3   5  543.65   20.60
  -3   3   5  559.24   23.70
  -3   3   5  557.84   23.10
  -3   3   5  552.64   22.30
   2  -3  -5 1431.76   45.60
   2  -3  -5 1445.56   47.50
   2  -3  -5 1414.36   45.30
   2  -3  -5 1422.86   45.50
   2  -3  -5 1396.16   45.90
  -2   3   5 1448.76   46.30
  -2   3   5 1383.26   46.20
  -2   3   5 1434.86   48.30
  -2   3   5 1435.96   46.50
  -2   3   5 1425.76   46.30
   1  -3  -5  307.67   14.90
   1  -3  -5  283.17   13.80
   1  -3  -5  307.77   13.60
   1  -3  -5  292.57   13.70
   1  -3  -5  300.07   13.20
  -1   3   5  280.77   14.60
  -1   3   5  293.57   13.90
  -1   3   5  290.87   14.10
  -1   3   5  294.47   13.80
  -1   3   5  294.07   12.30
  -1   3   5  286.97   15.50
   0  -3  -5 1291.47   41.60
   0  -3  -5 1224.28   40.70
   0  -3  -5 1291.97   40.50
   0  -3  -5 1217.68   40.50
   0  -3  -5 1238.18   40.50
   0   3   5 1209.48   39.70
   0   3   5 1264.57   41.00
   0   3   5 1265.67   40.40
   0   3   5 1172.68   40.80
   0   3   5 1212.58   40.90
   0   3   5 1289.67   39.80
  -1  -3  -5 2333.37   73.09
  -1  -3  -5 2433.96   73.19
  -1  -3  -5 2286.67   72.89
  -1  -3  -5 2443.56   71.69
  -1  -3  -5 2409.86   73.59
   1   3   5 2444.16   71.29
   1   3   5 2423.66   73.59
   1   3   5 2427.16   71.89
   1   3   5 2312.37   72.99
   1   3   5 2287.57   72.49
   1   3   5 2286.37   72.39
  -2  -3  -5  117.19    6.40
  -2  -3  -5  111.29   11.30
  -2  -3  -5  124.69    9.10
  -2  -3  -5  101.29   10.70
  -2  -3  -5   92.39    8.10
   2   3   5   93.59   10.90
   2   3   5  113.19    8.50
   2   3   5   89.59    7.40
   2   3   5  103.99    8.20
  -3  -3  -5 1530.65   49.30
  -3  -3  -5 1512.95   48.80
  -3  -3  -5 1511.45   50.19
  -3  -3  -5 1471.25   50.49
   3   3   5 1526.35   49.00
   3   3   5 1513.35   49.70
   3   3   5 1473.85   49.00
   3   3   5 1459.45   48.90
  -4  -3  -5 1931.31   65.19
  -4  -3  -5 1930.31   62.19
  -4  -3  -5 1917.21   62.49
   4   3   5 1969.10   63.99
   4   3   5 2009.20   62.59
   4   3   5 2052.59   62.39
   4   3   5 1946.01   63.19
  -5  -3  -5    6.70   10.20
  -5  -3  -5    9.80    5.20
  -5  -3  -5    6.20    7.50
  -5  -3  -5   -2.80    7.60
   5   3   5   11.80    4.90
   5   3   5   -0.30    7.70
   5   3   5    5.30    6.10
   5   3   5    8.10    6.90
  -6  -3  -5  413.16   25.50
  -6  -3  -5  450.05   20.00
  -6  -3  -5  426.46   23.10
   6   3   5  418.86   22.80
   6   3   5  441.36   19.40
   6   3   5  391.56   23.90
   6   3   5  406.76   20.90
  -7  -3  -5  211.08   14.60
  -7  -3  -5  194.78   22.10
   7   3   5  208.88   19.10
   7   3   5  214.98   23.20
   7   3   5  184.58   13.50
   7   3   5  187.38   16.30
  -8  -3  -5   19.50   10.70
   8   3   5   15.60    5.60
   8   3   5   30.90   12.30
   7  -4  -5   18.90    8.60
   7  -4  -5   32.60   13.40
  -7   4   5   19.40   14.10
  -7   4   5    8.80    5.90
   6  -4  -5  112.99   13.20
   6  -4  -5  118.49   14.50
   6  -4  -5  102.19   13.70
   6  -4  -5   99.19   12.20
  -6   4   5   95.09   11.70
  -6   4   5   99.49   13.20
  -6   4   5  104.69   15.20
   5  -4  -5   84.59   10.00
   5  -4  -5   85.69    7.70
   5  -4  -5   94.19   10.80
   5  -4  -5   68.29   10.50
   5  -4  -5   86.29   10.50
  -5   4   5   96.59   11.00
  -5   4   5  101.59   13.40
  -5   4   5   89.29   10.20
  -5   4   5  128.89   15.00
  -5   4   5   85.49   15.90
   4  -4  -5    6.50    4.70
   4  -4  -5    0.80    4.10
   4  -4  -5    0.40    5.70
   4  -4  -5    2.60    6.20
  -4   4   5    1.00    7.20
  -4   4   5    8.90    8.20
  -4   4   5    2.90    4.80
  -4   4   5    1.90    4.70
  -4   4   5    5.00    9.80
   3  -4  -5   79.29    8.00
   3  -4  -5   58.59    7.20
   3  -4  -5   55.19    7.90
   3  -4  -5   84.39   10.00
   3  -4  -5   77.29    8.50
  -3   4   5   69.89    8.90
  -3   4   5   94.09   11.80
  -3   4   5   73.19    8.20
  -3   4   5   87.09   11.10
  -3   4   5   77.59    8.60
   2  -4  -5 1451.65   46.50
   2  -4  -5 1404.46   48.00
   2  -4  -5 1430.56   47.00
   2  -4  -5 1465.65   46.60
   2  -4  -5 1436.56   45.40
  -2   4   5 1424.26   47.90
  -2   4   5 1414.26   47.20
  -2   4   5 1411.46   47.10
  -2   4   5 1409.26   44.50
  -2   4   5 1436.86   46.70
   1  -4  -5  350.06   15.90
   1  -4  -5  340.17   15.10
   1  -4  -5  366.06   17.60
   1  -4  -5  330.17   15.30
   1  -4  -5  337.77   15.10
  -1   4   5  363.16   14.00
  -1   4   5  317.27   16.90
  -1   4   5  326.37   15.80
  -1   4   5  355.76   16.20
  -1   4   5  348.77   16.70
   0  -4  -5  985.50   33.70
   0  -4  -5  913.41   32.50
   0  -4  -5  890.41   32.10
   0  -4  -5  983.80   32.40
   0   4   5  946.21   33.20
   0   4   5  924.61   31.40
   0   4   5  890.91   32.10
   0   4   5  975.40   33.60
   0   4   5  932.01   31.30
  -1  -4  -5 2954.30   88.39
  -1  -4  -5 2873.31   88.49
  -1  -4  -5 2913.31   88.39
  -1  -4  -5 2899.71   88.79
  -1  -4  -5 2824.82   86.79
   1   4   5 2966.90   87.89
   1   4   5 2837.82   88.69
   1   4   5 2875.21   88.89
   1   4   5 2862.01   87.59
  -2  -4  -5   92.69    9.20
  -2  -4  -5   90.09   11.60
  -2  -4  -5  126.99    9.40
  -2  -4  -5  104.29   12.30
  -2  -4  -5  117.39    7.00
   2   4   5  143.89   10.60
   2   4   5  125.39   11.10
   2   4   5  121.09    9.50
   2   4   5  113.59    9.10
  -3  -4  -5 2294.07   72.09
  -3  -4  -5 2092.19   71.69
  -3  -4  -5 2326.57   73.09
  -3  -4  -5 2349.17   67.49
  -3  -4  -5 2271.27   73.49
   3   4   5 2393.96   72.49
   3   4   5 2412.56   73.09
   3   4   5 2249.57   72.09
   3   4   5 2222.48   71.39
  -4  -4  -5 1174.38   44.00
  -4  -4  -5 1188.68   41.00
  -4  -4  -5 1158.08   41.80
   4   4   5 1265.27   41.60
   4   4   5 1161.88   42.50
   4   4   5 1169.08   40.90
   4   4   5 1210.28   42.10
  -5  -4  -5  127.39   14.70
  -5  -4  -5  101.19   12.10
  -5  -4  -5  112.39   10.50
  -5  -4  -5  101.99   14.60
   5   4   5  104.29   11.50
   5   4   5  148.19   21.00
   5   4   5   86.79   10.90
   5   4   5  118.69   11.20
  -6  -4  -5  470.05   28.00
  -6  -4  -5  517.45   22.50
   6   4   5  448.36   25.00
   6   4   5  486.75   24.40
   6   4   5  470.75   22.30
   6   4   5  494.35   25.60
  -7  -4  -5  222.08   16.30
  -7  -4  -5  227.48   21.80
   7   4   5  232.68   16.20
   7   4   5  192.88   19.70
   7   4   5  232.48   23.20
  -8  -4  -5   -5.70    9.30
   8   4   5   22.90   13.70
   8   4   5   17.70    7.60
   7  -5  -5    9.60   13.70
   7  -5  -5   31.60   10.80
  -7   5   5   17.40   15.10
  -7   5   5    3.10    5.80
   6  -5  -5    2.10   10.10
   6  -5  -5   -1.50    7.50
  -6   5   5   -4.30   11.90
  -6   5   5  -11.60    5.20
   5  -5  -5   86.59   11.90
   5  -5  -5   82.49   12.20
   5  -5  -5   76.69    9.00
   5  -5  -5   67.29    8.80
   5  -5  -5   71.39    9.00
  -5   5   5   78.49    9.00
  -5   5   5   52.69   11.70
  -5   5   5   77.29    9.70
   4  -5  -5  302.97   19.30
   4  -5  -5  293.37   15.20
   4  -5  -5  305.77   17.90
   4  -5  -5  315.27   15.10
  -4   5   5  287.47   15.80
  -4   5   5  300.67   15.30
  -4   5   5  292.57   19.50
  -4   5   5  306.87   25.40
  -4   5   5  317.87   19.10
   3  -5  -5   21.60    5.70
   3  -5  -5   31.70    5.90
   3  -5  -5   32.50    7.40
   3  -5  -5   29.70    8.10
   3  -5  -5   27.20    5.90
  -3   5   5   18.10    8.50
  -3   5   5   21.90    9.50
  -3   5   5   24.30    8.10
  -3   5   5   37.80    6.70
   2  -5  -5  484.95   22.20
   2  -5  -5  486.15   20.60
   2  -5  -5  488.65   19.70
   2  -5  -5  520.75   22.60
   2  -5  -5  533.55   21.20
  -2   5   5  551.34   22.00
  -2   5   5  495.95   22.90
  -2   5   5  496.05   23.90
  -2   5   5  500.05   18.20
  -2   5   5  503.05   21.60
   1  -5  -5  585.74   23.00
   1  -5  -5  567.74   22.20
   1  -5  -5  556.94   22.50
   1  -5  -5  565.44   21.80
   1  -5  -5  548.75   24.10
  -1   5   5  554.84   23.10
  -1   5   5  565.64   20.10
  -1   5   5  536.55   22.10
  -1   5   5  572.74   24.10
  -1   5   5  522.35   23.80
   0  -5  -5  217.68   12.70
   0  -5  -5  192.38   11.60
   0  -5  -5  220.78   15.50
   0  -5  -5  199.88   13.40
   0  -5  -5  200.48   11.60
   0   5   5  213.08   11.70
   0   5   5  224.18   13.00
   0   5   5  207.58   10.90
   0   5   5  202.28   13.70
   0   5   5  229.38   15.10
  -1  -5  -5  824.32   30.80
  -1  -5  -5  848.22   30.30
  -1  -5  -5  809.62   31.30
  -1  -5  -5  843.72   31.00
  -1  -5  -5  843.02   29.00
   1   5   5  816.02   29.50
   1   5   5  821.82   31.90
   1   5   5  829.72   30.40
   1   5   5  834.42   30.90
  -2  -5  -5  181.88   12.00
  -2  -5  -5  166.08   15.60
  -2  -5  -5  179.68   15.20
  -2  -5  -5  176.48    9.50
  -2  -5  -5  175.68   11.60
   2   5   5  190.88   11.90
   2   5   5  183.98   12.70
   2   5   5  158.18   11.90
   2   5   5  182.78   15.10
  -3  -5  -5  133.69   11.20
  -3  -5  -5  140.99   11.50
  -3  -5  -5  142.29   16.70
  -3  -5  -5  151.38    7.30
  -3  -5  -5  126.39   13.40
   3   5   5  143.79   11.60
   3   5   5  152.18   15.50
   3   5   5  144.39   11.70
   3   5   5  123.89   12.50
  -4  -5  -5  193.28   19.30
  -4  -5  -5  198.08   13.70
  -4  -5  -5  184.88   14.40
  -4  -5  -5  186.78   17.20
   4   5   5  195.78   13.40
   4   5   5  193.38   15.10
   4   5   5  202.18   15.10
   4   5   5  215.08   18.50
  -5  -5  -5   13.30    6.80
   5   5   5   10.70    7.60
   5   5   5   11.90   10.50
   5   5   5   18.20    6.30
   5   5   5   19.20    8.90
  -6  -5  -5  156.48   20.10
  -6  -5  -5  162.98   14.90
   6   5   5  137.09   18.40
   6   5   5  168.98   21.20
   6   5   5  137.49   13.70
   6   5   5  155.28   17.40
  -7  -5  -5   15.60   10.30
  -7  -5  -5   10.80   12.90
   7   5   5   21.10   13.20
   7   5   5   -6.60    7.50
   7   5   5   21.20   11.70
  -8  -5  -5    8.90    9.90
   8   5   5    0.70    8.70
   8   5   5   10.30   13.90
   6  -6  -5   30.80   10.60
   6  -6  -5   48.60   14.50
   6  -6  -5   52.19    5.90
  -6   6   5   54.29    8.20
  -6   6   5   52.09   15.10
   5  -6  -5   25.80    8.60
   5  -6  -5   31.60   10.30
   5  -6  -5   49.80    7.40
  -5   6   5   30.50    8.50
  -5   6   5   17.00   11.60
   4  -6  -5   36.90    9.30
   4  -6  -5   33.50    7.20
   4  -6  -5   29.70    7.60
   4  -6  -5   34.80    9.90
   4  -6  -5   33.30    6.10
  -4   6   5   28.60    7.80
  -4   6   5   24.40    9.70
   3  -6  -5  644.74   26.60
   3  -6  -5  641.14   28.60
   3  -6  -5  625.54   23.10
   3  -6  -5  650.53   28.70
  -3   6   5  688.43   27.60
  -3   6   5  636.54   38.40
  -3   6   5  675.53   27.60
   2  -6  -5   25.00    6.00
   2  -6  -5   25.10    9.30
   2  -6  -5   16.70    5.50
   2  -6  -5   21.50    6.70
   2  -6  -5   26.80    6.40
  -2   6   5   26.60    9.30
  -2   6   5   19.20    7.30
  -2   6   5   32.00    6.80
  -2   6   5   24.30   10.40
  -2   6   5   21.30    3.90
   1  -6  -5  319.37   16.80
   1  -6  -5  341.57   16.50
   1  -6  -5  330.77   17.00
   1  -6  -5  300.07   19.50
   1  -6  -5  308.97   16.00
  -1   6   5  319.67   13.50
  -1   6   5  300.57   16.20
  -1   6   5  298.77   16.60
  -1   6   5  283.27   18.30
  -1   6   5  317.37   19.90
   0  -6  -5   63.19    9.90
   0  -6  -5   93.09    9.10
   0  -6  -5   84.39    9.70
   0  -6  -5   62.19    8.60
   0  -6  -5   75.99    8.90
   0   6   5   76.39    8.60
   0   6   5   85.39   10.60
   0   6   5   72.39   11.00
   0   6   5   98.69    8.10
   0   6   5   93.29    9.40
  -1  -6  -5   57.89    8.60
  -1  -6  -5   55.59    7.80
  -1  -6  -5   50.29    9.10
  -1  -6  -5   70.69    9.40
  -1  -6  -5   54.89   10.60
   1   6   5   88.29   12.20
   1   6   5   64.19    8.60
   1   6   5   69.49   11.10
   1   6   5   67.49    8.20
  -2  -6  -5  163.78   16.90
  -2  -6  -5  168.28   12.40
  -2  -6  -5  146.59   11.40
  -2  -6  -5  166.18    9.90
  -2  -6  -5  140.79   16.70
   2   6   5  159.58   15.70
   2   6   5  169.68   13.20
   2   6   5  167.98   12.10
   2   6   5  132.69   13.40
  -3  -6  -5  229.58   15.00
  -3  -6  -5  253.77   21.10
  -3  -6  -5  226.98   14.40
  -3  -6  -5  230.88   11.00
  -3  -6  -5  232.38   19.20
   3   6   5  228.48   15.80
   3   6   5  218.88   15.00
   3   6   5  226.38   15.40
   3   6   5  222.88   19.90
  -4  -6  -5   -6.40    5.80
  -4  -6  -5   -5.50    6.00
  -4  -6  -5    1.50    3.30
  -4  -6  -5   10.50    3.40
   4   6   5   -1.00    7.60
   4   6   5    6.80    6.50
   4   6   5    3.00    6.60
   4   6   5   -2.30   10.50
  -5  -6  -5    8.30    7.50
   5   6   5    7.60    7.90
   5   6   5    6.00    9.20
   5   6   5    5.30    6.80
   5   6   5   -0.40   12.50
  -6  -6  -5   36.00    9.30
  -6  -6  -5   27.40   12.30
   6   6   5   31.60    8.30
   6   6   5   19.80   14.80
   6   6   5   27.80   11.60
   6   6   5   23.50   10.00
  -7  -6  -5   -4.00    9.50
   7   6   5    0.70   12.60
   7   6   5   19.10    9.10
   6  -7  -5   39.20   12.40
   6  -7  -5   52.89   15.90
  -6   7   5   50.99    8.90
  -6   7   5   35.20   15.50
   5  -7  -5  -12.40    6.70
   5  -7  -5   -4.00    8.10
   5  -7  -5   18.90   11.70
  -5   7   5    1.50   11.60
   4  -7  -5  166.08   20.70
   4  -7  -5  168.08   15.20
   4  -7  -5  216.98   18.80
   4  -7  -5  173.18   14.80
  -4   7   5  179.48   16.60
  -4   7   5  137.49   14.40
   3  -7  -5   81.89   11.90
   3  -7  -5   85.69    8.50
   3  -7  -5   80.99   13.90
   3  -7  -5   88.09   12.10
   3  -7  -5   82.89   11.70
  -3   7   5  101.39   11.90
  -3   7   5   94.39   12.80
   2  -7  -5    3.60    6.60
   2  -7  -5   10.60    6.50
   2  -7  -5   11.60    6.10
   2  -7  -5    0.90    6.30
   2  -7  -5   19.90   11.20
  -2   7   5    6.70    3.30
  -2   7   5    8.90    7.90
  -2   7   5   13.60    6.90
   1  -7  -5  190.28   14.40
   1  -7  -5  181.18   13.30
   1  -7  -5  192.08   19.80
   1  -7  -5  177.78   13.70
  -1   7   5  182.78   14.40
  -1   7   5  162.88   13.90
  -1   7   5  198.58   10.50
   0  -7  -5  561.14   27.80
   0  -7  -5  546.65   24.00
   0  -7  -5  471.25   22.50
   0   7   5  501.25   26.40
   0   7   5  568.74   25.00
   0   7   5  495.65   27.60
   0   7   5  544.15   21.10
  -1  -7  -5    7.90    4.60
  -1  -7  -5    1.70    6.10
  -1  -7  -5   -9.00    8.80
  -1  -7  -5   -4.70    8.20
  -1  -7  -5    2.60    5.20
   1   7   5    1.00    5.90
   1   7   5    7.50   10.80
   1   7   5   -3.20    4.50
   1   7   5    9.40    8.60
  -2  -7  -5  289.87   17.10
  -2  -7  -5  282.57   21.90
  -2  -7  -5  287.97   14.60
  -2  -7  -5  286.47   16.50
  -2  -7  -5  275.77   22.60
   2   7   5  268.77   21.10
   2   7   5  291.07   16.50
   2   7   5  312.97   24.00
   2   7   5  301.27   19.60
  -3  -7  -5   98.59   12.80
  -3  -7  -5   94.69   15.30
  -3  -7  -5   98.79   12.80
  -3  -7  -5   93.09    8.60
   3   7   5   89.39   11.60
   3   7   5  106.89   15.90
   3   7   5  108.09   13.80
   3   7   5   88.59   14.80
  -4  -7  -5   41.90    9.50
  -4  -7  -5   35.20    4.30
  -4  -7  -5   37.00    5.80
  -4  -7  -5   33.40    9.00
   4   7   5   31.60    8.20
   4   7   5   31.60    9.10
   4   7   5   44.90   10.80
   4   7   5   38.90   14.90
  -5  -7  -5  100.39   12.90
   5   7   5   92.49   12.10
   5   7   5   96.69   13.20
   5   7   5  101.29   18.80
   5   7   5   74.49   12.70
  -6  -7  -5  131.09   17.60
  -6  -7  -5  139.19   18.30
   6   7   5  123.89   17.20
   6   7   5  136.19   17.70
   6   7   5   88.19   16.10
  -7  -7  -5   56.79   13.30
   7   7   5   61.49   12.40
   7   7   5   29.30   14.40
   5  -8  -5   56.89   12.70
   5  -8  -5   44.80   10.20
   5  -8  -5   23.40   13.60
  -5   8   5   40.20   14.80
   4  -8  -5   -0.40    9.70
   4  -8  -5   14.70    8.40
   4  -8  -5    6.00    9.20
  -4   8   5   22.50    9.00
  -4   8   5    9.60   10.60
   3  -8  -5   97.59   12.90
   3  -8  -5  132.99   14.00
   3  -8  -5  122.19   14.50
   3  -8  -5  129.09   17.30
  -3   8   5  146.59   16.60
  -3   8   5  100.99   12.60
   2  -8  -5    2.10    7.10
   2  -8  -5   13.30    6.70
   2  -8  -5   -1.80   12.90
   2  -8  -5    8.50    7.00
  -2   8   5   30.60    9.40
  -2   8   5   13.30    8.10
  -2   8   5   10.50    3.60
   1  -8  -5   26.90    8.10
   1  -8  -5   13.20    6.70
   1  -8  -5   28.70    7.60
   1  -8  -5   35.80   14.20
   1  -8  -5   32.30    8.80
  -1   8   5   38.30    5.70
  -1   8   5   31.00    8.90
  -1   8   5   20.00    8.40
   0  -8  -5  125.49   13.70
   0  -8  -5  160.88   17.10
   0  -8  -5  133.79   14.10
   0  -8  -5  108.59   16.40
   0  -8  -5  136.59   13.30
   0   8   5  113.99   10.80
   0   8   5  133.29   17.00
  -1  -8  -5   12.00    6.40
  -1  -8  -5   16.50    7.90
  -1  -8  -5    8.70    6.10
  -1  -8  -5    4.30   17.90
  -1  -8  -5   13.00   10.60
   1   8   5    6.70    5.60
   1   8   5   11.60    7.20
  -2  -8  -5    1.90    6.90
  -2  -8  -5    8.10    5.30
  -2  -8  -5   12.80   12.40
  -2  -8  -5   -6.50    6.30
   2   8   5    4.60    6.80
   2   8   5   10.40    8.00
  -3  -8  -5   52.89   11.10
  -3  -8  -5   46.40    9.50
  -3  -8  -5   34.00    6.30
  -3  -8  -5   37.70    9.00
   3   8   5   34.40   15.30
   3   8   5   28.40    8.80
   3   8   5   17.60    8.80
  -4  -8  -5   96.49   13.40
  -4  -8  -5   94.49   12.50
  -4  -8  -5   63.49    8.40
   4   8   5   65.69   11.40
   4   8   5   60.59   11.80
   4   8   5   52.29   19.60
  -5  -8  -5    0.50   10.20
  -5  -8  -5    8.90   10.30
   5   8   5    6.90   11.10
   5   8   5    2.50   19.60
   5   8   5   -2.10    9.60
  -6  -8  -5   30.60   12.50
  -6  -8  -5   51.99   12.00
   6   8   5   25.00   14.50
   6   8   5   45.80   13.40
   4  -9  -5   46.40   14.80
   4  -9  -5   48.30   13.20
   4  -9  -5   57.39   12.30
  -4   9   5   59.59   13.70
   3  -9  -5   15.80   10.20
   3  -9  -5   33.80   11.70
   3  -9  -5   42.60   11.00
  -3   9   5   33.10   11.70
  -3   9   5   21.50   11.40
   2  -9  -5   -6.30    8.60
   2  -9  -5    7.10    9.10
   2  -9  -5   -4.90   17.40
   2  -9  -5    1.10    7.80
  -2   9   5    4.70    9.30
   1  -9  -5   10.70    8.20
   1  -9  -5   -4.50    7.40
   1  -9  -5    3.90    8.50
   1  -9  -5  -20.70   16.50
  -1   9   5    3.70    9.70
  -1   9   5    3.10    9.10
  -1   9   5   13.20    5.10
   0  -9  -5   10.80    8.10
   0  -9  -5   -7.60    7.30
   0  -9  -5   -1.50    8.00
   0   9   5   -7.30    9.00
   0   9   5   15.10    6.20
  -1  -9  -5   27.20    9.00
  -1  -9  -5   26.00    8.40
  -1  -9  -5   17.90   10.10
   1   9   5   27.50    7.80
   1   9   5   29.70   10.00
  -2  -9  -5    4.80    7.80
  -2  -9  -5   20.80    9.90
  -2  -9  -5    8.20    7.30
   2   9   5   24.50    8.80
   2   9   5   17.30    9.80
  -3  -9  -5  155.48   13.30
  -3  -9  -5  134.89   16.60
  -3  -9  -5  137.99   17.00
   3   9   5  146.09   18.20
   3   9   5  140.69   17.10
  -4  -9  -5   26.00   11.50
  -4  -9  -5   41.40   11.90
   4   9   5   31.60   12.50
   4   9   5   49.80   12.90
  -5  -9  -5  -15.60   12.20
  -5  -9  -5    1.90   12.00
   5   9   5  -22.20   12.40
   5   9   5  -16.50   11.10
   3 -10  -5    5.70   13.10
   3 -10  -5   10.50   17.10
   3 -10  -5  -20.10   11.30
  -3  10   5    9.80   12.30
  -3  10   5    2.30   12.30
   2 -10  -5   33.30   12.70
   2 -10  -5   43.80   12.20
   2 -10  -5   33.80   11.70
  -2  10   5   35.20   13.60
  -2  10   5   41.10   12.20
   1 -10  -5   55.09   13.30
   1 -10  -5   58.39   13.00
   1 -10  -5   83.99   13.50
  -1  10   5   86.09   14.90
  -1  10   5   89.59   13.20
   0 -10  -5   14.80   11.50
   0 -10  -5    7.30    9.80
   0 -10  -5   22.30   10.30
   0  10   5  -15.00   10.90
   0  10   5   23.90    7.00
  -1 -10  -5   69.29   14.80
  -1 -10  -5   66.19   12.00
  -1 -10  -5   53.39   12.20
   1  10   5   36.00   12.60
   1  10   5   59.19   10.80
  -2 -10  -5   12.80    9.20
  -2 -10  -5    0.20    9.90
  -2 -10  -5   30.60   13.00
   2  10   5    3.80    9.60
   2  10   5   30.20   13.10
  -3 -10  -5   28.00   12.10
  -3 -10  -5   17.20    8.30
  -3 -10  -5   42.70   13.70
   3  10   5    2.10   12.60
   3  10   5    3.00   10.80
  -4 -10  -5   13.30   13.00
  -4 -10  -5   38.60   15.60
   4  10   5   52.09   15.00
   4  10   5   25.00   14.10
   1 -11  -5   33.80   14.60
  -1  11   5   38.00   16.80
   0 -11  -5   19.60   12.80
   0 -11  -5   -6.60   12.80
   0 -11  -5  -26.60   14.50
   0  11   5   13.20   15.60
  -1 -11  -5   35.20   14.00
  -1 -11  -5   37.30   16.10
  -1 -11  -5   34.80   12.30
   1  11   5   42.80   16.40
  -2 -11  -5   16.10   13.60
  -2 -11  -5   34.60   11.80
  -2 -11  -5   13.40   16.00
   2  11   5   37.80   15.80
   2  11   5   27.80   12.50
   1   9  -6  -12.60   17.80
  -1  -9   6   11.90   15.60
   0   9  -6  137.19   19.00
   0  -9   6   93.89   12.20
   0  -9   6  118.49   18.80
  -1   9  -6    5.70   13.30
   1  -9   6    6.60   10.10
   1  -9   6    6.40   13.60
  -2   9  -6   48.50   15.80
   2  -9   6   11.90   22.20
   2  -9   6   26.30   12.40
   3   8  -6  104.09   17.30
  -3  -8   6  119.69   18.90
   2   8  -6    1.90   10.50
  -2  -8   6  -10.80   13.10
   1   8  -6   32.60   12.50
  -1  -8   6    5.40   10.80
  -1  -8   6   15.10    6.80
   0   8  -6    4.60   10.20
   0  -8   6   18.30   11.20
   0  -8   6    2.80    9.00
  -1   8  -6   57.99   13.20
   1  -8   6   46.40   13.00
   1  -8   6   53.09   10.70
  -2   8  -6   -0.10    9.90
   2  -8   6   -8.70    9.90
   2  -8   6    6.50    9.70
  -3   8  -6   58.29   13.10
   3  -8   6   21.20   11.60
   3  -8   6   47.30   12.80
  -4   8  -6   35.10   12.60
   4  -8   6   39.80   13.30
   4  -8   6   40.00   14.50
   4   7  -6   10.00   11.80
   4   7  -6    0.00   11.80
  -4  -7   6    1.10   12.90
   3   7  -6   31.90   11.50
   3   7  -6   50.39   12.20
  -3  -7   6   17.40   12.00
  -3  -7   6   30.30   12.40
   2   7  -6    1.20    9.40
   2   7  -6   15.90    9.60
  -2  -7   6    8.10   10.60
  -2  -7   6    5.70   10.10
   1   7  -6   24.40    9.50
   1   7  -6   48.00   10.60
  -1  -7   6   36.30   10.40
  -1  -7   6   58.39    7.60
  -1  -7   6   50.69   11.70
   0  -7   6   10.10    6.60
   0  -7   6    9.00    9.20
  -1   7  -6   38.40   14.00
  -1   7  -6   72.29   11.40
   1  -7   6   55.69   12.00
   1  -7   6   58.79   10.80
  -2   7  -6   98.59   12.60
  -2   7  -6  126.59   15.00
   2  -7   6  113.39   16.70
   2  -7   6   88.99   12.10
  -3   7  -6   27.90   11.60
  -3   7  -6   21.80   10.90
   3  -7   6   11.10   18.30
   3  -7   6   29.50   10.30
   3  -7   6   32.00   10.40
  -4   7  -6   86.49    9.20
  -4   7  -6   72.89   14.40
   4  -7   6   80.29   12.90
   4  -7   6  101.29   15.60
   4  -7   6  104.39   28.70
  -5   7  -6   29.40    9.80
  -5   7  -6    7.80   11.50
   5  -7   6   32.10   13.90
   5  -7   6   35.80   11.40
  -6   7  -6   23.80   11.10
   6  -7   6    7.80   11.40
   5   6  -6   45.20   13.20
   5   6  -6   52.29   11.70
  -5  -6   6   46.70   11.60
   4   6  -6   14.50    9.80
   4   6  -6   18.60   10.20
  -4  -6   6   28.70   11.80
  -4  -6   6   19.50   12.70
   3   6  -6   56.39   20.50
   3   6  -6   56.49   10.80
   3   6  -6   45.10   10.20
  -3  -6   6   44.10   11.90
   2   6  -6   35.10    9.10
   2   6  -6   28.20   18.60
  -2  -6   6   39.50   11.00
  -2  -6   6   30.90   10.40
  -2  -6   6   32.40    5.00
   1   6  -6   24.70    7.90
   1   6  -6   22.00   17.10
   1   6  -6   49.70    9.20
  -1  -6   6   25.10    9.60
  -1  -6   6   26.40    8.90
  -1  -6   6   32.50    6.30
   0   6  -6   -0.70   10.50
   0   6  -6    4.80    7.70
   0   6  -6    8.10    7.50
   0  -6   6    3.30    7.80
   0  -6   6    3.30    5.60
   0  -6   6   -1.70    7.50
  -1   6  -6   45.70   11.90
  -1   6  -6   51.59    9.40
   1  -6   6   28.90   14.70
   1  -6   6   61.69   10.20
  -2   6  -6   26.50    9.70
  -2   6  -6   14.70   10.30
   2  -6   6   -2.60    7.20
   2  -6   6   -1.40    7.10
   2  -6   6   28.00   14.00
  -3   6  -6   23.10    5.90
  -3   6  -6   17.90   10.50
  -3   6  -6   36.70    8.20
   3  -6   6   26.50   14.90
   3  -6   6   16.10    8.70
   3  -6   6   20.50    8.10
  -4   6  -6   -4.00    9.80
  -4   6  -6  -13.30    7.50
  -4   6  -6    6.60    7.20
   4  -6   6   -5.20   14.00
   4  -6   6    5.80    8.90
   4  -6   6   -7.60    6.80
  -5   6  -6   49.30   10.70
  -5   6  -6   15.50    9.60
   5  -6   6   49.70   13.40
   5  -6   6   47.30    9.50
  -6   6  -6   -5.60   10.00
   6  -6   6    1.20    8.50
   6  -6   6    7.50   14.10
   5   5  -6    0.70    9.10
   5   5  -6   27.10    9.70
  -5  -5   6   43.50   13.70
   4   5  -6   23.00   18.60
   4   5  -6   25.30    9.00
   4   5  -6   53.99    9.60
  -4  -5   6   47.20   10.90
  -4  -5   6   42.60   12.30
   3   5  -6   43.60   17.20
   3   5  -6   48.90    8.90
  -3  -5   6   56.29   12.10
  -3  -5   6   74.99   11.50
   2   5  -6    5.10   13.40
   2   5  -6   -2.90    6.50
   2   5  -6   11.00    5.50
  -2  -5   6    4.50    3.40
  -2  -5   6    6.20    8.60
  -2  -5   6    4.40    6.10
  -2  -5   6    0.40    6.50
   1   5  -6  431.66   21.30
   1   5  -6  344.47   27.70
   1   5  -6  438.56   20.80
   1   5  -6  365.66   23.70
  -1  -5   6  369.76   20.50
  -1  -5   6  429.06   17.80
  -1  -5   6  391.46   21.20
   0   5  -6   74.59   15.10
   0   5  -6   59.59    9.30
   0   5  -6   81.99   16.10
   0   5  -6   85.59   11.90
   0  -5   6   45.20   12.30
   0  -5   6   80.79    9.70
   0  -5   6   75.49    9.70
   0  -5   6   58.89    8.90
   0  -5   6   65.69   12.50
  -1   5  -6   17.90   13.20
  -1   5  -6   23.10    6.70
  -1   5  -6   25.00    9.70
  -1   5  -6   26.60    7.70
   1  -5   6   28.70    7.50
   1  -5   6   21.70    6.70
   1  -5   6   12.30    9.60
   1  -5   6   15.00   10.50
   1  -5   6   12.90   10.50
  -2   5  -6   67.49   23.10
  -2   5  -6  109.39   12.40
  -2   5  -6  100.49   12.20
  -2   5  -6  111.89    6.80
   2  -5   6   78.79   10.00
   2  -5   6   97.99   14.20
   2  -5   6   97.79   13.10
  -3   5  -6  191.08   11.70
  -3   5  -6  162.18   17.40
  -3   5  -6  177.68   14.20
   3  -5   6  200.98   17.00
   3  -5   6  168.98   14.30
   3  -5   6  162.58   20.90
  -4   5  -6   16.60    7.00
  -4   5  -6    9.60    9.50
  -4   5  -6    5.50    7.40
   4  -5   6   16.20    8.30
   4  -5   6   13.50   12.10
   4  -5   6   24.40    7.30
  -5   5  -6  101.59   13.60
  -5   5  -6   86.49   10.90
  -5   5  -6   93.69   12.00
   5  -5   6  105.29   15.70
   5  -5   6   83.69   10.50
   5  -5   6   83.69   12.90
   5  -5   6  100.99   10.10
  -6   5  -6   42.40   11.60
  -6   5  -6   26.30    8.40
   6  -5   6   36.60   12.80
   6  -5   6   36.80    8.40
   6  -5   6   25.50    6.60
  -7   5  -6   24.10   13.10
   7  -5   6   10.10    8.30
   7  -5   6   25.60   15.60
   6   4  -6   46.20   11.90
   6   4  -6   59.49    9.90
  -6  -4   6   64.19   10.20
   5   4  -6    1.00    8.60
   5   4  -6    4.40    7.00
  -5  -4   6  -12.80    9.80
  -5  -4   6  -15.60    7.80
  -5  -4   6    6.10    6.60
   4   4  -6   45.20   16.30
   4   4  -6   24.90    8.50
  -4  -4   6   42.20   11.10
  -4  -4   6   18.00    8.20
  -4  -4   6   41.80    7.70
   3   4  -6   63.39    8.30
   3   4  -6   45.30    8.60
   3   4  -6   30.70   14.10
  -3  -4   6   56.19   10.70
  -3  -4   6   42.50    8.30
  -3  -4   6   59.89    5.80
  -3  -4   6   25.80   12.40
   2   4  -6   20.10    6.30
   2   4  -6    4.90   12.40
   2   4  -6   26.00   10.20
   2   4  -6   11.10    6.00
  -2  -4   6   16.60    9.10
  -2  -4   6   15.60    5.10
  -2  -4   6   17.60    7.40
  -2  -4   6   11.00    7.70
  -2  -4   6   10.40   12.60
  -2  -4   6   14.00    3.70
   1   4  -6  145.09   11.60
   1   4  -6  146.69   17.80
   1   4  -6  152.68   16.00
   1   4  -6  170.58   12.60
  -1  -4   6  142.29   17.90
  -1  -4   6  150.48   10.20
  -1  -4   6  153.28   17.60
  -1  -4   6  116.49   13.00
  -1  -4   6  153.48   13.10
   0   4  -6   12.70   10.10
   0   4  -6   15.80    7.80
   0   4  -6   13.10    5.60
   0   4  -6   11.10    5.20
   0  -4   6   12.60    5.30
   0  -4   6   13.60    6.60
   0  -4   6   12.90    8.50
   0  -4   6   15.60    5.90
   0  -4   6   25.60    9.40
  -1   4  -6   27.60    6.00
  -1   4  -6   15.80    5.70
  -1   4  -6   22.60   11.10
  -1   4  -6   27.30    8.70
   1  -4   6   22.90    9.40
   1  -4   6   27.10    9.70
   1  -4   6   27.30    6.60
   1  -4   6   26.80    7.10
  -2   4  -6    2.10    7.20
  -2   4  -6    3.90   10.60
  -2   4  -6    7.10    5.10
  -2   4  -6   10.60    4.60
  -2   4  -6    5.00    5.50
   2  -4   6    3.90    5.20
   2  -4   6   15.20    6.00
   2  -4   6    7.80    8.20
   2  -4   6   10.00    8.20
  -3   4  -6   -4.90    4.70
  -3   4  -6    4.60    7.90
  -3   4  -6   12.00   11.10
  -3   4  -6   12.20    6.30
   3  -4   6   -0.70    8.80
   3  -4   6    6.30    4.10
   3  -4   6   -1.20    8.50
   3  -4   6    3.70    5.50
  -4   4  -6   50.79   10.20
  -4   4  -6   50.99    9.00
  -4   4  -6   49.80    8.20
   4  -4   6   70.09   12.20
   4  -4   6   56.39   11.80
   4  -4   6   54.59    8.10
   4  -4   6   33.60   10.20
   4  -4   6   55.59    6.90
  -5   4  -6    8.80    8.70
  -5   4  -6   23.10   11.00
  -5   4  -6    9.30    7.00
   5  -4   6   11.60   11.10
   5  -4   6    6.80    4.90
   5  -4   6   -4.00    9.20
   5  -4   6    0.20    5.60
  -6   4  -6   42.90    8.90
  -6   4  -6   34.70   11.40
  -6   4  -6   45.30   12.60
   6  -4   6   34.70    7.10
   6  -4   6   23.40   12.80
   6  -4   6   38.90   12.70
   6  -4   6   23.60    7.50
  -7   4  -6   71.89   14.70
   7  -4   6   88.59    9.80
   7  -4   6   98.39   18.10
   7  -4   6  103.39   12.50
  -8   4  -6    2.30    9.50
   8  -4   6   21.10   19.90
   6   3  -6   11.30    9.90
   6   3  -6    3.70    6.60
  -6  -3   6   18.90    8.40
  -6  -3   6    6.00   12.00
   5   3  -6    5.80    6.40
   5   3  -6    8.10    8.30
   5   3  -6    3.40   19.20
  -5  -3   6    3.80    9.60
  -5  -3   6   10.60    6.60
  -5  -3   6    2.10    7.80
   4   3  -6    2.40   12.70
   4   3  -6    7.40    5.50
   4   3  -6   -0.80    6.90
  -4  -3   6   10.50    9.70
  -4  -3   6   11.90    7.60
  -4  -3   6    3.20    5.10
  -4  -3   6   -2.50   20.00
   3   3  -6   22.80   12.10
   3   3  -6   17.00    7.00
  -3  -3   6   28.60   10.80
  -3  -3   6   17.20   10.70
  -3  -3   6   26.30    4.50
  -3  -3   6   34.70    9.30
  -3  -3   6   27.90    7.40
   2   3  -6   -1.40    8.60
   2   3  -6    9.80    9.50
   2   3  -6   10.10    5.20
   2   3  -6    4.00    4.40
  -2  -3   6   -2.10    5.00
  -2  -3   6   -0.30    7.70
  -2  -3   6    0.90    3.80
  -2  -3   6    5.40    7.10
  -2  -3   6    6.30    8.80
   1   3  -6   42.50   10.90
   1   3  -6   62.29    8.60
   1   3  -6   50.99    7.20
   1   3  -6   57.09    9.50
  -1  -3   6   54.69    8.20
  -1  -3   6   64.09    9.40
  -1  -3   6   50.79    8.70
  -1  -3   6   63.49   10.40
  -1  -3   6   45.40    7.60
   0   3  -6   23.20    9.30
   0   3  -6   26.90    5.80
   0   3  -6   26.30    5.40
   0   3  -6   30.50    8.00
   0  -3   6   39.20    8.40
   0  -3   6   33.10    6.60
   0  -3   6   23.90    6.40
   0  -3   6   18.90    7.50
  -1   3  -6   31.80    9.80
  -1   3  -6   27.10    4.50
  -1   3  -6   25.10    5.40
  -1   3  -6   39.10    6.60
  -1   3  -6   23.10    7.30
   1  -3   6   28.30    7.90
   1  -3   6   39.50    8.50
   1  -3   6   22.90    5.40
   1  -3   6   29.90    6.00
  -2   3  -6  417.86   16.40
  -2   3  -6  402.06   21.70
  -2   3  -6  407.56   19.80
  -2   3  -6  388.56   17.90
  -2   3  -6  404.46   18.40
   2  -3   6  386.66   21.00
   2  -3   6  401.86   15.70
   2  -3   6  380.56   20.00
   2  -3   6  383.86   18.70
   2  -3   6  394.86   16.90
  -3   3  -6   73.79    9.90
  -3   3  -6   90.29    9.40
  -3   3  -6   62.99   12.00
  -3   3  -6   62.69    8.40
   3  -3   6   99.09   13.00
   3  -3   6   73.29   10.80
   3  -3   6   79.69    9.50
   3  -3   6   68.39    7.40
  -4   3  -6  559.44   24.30
  -4   3  -6  611.24   29.00
  -4   3  -6  581.44   24.20
  -4   3  -6  563.24   25.60
   4  -3   6  574.14   24.20
   4  -3   6  613.54   22.90
   4  -3   6  549.45   26.90
   4  -3   6  533.35   25.40
  -5   3  -6   63.09   11.90
  -5   3  -6   80.39   11.40
  -5   3  -6  107.29   11.00
   5  -3   6   70.39    9.50
   5  -3   6   75.29   11.70
   5  -3   6   88.39   11.80
  -6   3  -6  253.27   20.40
  -6   3  -6  275.67   22.30
  -6   3  -6  275.57   16.80
   6  -3   6  298.67   20.90
   6  -3   6  259.97   23.20
   6  -3   6  295.47   15.80
   6  -3   6  257.07   15.40
  -7   3  -6   18.10   12.70
  -7   3  -6   16.30   13.60
   7  -3   6    0.90   12.70
   7  -3   6   33.10    6.70
   7  -3   6   19.50    7.60
  -8   3  -6   27.60   10.80
   8  -3   6   12.20   15.00
   8  -3   6    3.00    8.40
   7   2  -6   12.90   12.20
  -7  -2   6   32.10   10.50
  -7  -2   6   20.30   10.70
   6   2  -6   -6.50    8.90
   6   2  -6    2.60    5.90
  -6  -2   6    2.50    7.60
  -6  -2   6    0.30   12.10
   5   2  -6    2.20   11.00
   5   2  -6   17.50    7.70
  -5  -2   6    2.30    6.30
  -5  -2   6   -2.00   10.40
  -5  -2   6    5.20    7.20
   4   2  -6  239.88   13.60
   4   2  -6  206.68   20.90
   4   2  -6  244.58   17.30
  -4  -2   6  250.17   22.20
  -4  -2   6  273.87   16.00
  -4  -2   6  237.28   12.60
  -4  -2   6  204.28   22.90
  -4  -2   6  226.98   17.80
   3   2  -6    2.70    5.50
   3   2  -6    9.80    8.80
   3   2  -6   -0.80    9.20
   3   2  -6    3.10    4.50
  -3  -2   6    3.80    3.80
  -3  -2   6    4.50    7.60
  -3  -2   6    6.40    9.40
  -3  -2   6   -9.20    4.80
  -3  -2   6   15.90    8.80
  -3  -2   6    2.90    2.90
   2   2  -6  222.28   12.50
   2   2  -6  193.98   20.60
   2   2  -6  220.78   16.30
   2   2  -6  237.98   13.80
  -2  -2   6  218.58   10.30
  -2  -2   6  226.38   17.50
  -2  -2   6  236.28   14.30
  -2  -2   6  228.88   16.20
   1   2  -6   74.49    7.80
   1   2  -6   63.39    9.10
   1   2  -6   67.29    8.20
   1   2  -6   57.79    9.70
  -1  -2   6   77.29    9.40
  -1  -2   6   75.09    9.30
  -1  -2   6   59.69    7.90
  -1  -2   6   77.99    8.80
  -1  -2   6   63.09    8.50
   0   2  -6   42.90    9.30
   0   2  -6   32.40    5.10
   0   2  -6   31.40    5.80
   0   2  -6   33.30    7.00
   0  -2   6   27.20    6.90
   0  -2   6   37.70    6.50
   0  -2   6   38.40    7.80
   0  -2   6   46.20    7.80
   0  -2   6   36.40    5.90
  -1   2  -6   17.30    8.10
  -1   2  -6   25.90    5.20
  -1   2  -6   14.30    4.20
  -1   2  -6   20.00    6.90
   1  -2   6   21.30    6.80
   1  -2   6   14.80    4.70
   1  -2   6   20.40    7.20
   1  -2   6   13.00    3.80
   1  -2   6   23.70    5.40
  -2   2  -6  183.98   13.60
  -2   2  -6  177.58   11.20
  -2   2  -6  167.48   10.60
  -2   2  -6  175.38   15.80
  -2   2  -6  170.78   10.70
   2  -2   6  167.78   11.50
   2  -2   6  172.78   10.00
   2  -2   6  180.38    9.70
   2  -2   6  191.88   14.40
   2  -2   6  181.78   13.50
  -3   2  -6    6.70    4.70
  -3   2  -6   -2.70    3.40
  -3   2  -6    5.50    6.50
  -3   2  -6   -0.90    8.10
  -3   2  -6   -3.50    6.00
   3  -2   6    1.90    3.30
   3  -2   6   -1.60    5.70
   3  -2   6    6.00    4.00
  -4   2  -6    6.60    4.80
  -4   2  -6    2.00    7.10
  -4   2  -6    0.70    8.70
  -4   2  -6    3.80    7.20
   4  -2   6    3.20    4.10
   4  -2   6    7.00    6.40
   4  -2   6   -0.20    7.20
   4  -2   6    5.00    4.80
  -5   2  -6  172.38   16.30
  -5   2  -6  147.59   18.80
  -5   2  -6  184.58   12.90
  -5   2  -6  185.38   17.90
   5  -2   6  172.68   12.00
   5  -2   6  172.28   15.80
   5  -2   6  176.28   15.20
   5  -2   6  164.48   12.20
  -6   2  -6   47.00   11.60
  -6   2  -6   69.09    8.80
  -6   2  -6   66.99   13.20
   6  -2   6   56.89    7.60
   6  -2   6   56.59    8.10
   6  -2   6   56.99   10.00
   6  -2   6   51.29   10.50
  -7   2  -6   13.90   14.40
  -7   2  -6   -8.10    9.00
  -7   2  -6  -11.30   11.00
   7  -2   6   -4.60    4.90
   7  -2   6    6.50   11.40
   7  -2   6   11.20    7.70
  -8   2  -6   -4.80    8.80
   8  -2   6    2.20   15.20
   8  -2   6    8.30    9.30
   7   1  -6   62.79   13.00
  -7  -1   6   76.29   15.90
  -7  -1   6   91.89   12.40
   6   1  -6    9.80    8.80
   6   1  -6   13.90    4.90
  -6  -1   6    0.80    7.40
  -6  -1   6    2.40   11.10
   5   1  -6   20.40    5.30
   5   1  -6    2.10    7.30
   5   1  -6   -0.90    9.10
  -5  -1   6    9.80    6.50
  -5  -1   6    2.00    9.40
  -5  -1   6   15.00    6.70
   4   1  -6   85.19   12.50
   4   1  -6   73.69    9.20
   4   1  -6   67.19   10.60
   4   1  -6   83.09    8.50
  -4  -1   6   47.40   11.70
  -4  -1   6   59.09   10.30
  -4  -1   6   67.49   11.10
  -4  -1   6   72.89    8.90
  -4  -1   6   97.09    9.00
  -4  -1   6   79.99    7.90
   3   1  -6  101.09   11.90
   3   1  -6   95.59   10.00
   3   1  -6   72.89    8.20
   3   1  -6  115.49   14.40
  -3  -1   6  100.69   13.50
  -3  -1   6  111.49   12.70
  -3  -1   6   82.99   10.40
  -3  -1   6   89.99    7.50
  -3  -1   6   97.19    7.40
  -3  -1   6  104.79   11.70
   2   1  -6   48.80    6.20
   2   1  -6   55.09    7.10
   2   1  -6   49.10    9.40
   2   1  -6   52.39    8.30
  -2  -1   6   32.80    7.30
  -2  -1   6   49.30    6.20
  -2  -1   6   36.80    8.40
  -2  -1   6   42.80    8.10
  -2  -1   6   46.70    6.90
   1   1  -6 1166.88   40.70
   1   1  -6 1228.98   41.50
   1   1  -6 1240.48   41.70
  -1  -1   6 1203.78   40.90
  -1  -1   6 1241.88   39.40
  -1  -1   6 1292.47   42.40
  -1  -1   6 1242.18   42.60
  -1  -1   6 1229.98   42.30
   0   1  -6   70.39    6.80
   0   1  -6   80.69   10.00
   0   1  -6   85.09    7.50
   0   1  -6   70.99    9.20
   0  -1   6   77.39    9.30
   0  -1   6   74.89    9.10
   0  -1   6   66.49    6.60
   0  -1   6   71.29    8.30
   0  -1   6   79.49    9.00
  -1   1  -6  124.09    8.60
  -1   1  -6  121.89   13.10
  -1   1  -6  124.99   11.40
  -1   1  -6  116.09    8.60
   1  -1   6  125.79   11.90
   1  -1   6  117.59    8.40
   1  -1   6  111.89   10.60
   1  -1   6  145.09   10.10
   1  -1   6  129.99   11.40
   1  -1   6  109.69    8.80
  -2   1  -6  643.44   26.00
  -2   1  -6  665.93   27.40
  -2   1  -6  683.13   24.50
  -2   1  -6  675.23   25.50
   2  -1   6  652.13   25.80
   2  -1   6  686.93   24.70
   2  -1   6  653.73   25.60
   2  -1   6  686.63   22.40
   2  -1   6  679.83   25.30
  -3   1  -6  121.79    8.80
  -3   1  -6  128.49   12.80
  -3   1  -6  132.49    9.90
  -3   1  -6  119.59   11.60
  -3   1  -6  125.39   13.60
   3  -1   6  128.89    7.80
   3  -1   6  119.79   12.40
   3  -1   6  124.89    9.80
   3  -1   6  126.79    9.00
   3  -1   6  127.59   11.30
  -4   1  -6  257.97   18.20
  -4   1  -6  282.27   17.50
  -4   1  -6  287.37   14.60
  -4   1  -6  270.97   16.60
   4  -1   6  275.17   16.80
   4  -1   6  285.77   14.50
   4  -1   6  275.27   15.20
   4  -1   6  288.27   14.40
  -5   1  -6  345.27   16.70
  -5   1  -6  333.67   21.10
  -5   1  -6  342.07   20.50
  -5   1  -6  327.67   21.70
   5  -1   6  358.36   18.60
   5  -1   6  335.17   16.40
   5  -1   6  338.47   17.70
   5  -1   6  319.07   16.70
  -6   1  -6   50.49   12.00
  -6   1  -6   65.79   13.40
  -6   1  -6   49.40   11.60
  -6   1  -6   60.89    7.70
   6  -1   6   57.29    9.20
   6  -1   6   62.39    9.30
   6  -1   6   60.99    9.10
   6  -1   6   40.80    6.80
  -7   1  -6   21.20   15.00
  -7   1  -6   25.30    6.40
  -7   1  -6    4.20   11.40
   7  -1   6   10.30    5.20
   7  -1   6   12.70    8.00
   7  -1   6   22.20    7.80
   7  -1   6   21.00    9.90
  -8   1  -6   20.10   10.90
   8  -1   6   19.20    9.60
   7   0  -6   55.29   12.50
  -7   0   6   44.10   14.70
  -7   0   6   86.19   12.10
   6   0  -6  383.46   14.20
   6   0  -6  407.36   23.00
   6   0  -6  390.46   15.50
   6   0  -6  387.56   14.70
  -6   0   6  355.56   24.90
  -6   0   6  385.86   20.00
   5   0  -6   65.19    7.40
   5   0  -6   42.90    8.90
   5   0  -6   57.99    9.00
   5   0  -6   46.30    5.60
  -5   0   6   55.89    7.80
  -5   0   6   37.40   11.20
  -5   0   6   52.39    8.30
  -5   0   6   37.90   10.60
   4   0  -6 1362.46   47.70
   4   0  -6 1407.66   43.00
   4   0  -6 1364.46   48.10
   4   0  -6 1338.37   45.80
   4   0  -6 1346.47   43.80
  -4   0   6 1349.27   43.80
  -4   0   6 1388.56   46.10
  -4   0   6 1393.16   44.10
  -4   0   6 1377.66   48.30
  -4   0   6 1372.86   46.60
  -4   0   6 1291.57   49.80
   3   0  -6  459.65   20.70
   3   0  -6  471.85   22.40
   3   0  -6  468.35   21.80
   3   0  -6  499.95   18.00
   3   0  -6  466.05   18.70
  -3   0   6  436.46   21.60
  -3   0   6  453.65   18.00
  -3   0   6  452.75   21.70
  -3   0   6  471.85   17.60
  -3   0   6  462.15   20.30
  -3   0   6  465.55   24.00
   2   0  -6  118.89    8.50
   2   0  -6  104.99   11.80
   2   0  -6  101.19    9.20
   2   0  -6  100.89   12.50
   2   0  -6  117.69    8.30
  -2   0   6  111.79   12.60
  -2   0   6  119.99   11.60
  -2   0   6  115.99   11.90
  -2   0   6  126.19    8.20
  -2   0   6  122.19   10.20
   1   0  -6 1023.00   34.90
   1   0  -6 1015.00   37.10
   1   0  -6 1021.80   36.40
   1   0  -6 1070.19   36.10
   1   0  -6 1068.09   35.60
  -1   0   6 1091.69   36.80
  -1   0   6 1040.50   37.00
  -1   0   6 1083.59   36.90
  -1   0   6 1040.20   35.40
  -1   0   6 1023.20   34.10
   0   0  -6  827.32   31.80
   0   0  -6  859.51   30.10
   0   0  -6  805.62   30.20
   0   0  -6  875.61   31.10
   0   0   6  872.71   29.40
   0   0   6  878.51   31.50
   0   0   6  877.41   31.20
   0   0   6  909.21   30.20
   0   0   6  886.51   31.50
  -1   0  -6  933.31   31.50
  -1   0  -6  937.31   33.40
  -1   0  -6  939.61   30.80
  -1   0  -6  908.41   31.90
   1   0   6  910.51   31.30
   1   0   6  878.31   29.30
   1   0   6  874.91   30.80
   1   0   6  865.61   31.80
   1   0   6  870.11   32.00
   1   0   6  841.42   31.80
  -2   0  -6 1176.98   39.60
  -2   0  -6 1190.68   38.40
  -2   0  -6 1178.68   40.50
  -2   0  -6 1146.39   41.00
   2   0   6 1169.38   38.90
   2   0   6 1186.78   41.00
   2   0   6 1228.38   39.40
   2   0   6 1159.38   36.70
   2   0   6 1197.78   40.40
  -3   0  -6  369.56   18.70
  -3   0  -6  344.67   18.20
  -3   0  -6  366.76   14.90
  -3   0  -6  364.06   16.60
   3   0   6  345.27   17.30
   3   0   6  358.36   13.50
   3   0   6  364.86   16.60
   3   0   6  337.57   15.60
  -4   0  -6  231.78   16.70
  -4   0  -6  208.78   15.60
  -4   0  -6  218.38   16.80
  -4   0  -6  227.38   12.70
   4   0   6  218.48   12.80
   4   0   6  224.18   12.50
   4   0   6  210.18   14.30
   4   0   6  206.58    9.70
  -5   0  -6   74.59   11.30
  -5   0  -6   84.59   11.00
  -5   0  -6   91.19    9.70
  -5   0  -6   80.19   12.20
   5   0   6   73.99   10.00
   5   0   6   79.39    7.10
   5   0   6   93.49   12.10
   5   0   6   81.59    8.90
  -6   0  -6    6.60    5.30
  -6   0  -6    1.80   11.70
  -6   0  -6   -5.00    9.10
  -6   0  -6   -2.50    9.40
   6   0   6    6.00    6.60
   6   0   6    1.50    7.00
   6   0   6   10.70    5.10
   6   0   6    8.30    6.30
  -7   0  -6    9.60    5.80
  -7   0  -6    0.00   10.30
   7   0   6   15.20    8.30
   7   0   6    2.30    7.20
   7   0   6    6.20    5.00
   7   0   6    1.80    8.00
  -8   0  -6   10.10    9.30
   8   0   6   11.80    9.70
   7  -1  -6   90.19   14.20
  -7   1   6   85.59   11.00
  -7   1   6   91.89   16.50
   6  -1  -6  119.29   10.50
   6  -1  -6  102.39   12.70
  -6   1   6   91.69   14.90
  -6   1   6  122.29   14.00
   5  -1  -6   -3.20    6.90
   5  -1  -6    3.80    3.70
   5  -1  -6   16.00    4.80
   5  -1  -6   17.40   10.80
   5  -1  -6    2.30    6.70
  -5   1   6   12.80    6.40
  -5   1   6    1.00    8.80
  -5   1   6    7.70    8.70
  -5   1   6   13.60    9.30
  -5   1   6    8.10    8.90
   4  -1  -6  133.29    9.30
   4  -1  -6  144.19    9.50
   4  -1  -6  144.09   13.50
   4  -1  -6  140.79   13.10
   4  -1  -6  145.49   16.40
  -4   1   6  112.89   10.50
  -4   1   6  134.09   15.40
  -4   1   6  112.09   13.70
  -4   1   6  144.69   10.20
  -4   1   6  131.39   14.40
  -4   1   6  156.48   13.40
   3  -1  -6  328.27   17.60
   3  -1  -6  364.46   14.80
   3  -1  -6  335.57   18.20
   3  -1  -6  345.37   15.00
   3  -1  -6  347.17   17.60
  -3   1   6  318.77   18.00
  -3   1   6  336.37   14.40
  -3   1   6  357.26   16.80
  -3   1   6  340.67   18.10
  -3   1   6  352.76   16.30
  -3   1   6  336.67   21.10
   2  -1  -6   37.40    7.50
   2  -1  -6   28.50    4.80
   2  -1  -6   31.80    4.60
   2  -1  -6   28.00    5.70
   2  -1  -6   24.60    7.00
  -2   1   6   22.60    6.60
  -2   1   6   17.40    7.00
  -2   1   6   28.80    7.00
  -2   1   6   29.00    5.70
   1  -1  -6 1063.39   36.40
   1  -1  -6 1043.10   36.40
   1  -1  -6 1057.59   35.80
   1  -1  -6 1088.09   37.60
   1  -1  -6 1087.79   36.20
  -1   1   6 1111.39   36.10
  -1   1   6 1133.49   37.30
  -1   1   6 1034.50   35.10
  -1   1   6 1053.09   36.70
  -1   1   6 1062.69   36.00
  -1   1   6 1060.39   37.50
   0  -1  -6  564.14   22.90
   0  -1  -6  587.04   22.30
   0  -1  -6  575.44   21.80
   0  -1  -6  611.94   22.20
   0   1   6  562.64   21.80
   0   1   6  572.14   22.70
   0   1   6  546.25   22.50
   0   1   6  589.44   21.50
   0   1   6  592.24   22.80
   0   1   6  601.84   21.60
  -1  -1  -6    6.00    3.00
  -1  -1  -6    0.30    5.20
  -1  -1  -6    5.90    5.20
  -1  -1  -6    2.30    3.00
   1   1   6    2.50    3.00
   1   1   6    2.90    5.10
   1   1   6    4.10    3.70
   1   1   6    5.90    4.80
   1   1   6    5.20    4.40
   1   1   6    9.30    4.50
  -2  -1  -6  591.84   24.30
  -2  -1  -6  580.14   24.10
  -2  -1  -6  604.74   21.30
  -2  -1  -6  580.64   22.90
   2   1   6  613.34   22.70
   2   1   6  620.94   20.70
   2   1   6  585.24   22.00
   2   1   6  610.74   23.40
   2   1   6  575.34   24.10
  -3  -1  -6   59.49    7.50
  -3  -1  -6   66.89    6.00
  -3  -1  -6   52.49    8.40
  -3  -1  -6   48.80    8.10
   3   1   6   69.79    7.00
   3   1   6   64.79    9.00
   3   1   6   69.49    8.20
   3   1   6   70.89    7.60
   3   1   6   70.49    8.40
   3   1   6   69.89    7.60
  -4  -1  -6    4.80    2.60
  -4  -1  -6    5.80    4.30
  -4  -1  -6   -2.10    7.60
  -4  -1  -6   -1.70    6.50
  -4  -1  -6   14.70    7.20
   4   1   6   -3.40    3.90
   4   1   6    6.00    6.40
   4   1   6    5.90    4.40
   4   1   6    5.50    4.20
   4   1   6    7.10    8.60
   4   1   6    7.50    3.90
  -5  -1  -6   81.99   12.70
  -5  -1  -6   79.59   10.80
  -5  -1  -6   72.09   11.60
  -5  -1  -6   88.29    9.30
   5   1   6   61.39    7.50
   5   1   6   74.99    8.80
   5   1   6   74.59    9.10
   5   1   6   60.89    8.10
   5   1   6   70.09   12.10
  -6  -1  -6  770.12   34.70
  -6  -1  -6  828.12   29.60
  -6  -1  -6  696.83   35.80
  -6  -1  -6  772.62   32.00
   6   1   6  766.62   29.50
   6   1   6  769.12   26.20
   6   1   6  814.22   29.10
  -7  -1  -6   15.00    6.30
  -7  -1  -6   -0.60   11.30
   7   1   6    0.30    7.50
   7   1   6    0.20    3.60
   7   1   6    6.90    5.90
   7   1   6    4.90    8.50
   7   1   6   18.90    5.70
   8   1   6  183.28    9.70
   8   1   6  159.98   20.70
   7  -2  -6   30.70   12.90
  -7   2   6   13.10   14.30
  -7   2   6   18.90    7.20
   6  -2  -6   31.70    6.80
   6  -2  -6   38.30   10.50
   6  -2  -6   32.00   14.10
  -6   2   6   45.10    9.30
  -6   2   6   44.00   12.60
  -6   2   6   37.90   12.20
   5  -2  -6   16.70    5.10
   5  -2  -6    2.30    3.80
   5  -2  -6   11.00    6.60
   5  -2  -6   17.20    8.10
   5  -2  -6   10.20   10.50
  -5   2   6   15.80    9.20
  -5   2   6    9.80    6.40
  -5   2   6   14.50   10.20
  -5   2   6   14.60    9.20
  -5   2   6   21.40   11.20
   4  -2  -6  125.79    9.00
   4  -2  -6  138.39    9.80
   4  -2  -6  136.79   15.00
   4  -2  -6  120.09   12.90
  -4   2   6  108.49   14.90
  -4   2   6  114.49   14.40
  -4   2   6  101.29   13.70
  -4   2   6  131.39   10.40
  -4   2   6  103.69   11.70
   3  -2  -6  252.17   15.10
   3  -2  -6  238.28   12.20
   3  -2  -6  236.78   12.30
   3  -2  -6  258.97   15.00
   3  -2  -6  261.27   16.00
  -3   2   6  245.98   12.20
  -3   2   6  238.68   15.40
  -3   2   6  225.88   19.50
  -3   2   6  220.58   13.50
  -3   2   6  241.18   15.00
  -3   2   6  266.87   15.10
   2  -2  -6  142.09    9.10
   2  -2  -6  126.49   11.80
   2  -2  -6  150.88    9.60
   2  -2  -6  152.48   10.60
   2  -2  -6  148.59   12.30
  -2   2   6  145.09   14.20
  -2   2   6  141.69   11.20
  -2   2   6  144.89   10.60
  -2   2   6  141.79   10.50
  -2   2   6  147.59   12.10
   1  -2  -6 1086.59   37.00
   1  -2  -6 1035.30   36.00
   1  -2  -6 1008.60   35.60
   1  -2  -6 1086.89   35.50
   1  -2  -6 1063.49   36.10
  -1   2   6 1064.29   37.40
  -1   2   6 1045.80   35.20
  -1   2   6 1025.50   36.60
  -1   2   6 1058.19   36.40
  -1   2   6 1067.39   35.10
   0  -2  -6   49.40    6.50
   0  -2  -6   53.29    6.50
   0  -2  -6   49.99    7.10
   0  -2  -6   53.89    9.40
   0  -2  -6   60.39    6.30
   0   2   6   47.30    6.10
   0   2   6   51.19    6.90
   0   2   6   56.79    8.00
   0   2   6   60.89    6.20
   0   2   6   52.09    7.20
   0   2   6   58.39    7.00
  -1  -2  -6  262.07   14.10
  -1  -2  -6  260.87   13.20
  -1  -2  -6  265.27   15.60
  -1  -2  -6  271.07   12.10
  -1  -2  -6  271.07   13.80
   1   2   6  273.77   13.70
   1   2   6  260.37   12.70
   1   2   6  268.17   12.40
   1   2   6  231.98   15.30
   1   2   6  264.57   13.90
   1   2   6  271.97   14.80
  -2  -2  -6  527.45   22.30
  -2  -2  -6  559.94   21.50
  -2  -2  -6  516.85   22.70
  -2  -2  -6  545.65   19.30
  -2  -2  -6  507.85   22.60
   2   2   6  497.15   22.00
   2   2   6  566.44   19.30
   2   2   6  545.45   22.30
   2   2   6  534.65   20.10
   2   2   6  538.45   21.00
   2   2   6  538.45   21.90
  -3  -2  -6   22.50    8.00
  -3  -2  -6   20.70    7.10
  -3  -2  -6   16.20    3.10
  -3  -2  -6    9.10    4.00
   3   2   6   10.30    4.50
   3   2   6   16.50    4.20
   3   2   6   12.90    4.60
   3   2   6   16.20    6.90
   3   2   6   12.50    6.50
   3   2   6   18.10    4.60
  -4  -2  -6  240.18   18.50
  -4  -2  -6  252.77   10.00
  -4  -2  -6  246.78   17.30
  -4  -2  -6  252.57   13.70
   4   2   6  248.98   15.30
   4   2   6  229.18   17.30
   4   2   6  242.98   13.60
   4   2   6  268.17   14.60
   4   2   6  260.87   11.20
  -5  -2  -6  258.17   14.30
  -5  -2  -6  221.28   17.60
  -5  -2  -6  230.78   21.40
  -5  -2  -6  251.27   18.40
   5   2   6  246.18   19.60
   5   2   6  260.37   14.50
   5   2   6  240.48   15.70
   5   2   6  245.78   10.10
   5   2   6  251.07   16.40
  -6  -2  -6  186.78   19.10
  -6  -2  -6  191.68   13.60
  -6  -2  -6  176.28   18.30
   6   2   6  207.98   13.40
   6   2   6  184.98   16.10
   6   2   6  197.98   16.30
   6   2   6  163.98   21.40
  -7  -2  -6  158.98   13.10
  -7  -2  -6  145.69   18.60
   7   2   6  122.19   15.10
   7   2   6  145.09   17.00
   7   2   6  167.68   14.80
  -8  -2  -6    9.20   10.50
   8   2   6   -4.20   10.70
   8   2   6    5.00    5.60
   7  -3  -6   89.39   12.50
   7  -3  -6  109.09   14.40
   7  -3  -6  110.99   15.70
  -7   3   6  122.19   17.60
  -7   3   6  103.29   12.10
   6  -3  -6   21.50    7.20
   6  -3  -6   13.40   10.00
   6  -3  -6   29.00   13.10
  -6   3   6   45.60   12.80
  -6   3   6   27.30    8.60
  -6   3   6   19.80   15.60
   5  -3  -6  125.39   15.50
   5  -3  -6  135.59   18.20
   5  -3  -6  148.59   11.90
   5  -3  -6  156.48    9.30
   5  -3  -6  144.69   12.50
  -5   3   6  167.68   17.80
  -5   3   6  158.28   22.30
  -5   3   6  119.89   14.70
  -5   3   6  161.68   12.70
  -5   3   6  128.29   16.40
   4  -3  -6  824.42   29.00
   4  -3  -6  845.62   33.50
   4  -3  -6  817.62   29.90
   4  -3  -6  821.32   30.20
   4  -3  -6  800.42   31.70
  -4   3   6  824.72   33.60
  -4   3   6  825.32   31.70
  -4   3   6  868.61   31.20
  -4   3   6  833.02   34.10
  -4   3   6  836.12   30.10
   3  -3  -6  353.36   15.50
   3  -3  -6  330.27   17.80
   3  -3  -6  338.17   17.90
   3  -3  -6  308.37   17.20
   3  -3  -6  325.97   15.20
  -3   3   6  341.67   16.80
  -3   3   6  327.67   18.20
  -3   3   6  322.37   15.10
  -3   3   6  311.77   21.90
  -3   3   6  334.17   18.30
  -3   3   6  333.07   18.50
   2  -3  -6  748.13   27.70
   2  -3  -6  719.83   26.10
   2  -3  -6  702.73   25.80
   2  -3  -6  649.93   26.40
   2  -3  -6  693.73   27.60
  -2   3   6  708.83   27.60
  -2   3   6  714.13   27.20
  -2   3   6  711.13   26.80
  -2   3   6  757.42   30.40
  -2   3   6  686.63   27.00
   1  -3  -6 1606.04   52.39
   1  -3  -6 1621.54   52.69
   1  -3  -6 1622.14   53.59
   1  -3  -6 1634.44   52.59
   1  -3  -6 1646.84   53.29
  -1   3   6 1716.53   53.79
  -1   3   6 1639.74   52.49
  -1   3   6 1626.94   52.29
  -1   3   6 1633.04   51.69
  -1   3   6 1643.14   53.49
   0  -3  -6  479.35   20.00
   0  -3  -6  512.05   22.10
   0  -3  -6  526.25   20.10
   0  -3  -6  513.35   21.20
   0   3   6  521.35   19.60
   0   3   6  471.65   20.80
   0   3   6  494.75   20.20
   0   3   6  532.65   21.90
   0   3   6  503.75   21.50
   0   3   6  498.15   19.70
  -1  -3  -6 2723.93   82.89
  -1  -3  -6 2609.54   84.59
  -1  -3  -6 2843.72   85.29
  -1  -3  -6 2824.42   84.79
  -1  -3  -6 2766.92   84.69
   1   3   6 2687.13   83.79
   1   3   6 2702.83   82.29
   1   3   6 2742.63   83.99
   1   3   6 2738.63   85.09
   1   3   6 2843.12   84.79
   1   3   6 2690.43   83.29
  -2  -3  -6 3113.19   96.29
  -2  -3  -6 3097.49   95.69
  -2  -3  -6 3119.59   95.99
  -2  -3  -6 3082.59   92.39
  -2  -3  -6 3057.79   95.09
   2   3   6 3100.79   95.29
   2   3   6 3041.00   94.99
   2   3   6 3180.78   95.19
   2   3   6 3181.58   92.69
   2   3   6 3050.19   95.69
   2   3   6 3196.18   92.99
  -3  -3  -6   54.29    7.10
  -3  -3  -6   56.59    9.20
  -3  -3  -6   43.90    8.50
  -3  -3  -6   38.70    4.70
   3   3   6   34.80    7.40
   3   3   6   52.79    5.60
   3   3   6   40.70    8.00
   3   3   6   54.29    7.30
   3   3   6   39.50    6.20
  -4  -3  -6 1404.36   50.79
  -4  -3  -6 1411.36   48.60
  -4  -3  -6 1430.16   42.40
  -4  -3  -6 1436.76   47.80
   4   3   6 1408.26   49.00
   4   3   6 1417.36   48.10
   4   3   6 1471.65   48.20
   4   3   6 1356.16   48.60
   4   3   6 1456.35   42.70
  -5  -3  -6  364.36   22.20
  -5  -3  -6  334.07   25.10
  -5  -3  -6  385.86   18.60
  -5  -3  -6  332.57   20.70
   5   3   6  376.56   20.20
   5   3   6  396.06   22.50
   5   3   6  343.37   22.30
   5   3   6  359.96   18.40
  -6  -3  -6   68.59   13.40
  -6  -3  -6   95.09   12.00
   6   3   6   97.19   11.90
   6   3   6  101.79   13.80
   6   3   6   61.39   13.30
  -7  -3  -6  193.18   15.00
  -7  -3  -6  170.38   20.10
   7   3   6  183.08   19.00
   7   3   6  208.18   15.10
   7   3   6  192.28   18.80
  -8  -3  -6   18.30   10.50
   8   3   6   -5.00   11.60
   8   3   6    0.30    6.90
   7  -4  -6  113.59   17.10
   7  -4  -6  143.49   17.60
  -7   4   6  134.99   12.90
  -7   4   6  133.79   19.40
   6  -4  -6  161.08   15.10
   6  -4  -6  167.88   21.00
  -6   4   6  122.09   14.80
  -6   4   6  178.78   18.60
   5  -4  -6   74.89   11.50
   5  -4  -6   78.99   11.90
   5  -4  -6   76.89    9.20
   5  -4  -6   93.79    8.70
  -5   4   6   84.39   11.40
  -5   4   6   72.69   16.70
  -5   4   6   58.99    9.90
  -5   4   6   78.69   13.00
   4  -4  -6 1099.79   36.90
   4  -4  -6 1059.79   41.10
   4  -4  -6 1114.79   38.50
   4  -4  -6 1052.09   38.10
   4  -4  -6 1069.89   37.70
  -4   4   6 1133.39   43.20
  -4   4   6 1121.09   38.80
  -4   4   6 1083.29   37.40
  -4   4   6 1022.80   39.50
  -4   4   6 1075.99   40.50
   3  -4  -6  136.39   10.60
   3  -4  -6  143.49   13.30
   3  -4  -6  155.28   14.30
   3  -4  -6  136.49   13.30
   3  -4  -6  141.59   10.90
  -3   4   6  139.99   15.80
  -3   4   6  142.19   12.10
  -3   4   6  137.59   15.50
  -3   4   6  111.59   11.70
   2  -4  -6 1059.09   38.10
   2  -4  -6 1041.30   36.40
   2  -4  -6 1065.49   36.70
   2  -4  -6 1054.99   36.70
   2  -4  -6 1029.70   38.00
  -2   4   6 1120.49   38.00
  -2   4   6 1047.30   37.90
  -2   4   6 1058.49   35.10
  -2   4   6 1041.30   37.20
  -2   4   6 1085.79   38.40
   1  -4  -6 2988.50   88.09
   1  -4  -6 2831.62   86.79
   1  -4  -6 2845.42   88.19
   1  -4  -6 2645.24   88.49
   1  -4  -6 2866.11   87.59
  -1   4   6 3066.79   88.99
  -1   4   6 2861.71   87.89
  -1   4   6 2810.32   86.09
  -1   4   6 2809.22   88.19
  -1   4   6 2737.53   86.89
   0  -4  -6  279.97   14.80
   0  -4  -6  311.97   14.70
   0  -4  -6  285.17   17.10
   0  -4  -6  295.37   15.90
   0  -4  -6  278.17   14.00
   0   4   6  281.37   16.90
   0   4   6  304.37   15.40
   0   4   6  301.27   13.70
   0   4   6  324.27   15.60
   0   4   6  281.27   14.50
  -1  -4  -6 2920.51   88.89
  -1  -4  -6 2878.91   88.89
  -1  -4  -6 2835.72   88.79
  -1  -4  -6 2884.81   89.09
  -1  -4  -6 2847.71   86.79
   1   4   6 2699.13   87.69
   1   4   6 2935.01   89.09
   1   4   6 3007.40   88.19
   1   4   6 2956.50   89.49
   1   4   6 2759.92   86.39
  -2  -4  -6 1249.57   44.30
  -2  -4  -6 1349.96   44.60
  -2  -4  -6 1212.78   44.50
  -2  -4  -6 1259.57   43.50
  -2  -4  -6 1295.57   40.70
   2   4   6 1278.67   43.20
   2   4   6 1335.77   44.30
   2   4   6 1279.17   44.00
   2   4   6 1249.18   43.00
  -3  -4  -6   34.10   10.00
  -3  -4  -6   14.50    5.20
  -3  -4  -6   14.00    5.70
  -3  -4  -6   24.10    3.40
  -3  -4  -6   16.20    8.00
   3   4   6    5.70    7.40
   3   4   6   12.90    7.40
   3   4   6   15.90    5.10
   3   4   6   15.00    4.90
  -4  -4  -6 1202.88   36.20
  -4  -4  -6 1250.27   44.10
  -4  -4  -6 1289.97   43.20
  -4  -4  -6 1189.78   46.40
   4   4   6 1189.98   43.10
   4   4   6 1225.08   43.70
   4   4   6 1229.58   43.10
   4   4   6 1237.08   44.20
  -5  -4  -6  579.54   24.30
  -5  -4  -6  501.05   27.20
   5   4   6  562.24   26.70
   5   4   6  546.35   25.90
   5   4   6  549.54   30.10
  -6  -4  -6    8.30    7.30
  -6  -4  -6   11.00   11.70
   6   4   6   10.50   10.60
   6   4   6    6.70    6.80
   6   4   6    1.10   11.00
   6   4   6    7.30    8.00
  -7  -4  -6  211.18   23.20
  -7  -4  -6  220.88   17.00
   7   4   6  170.98   16.30
   7   4   6  258.57   21.60
  -8  -4  -6   37.40   12.20
   8   4   6   28.50   14.90
   8   4   6   31.40    9.40
   6  -5  -6   41.30    9.80
   6  -5  -6   54.49   14.90
  -6   5   6   65.69   15.20
  -6   5   6   51.89    8.20
   5  -5  -6  -11.60    8.30
   5  -5  -6   12.70    7.30
   5  -5  -6   -2.50    9.10
   5  -5  -6    3.30    8.90
  -5   5   6    1.80    7.70
  -5   5   6  -10.30    9.90
  -5   5   6   -1.50    7.10
   4  -5  -6  377.96   19.30
   4  -5  -6  333.27   24.00
   4  -5  -6  368.86   19.50
   4  -5  -6  338.57   21.60
   4  -5  -6  367.46   21.10
  -4   5   6  355.26   17.70
  -4   5   6  380.56   21.90
  -4   5   6  389.66   19.90
   3  -5  -6  113.99   15.40
   3  -5  -6  143.19   13.70
   3  -5  -6  107.49   12.90
   3  -5  -6  124.09   11.50
   3  -5  -6  135.29   11.50
  -3   5   6  138.99   12.30
  -3   5   6  113.79   11.90
  -3   5   6  126.69   18.50
  -3   5   6  126.69   15.80
   2  -5  -6  164.98   13.30
   2  -5  -6  159.78   18.60
   2  -5  -6  127.09   11.00
   2  -5  -6  149.39   13.00
   2  -5  -6  142.09   11.20
  -2   5   6  183.78   12.90
  -2   5   6  154.08   13.30
  -2   5   6  146.49   16.60
  -2   5   6  146.09   15.40
  -2   5   6  147.09    9.20
   1  -5  -6  777.12   29.00
   1  -5  -6  746.63   28.30
   1  -5  -6  770.52   28.70
   1  -5  -6  721.03   29.00
   1  -5  -6  741.53   30.60
  -1   5   6  766.62   29.60
  -1   5   6  729.03   28.40
  -1   5   6  763.62   30.60
  -1   5   6  767.92   30.10
  -1   5   6  761.42   26.60
   0  -5  -6    3.10    6.60
   0  -5  -6    5.50    4.30
   0  -5  -6    9.10    8.40
   0  -5  -6    2.10    4.30
   0  -5  -6   10.30    4.40
   0   5   6   10.50    5.30
   0   5   6    4.90    6.90
   0   5   6    8.40    6.60
   0   5   6   10.40    3.80
   0   5   6   12.00    5.50
  -1  -5  -6  279.67   13.60
  -1  -5  -6  268.87   17.10
  -1  -5  -6  281.57   15.00
  -1  -5  -6  291.57   17.80
  -1  -5  -6  274.67   15.30
   1   5   6  272.47   15.60
   1   5   6  261.67   13.80
   1   5   6  295.57   14.30
   1   5   6  288.47   17.30
   1   5   6  256.87   15.00
  -2  -5  -6  555.74   23.30
  -2  -5  -6  517.65   19.90
  -2  -5  -6  519.25   22.60
  -2  -5  -6  499.55   24.90
  -2  -5  -6  525.55   25.60
   2   5   6  543.45   23.20
   2   5   6  536.15   22.50
   2   5   6  541.65   25.00
   2   5   6  533.15   23.30
  -3  -5  -6   -1.90    9.00
  -3  -5  -6    5.90    5.40
  -3  -5  -6    6.40    3.10
  -3  -5  -6   -5.10    8.70
  -3  -5  -6    4.50    5.60
   3   5   6    3.60    5.10
   3   5   6    6.90    8.80
   3   5   6    5.30    5.30
   3   5   6    5.50    7.00
  -4  -5  -6   88.89   13.10
  -4  -5  -6  122.99    6.50
  -4  -5  -6  124.19   16.40
  -4  -5  -6  130.99   12.40
  -4  -5  -6  124.19   13.80
   4   5   6  102.39   13.20
   4   5   6  143.49   15.20
  -5  -5  -6  114.09   12.70
   5   5   6   69.19   10.60
   5   5   6  102.59   11.90
   5   5   6   94.09   13.60
   5   5   6  102.79   13.30
  -6  -5  -6   -1.50    7.10
  -6  -5  -6    5.10   10.60
   6   5   6    2.50    6.90
   6   5   6    9.50   19.10
   6   5   6   13.90   13.60
   6   5   6    1.60    8.20
   7   5   6  108.59   12.70
   7   5   6  135.39   17.70
  -8  -5  -6   85.29   15.00
   8   5   6   73.29   11.90
   8   5   6   40.30   17.30
   6  -6  -6   33.50   11.00
   6  -6  -6   26.90   14.40
  -6   6   6   38.60   15.40
  -6   6   6   18.00    7.10
   5  -6  -6   63.99    8.50
   5  -6  -6   44.60   12.70
   5  -6  -6   76.79   11.10
  -5   6   6   43.60    9.80
  -5   6   6   50.49   13.40
   4  -6  -6  191.38   20.20
   4  -6  -6  220.88   16.30
   4  -6  -6  205.18   18.70
   4  -6  -6  190.48   15.20
   4  -6  -6  225.08   14.60
  -4   6   6  205.48   18.70
  -4   6   6  231.18   16.30
   3  -6  -6  100.69   14.00
   3  -6  -6  106.49   13.30
   3  -6  -6  112.79   12.00
   3  -6  -6  130.69   13.20
   3  -6  -6   96.29   11.80
  -3   6   6  126.49   13.10
  -3   6   6  134.29   13.50
   2  -6  -6  261.47   15.10
   2  -6  -6  266.87   19.70
   2  -6  -6  257.17   16.70
   2  -6  -6  249.58   15.00
   2  -6  -6  232.28   18.10
  -2   6   6  251.87   12.20
  -2   6   6  264.57   16.20
  -2   6   6  242.08   16.70
  -2   6   6  262.37   27.60
   1  -6  -6  846.72   33.60
   1  -6  -6  941.51   34.00
   1  -6  -6  883.51   32.80
   1  -6  -6  919.41   34.20
   1  -6  -6  900.11   35.70
  -1   6   6  896.31   36.20
  -1   6   6  939.51   30.70
  -1   6   6  905.41   34.80
  -1   6   6  809.12   35.30
  -1   6   6  870.41   32.90
   0  -6  -6   52.99    9.20
   0  -6  -6   53.09    7.40
   0  -6  -6   52.09    8.10
   0  -6  -6   30.70    6.40
   0  -6  -6   46.20   10.10
   0   6   6   45.20   10.00
   0   6   6   51.89    8.20
   0   6   6   54.39    8.30
   0   6   6   41.00    9.10
   0   6   6   58.59    7.80
  -1  -6  -6  518.85   23.70
  -1  -6  -6  525.55   25.60
  -1  -6  -6  505.65   22.70
  -1  -6  -6  503.95   21.40
  -1  -6  -6  527.95   24.90
   1   6   6  517.75   24.30
   1   6   6  532.05   26.80
   1   6   6  536.55   24.20
   1   6   6  552.04   22.20
  -2  -6  -6  358.16   23.60
  -2  -6  -6  395.56   20.40
  -2  -6  -6  386.76   23.60
  -2  -6  -6  396.16   19.80
  -2  -6  -6  416.96   17.30
   2   6   6  407.06   20.90
   2   6   6  427.56   21.10
   2   6   6  380.76   18.90
   2   6   6  389.36   24.10
  -3  -6  -6    7.50    6.00
  -3  -6  -6    3.20   10.90
  -3  -6  -6    6.00    3.60
  -3  -6  -6   -3.60    5.90
  -3  -6  -6    7.10   10.70
   3   6   6   -0.70    5.60
   3   6   6    0.50   10.50
   3   6   6    4.20    6.00
   3   6   6    2.30    7.60
  -4  -6  -6  740.43   31.40
  -4  -6  -6  702.53   29.70
  -4  -6  -6  708.83   24.10
  -4  -6  -6  722.83   23.20
   4   6   6  718.03   31.40
   4   6   6  709.23   30.10
   4   6   6  718.73   34.00
   4   6   6  709.23   30.40
  -5  -6  -6  188.88   16.40
   5   6   6  195.08   24.50
   5   6   6  189.98   16.20
   5   6   6  204.08   17.90
   5   6   6  182.88   19.90
  -6  -6  -6  115.89   17.40
  -6  -6  -6  167.18   17.80
   6   6   6  134.49   19.10
   6   6   6  139.19   16.10
   6   6   6  109.49   20.20
  -7  -6  -6  136.99   17.70
   7   6   6   99.69   16.90
   7   6   6  125.69   14.30
   5  -7  -6  116.59   16.10
   5  -7  -6  132.79   17.80
   5  -7  -6  134.89   14.70
  -5   7   6   94.19   16.40
   4  -7  -6   38.90    9.40
   4  -7  -6   48.00   11.00
   4  -7  -6   54.09    9.30
  -4   7   6   71.89   10.80
  -4   7   6   43.10   11.40
   3  -7  -6  156.28   14.50
   3  -7  -6  171.98   14.80
   3  -7  -6  144.49   13.80
   3  -7  -6  151.38   16.30
   3  -7  -6  153.08   17.20
  -3   7   6  142.09   16.20
  -3   7   6  166.68   15.30
   2  -7  -6  487.35   23.10
   2  -7  -6  490.25   23.00
   2  -7  -6  468.85   24.20
   2  -7  -6  483.55   27.80
  -2   7   6  462.85   23.40
  -2   7   6  457.55   18.10
  -2   7   6  470.35   23.90
   1  -7  -6   44.80    9.50
   1  -7  -6   31.20    7.50
   1  -7  -6   43.50    7.90
   1  -7  -6   47.50   13.10
   1  -7  -6   37.00    8.10
  -1   7   6   29.80    8.20
  -1   7   6   32.10    5.70
  -1   7   6   35.70    8.20
   0  -7  -6   16.00    6.90
   0  -7  -6    4.40    5.50
   0  -7  -6    3.90    5.50
   0  -7  -6   12.90   10.50
   0  -7  -6   -7.10    8.70
   0   7   6    5.10    6.70
   0   7   6    5.10    4.70
   0   7   6   20.80    7.80
  -1  -7  -6  723.23   29.60
  -1  -7  -6  761.72   34.30
  -1  -7  -6  740.83   32.20
  -1  -7  -6  741.33   31.10
  -1  -7  -6  731.83   28.50
   1   7   6  727.43   28.50
   1   7   6  758.92   31.60
   1   7   6  685.43   32.80
  -2  -7  -6  416.96   26.40
  -2  -7  -6  406.76   31.40
  -2  -7  -6  432.16   18.60
  -2  -7  -6  420.36   22.00
   2   7   6  444.46   23.00
   2   7   6  384.66   24.30
   2   7   6  419.36   21.30
   2   7   6  447.06   27.80
  -3  -7  -6  454.75   18.30
  -3  -7  -6  435.86   23.70
  -3  -7  -6  457.25   23.20
  -3  -7  -6  455.65   40.00
   3   7   6  418.26   23.30
   3   7   6  406.96   27.30
   3   7   6  439.26   22.70
   3   7   6  406.96   28.90
  -4  -7  -6  880.01   28.30
  -4  -7  -6  916.61   37.40
  -4  -7  -6  862.21   28.90
  -4  -7  -6  888.21   36.90
   4   7   6  848.42   36.60
   4   7   6  856.31   36.00
   4   7   6  867.61   41.20
  -5  -7  -6   28.10   10.50
   5   7   6   41.50   18.50
   5   7   6   16.50    9.70
   5   7   6   14.20    8.50
  -6  -7  -6  158.18   19.10
  -6  -7  -6  180.68   30.50
   6   7   6  149.69   18.20
   6   7   6  222.68   24.20
  -7  -7  -6  162.88   20.20
   7   7   6  103.69   21.80
   7   7   6  181.38   21.50
   5  -8  -6  186.48   18.50
   5  -8  -6  155.78   21.30
  -5   8   6  160.78   19.40
   4  -8  -6   69.49   11.70
   4  -8  -6   81.39   14.40
   4  -8  -6  128.39   17.60
  -4   8   6   64.59   12.70
   3  -8  -6   -1.40    7.80
   3  -8  -6   14.50    8.40
   3  -8  -6   -1.30    8.90
  -3   8   6    1.60    8.90
  -3   8   6    3.80    9.80
   2  -8  -6  357.36   31.40
   2  -8  -6  355.56   20.90
   2  -8  -6  369.16   19.60
   2  -8  -6  341.07   20.90
   2  -8  -6  398.36   23.40
  -2   8   6  344.47   14.90
  -2   8   6  360.56   22.30
  -2   8   6  334.17   21.70
   1  -8  -6  263.97   19.10
   1  -8  -6  263.97   27.50
   1  -8  -6  241.58   19.50
   1  -8  -6  275.87   17.60
   1  -8  -6  251.97   18.10
  -1   8   6  228.28   19.10
  -1   8   6  249.18   18.00
  -1   8   6  253.77   13.50
   0  -8  -6  113.49   14.00
   0  -8  -6   65.09    9.80
   0  -8  -6   62.89   15.90
   0  -8  -6   75.09   10.80
   0  -8  -6   75.29   12.50
   0   8   6   77.79   10.90
   0   8   6   86.59   11.90
   0   8   6   88.49   10.50
  -1  -8  -6  820.52   35.70
  -1  -8  -6  813.32   33.70
  -1  -8  -6  752.32   31.90
  -1  -8  -6  844.52   35.00
   1   8   6  841.22   31.80
   1   8   6  836.32   35.90
  -2  -8  -6  234.88   17.20
  -2  -8  -6  215.78   18.40
  -2  -8  -6  204.58   14.20
  -2  -8  -6  218.48   25.50
   2   8   6  209.08   24.80
   2   8   6  195.68   18.30
  -3  -8  -6  231.28   13.80
  -3  -8  -6  268.47   20.30
  -3  -8  -6  192.48   18.30
   3   8   6  255.97   19.60
   3   8   6  252.87   19.20
  -4  -8  -6  300.47   22.80
  -4  -8  -6  302.37   13.60
  -4  -8  -6  301.17   22.20
   4   8   6  316.07   22.20
   4   8   6  265.17   21.60
   4   8   6  280.87   33.00
  -5  -8  -6  -10.70   11.00
  -5  -8  -6    5.10   11.30
   5   8   6  -24.70   19.30
   5   8   6   21.50   11.90
   5   8   6    2.00   10.80
  -6  -8  -6  126.19   16.50
  -6  -8  -6   86.39   14.50
   6   8   6   76.49   14.60
   6   8   6   87.59   17.90
   4  -9  -6   65.09   13.20
   4  -9  -6   46.80   12.90
   4  -9  -6   57.09   26.70
  -4   9   6   55.19   14.10
   3  -9  -6  -11.20    9.40
   3  -9  -6   -2.90   11.30
   3  -9  -6   15.70   10.50
  -3   9   6   10.50   10.40
  -3   9   6    0.90   11.00
   2  -9  -6  128.29   16.70
   2  -9  -6  124.59   15.10
   2  -9  -6   89.69   14.20
   2  -9  -6  120.09   21.20
  -2   9   6  120.69   15.10
  -2   9   6  108.39   14.80
   1  -9  -6  146.79   17.60
   1  -9  -6  136.49   16.40
   1  -9  -6  124.89   14.80
   1  -9  -6  107.89   22.10
  -1   9   6  124.69   14.50
  -1   9   6  145.19   11.30
  -1   9   6  113.49   14.40
   0  -9  -6    3.90    8.00
   0  -9  -6    1.90    7.80
   0  -9  -6   23.00    9.50
   0  -9  -6   22.70   12.80
   0   9   6   10.80   10.00
   0   9   6   11.40    9.60
   0   9   6   -2.60    6.20
  -1  -9  -6  196.08   17.70
  -1  -9  -6  171.98   18.60
  -1  -9  -6  220.28   26.10
  -1  -9  -6  212.28   18.00
   1   9   6  245.48   16.70
   1   9   6  216.68   20.30
  -2  -9  -6   71.89   11.10
  -2  -9  -6   56.69   12.00
  -2  -9  -6   37.40    8.60
   2   9   6   22.10   11.60
   2   9   6   41.80   10.50
  -3  -9  -6   -4.10    6.30
  -3  -9  -6   20.10   11.20
  -3  -9  -6   -0.90   10.10
   3   9   6   13.70    9.60
   3   9   6    8.40   10.60
  -4  -9  -6   59.99   14.00
  -4  -9  -6   93.39   15.10
   4   9   6  100.09   15.80
   4   9   6   76.29   14.40
  -5  -9  -6   63.69   15.00
  -5  -9  -6   95.19   16.60
   5   9   6   72.99   15.70
   5   9   6   52.89   15.60
   2 -10  -6    2.10   10.90
   2 -10  -6   -4.90   11.80
   2 -10  -6   19.90   13.90
  -2  10   6    8.00   11.70
  -2  10   6   -0.50   13.50
   1 -10  -6    4.80   10.50
   1 -10  -6   10.90   11.40
   1 -10  -6   -6.00   11.10
  -1  10   6   -3.20   12.80
  -1  10   6   -4.70   10.40
   0 -10  -6    5.80   11.50
   0 -10  -6   25.00   11.50
   0 -10  -6   35.90   11.40
   0  10   6   25.60    7.70
   0  10   6   38.40   13.70
   0  10   6   36.10   12.10
  -1 -10  -6   27.40   10.50
  -1 -10  -6   27.60   12.20
  -1 -10  -6   46.60   13.60
   1  10   6   37.70   13.80
   1  10   6   50.89   10.40
  -2 -10  -6   14.10   11.20
  -2 -10  -6   37.90   10.00
  -2 -10  -6   37.80   14.20
   2  10   6   16.70   13.30
   2  10   6   21.00   10.30
  -3 -10  -6   70.69   16.60
  -3 -10  -6   81.39   15.70
   3  10   6   24.30   14.50
   3  10   6   66.49   13.90
  -4 -10  -6   31.50   14.50
  -4 -10  -6   21.80   15.50
   4  10   6   45.70   15.40
   2   8  -7  189.38   26.10
  -2  -8   7  214.98   27.90
   1   8  -7   79.89   16.20
  -1  -8   7   86.19   17.50
   0   8  -7  124.89   18.20
   0  -8   7  192.08   25.00
   0  -8   7  179.18   16.80
   1  -8   7  124.09   18.10
   1  -8   7  155.58   18.10
   2  -8   7    8.40   10.90
   2  -8   7   20.40   13.40
   3  -8   7   58.09   14.90
   3  -8   7   58.49   14.90
   3   7  -7    4.00   12.60
   3   7  -7   -2.10   11.40
  -3  -7   7   10.50   12.80
  -3  -7   7    0.10   13.10
   2   7  -7   40.10   12.80
   2   7  -7   44.70   13.10
  -2  -7   7   40.60   13.20
  -2  -7   7   21.20   12.50
   1   7  -7    9.70   11.20
  -1  -7   7   21.50   11.30
  -1  -7   7    3.40    5.80
  -1  -7   7   -5.10   10.70
   0   7  -7  -15.40    9.60
   0   7  -7   -0.70   10.70
   0  -7   7    6.30    7.60
   0  -7   7   12.60   11.10
  -1   7  -7   19.30    9.80
   1  -7   7   34.50   12.50
   1  -7   7   34.20   10.60
  -2   7  -7   12.10   10.00
   2  -7   7   27.10   11.10
   2  -7   7   20.50   10.10
  -3   7  -7   -1.40   11.00
   3  -7   7   28.00   11.10
   3  -7   7   11.00   10.90
  -4   7  -7   20.20   12.10
   4  -7   7   39.40   15.20
   4  -7   7   24.60   11.60
  -5   7  -7   -3.70   11.80
   5  -7   7    1.40   11.30
   5  -7   7   22.10   17.00
   4   6  -7   10.60   11.40
   4   6  -7    4.30   10.40
  -4  -6   7   35.30   13.10
  -4  -6   7   25.60   13.40
   3   6  -7   29.40   11.10
   3   6  -7    0.30   24.90
   3   6  -7   29.30   11.10
  -3  -6   7   30.30   12.60
  -3  -6   7   31.50   12.70
   2   6  -7    9.10    9.10
   2   6  -7   23.60   10.20
  -2  -6   7    8.50   10.50
  -2  -6   7   20.60   10.70
  -2  -6   7   16.40    4.50
   1   6  -7   38.10    9.50
   1   6  -7   39.70    9.40
  -1  -6   7   35.90    7.00
  -1  -6   7   35.00    9.50
  -1  -6   7   41.10   11.20
   0   6  -7  136.39   16.30
   0   6  -7  108.99   14.70
   0  -6   7   86.69   12.50
   0  -6   7  111.59   12.50
   0  -6   7  127.79   14.80
  -1   6  -7   81.99   11.80
  -1   6  -7   91.49   12.50
   1  -6   7  113.19   13.70
   1  -6   7  102.59   14.30
  -2   6  -7    3.70    8.70
  -2   6  -7    1.20   11.80
   2  -6   7   -8.40    7.80
   2  -6   7    8.20    8.20
  -3   6  -7  549.05   27.20
  -3   6  -7  483.85   28.60
   3  -6   7  439.66   34.30
   3  -6   7  498.85   26.60
   3  -6   7  509.95   27.90
  -4   6  -7   80.09    9.50
  -4   6  -7   70.49   14.10
  -4   6  -7   72.19   18.70
   4  -6   7   67.49   13.10
   4  -6   7   70.09   19.60
   4  -6   7   47.20   11.30
  -5   6  -7  193.08   19.10
  -5   6  -7  145.29   17.10
   5  -6   7  170.38   18.40
   5  -6   7  177.88   23.60
  -6   6  -7  141.09   15.50
   6  -6   7  137.89   19.20
   6  -6   7  129.79   20.80
   5   5  -7   -9.70   10.00
   5   5  -7  -14.70   10.30
  -5  -5   7   -7.20    9.00
   4   5  -7   29.90   10.30
   4   5  -7   65.59   11.90
  -4  -5   7   48.10   12.40
  -4  -5   7   41.20   13.10
   3   5  -7   92.59   12.10
   3   5  -7  104.89   12.60
   3   5  -7   82.09   21.00
  -3  -5   7   75.49   12.90
  -3  -5   7   85.39   13.30
   2   5  -7   36.20   18.50
   2   5  -7   40.30    9.00
   2   5  -7   26.50    8.20
  -2  -5   7   37.10   11.00
  -2  -5   7   40.10   10.70
  -2  -5   7   54.49    7.50
  -2  -5   7   47.30    8.00
   1   5  -7   -1.20    7.20
   1   5  -7    1.80    6.30
   1   5  -7    6.40   16.60
  -1  -5   7   -1.10    5.00
  -1  -5   7    6.60    8.20
  -1  -5   7    1.90    8.90
   0   5  -7  144.79   19.70
   0   5  -7  206.28   16.30
   0   5  -7  181.48   15.90
   0  -5   7  198.18   14.00
   0  -5   7  194.88   15.90
   0  -5   7  218.98   17.50
  -1   5  -7  224.88   21.90
  -1   5  -7  219.28   16.80
  -1   5  -7  227.18   16.70
   1  -5   7  196.48   16.80
   1  -5   7  200.18   15.80
   1  -5   7  170.08   23.40
   1  -5   7  229.88   16.00
  -2   5  -7  155.18   15.10
  -2   5  -7  164.28   19.70
  -2   5  -7  196.58   15.90
   2  -5   7  166.38   15.50
   2  -5   7  199.38   19.10
   2  -5   7  127.19   17.10
  -3   5  -7  187.78   20.50
  -3   5  -7  183.18   12.10
  -3   5  -7  171.78   16.10
   3  -5   7  189.08   18.60
   3  -5   7  157.58   15.10
   3  -5   7  170.58   19.00
  -4   5  -7   50.49   12.90
  -4   5  -7   83.29   10.30
  -4   5  -7   74.79   11.20
   4  -5   7   89.59   16.60
   4  -5   7   97.09   13.30
   4  -5   7   56.09   11.60
  -5   5  -7  -11.40    7.70
  -5   5  -7    6.00    9.40
  -5   5  -7  -14.70   11.60
   5  -5   7   -9.40    7.10
   5  -5   7   15.80   11.40
   5  -5   7   16.00   15.80
  -6   5  -7  109.39   14.60
   6  -5   7  139.89   13.20
   6  -5   7  122.69   18.90
   6  -5   7  120.99   13.50
  -7   5  -7   28.20   14.10
   7  -5   7    8.30    9.80
   5   4  -7   48.10   11.70
   5   4  -7   62.19   10.60
  -5  -4   7   49.20   14.20
   4   4  -7  -10.80   21.20
   4   4  -7    6.00    8.30
  -4  -4   7  -11.00    9.70
  -4  -4   7  -11.30    8.10
   3   4  -7  179.18   21.40
   3   4  -7  170.28   16.00
   3   4  -7  168.78   14.90
  -3  -4   7  164.88   17.50
  -3  -4   7  190.78   17.80
   2   4  -7   83.29   16.10
   2   4  -7  108.49   13.10
   2   4  -7  103.09   12.30
  -2  -4   7  104.19   10.10
  -2  -4   7   93.99   12.10
  -2  -4   7  101.79    8.50
  -2  -4   7  138.89   13.80
   1   4  -7   23.10   14.50
   1   4  -7   39.80    8.10
   1   4  -7   26.20    7.30
  -1  -4   7   44.60    9.20
  -1  -4   7   29.10    9.00
  -1  -4   7   33.60    8.10
  -1  -4   7   39.90    6.50
   0   4  -7  194.28   14.70
   0   4  -7  204.78   18.60
   0   4  -7  154.28   18.10
   0  -4   7  163.58   13.90
   0  -4   7  191.48   14.60
   0  -4   7  167.48   18.20
   0  -4   7  149.99   18.70
  -1   4  -7   63.49   11.10
  -1   4  -7   55.79   13.20
  -1   4  -7   78.49    9.70
   1  -4   7   66.59   13.10
   1  -4   7   59.49   11.60
   1  -4   7   59.19    8.60
   1  -4   7   74.69   10.10
  -2   4  -7    3.20    5.30
  -2   4  -7   23.20   13.80
  -2   4  -7    6.80    9.40
  -2   4  -7   11.10    9.50
  -2   4  -7   13.60    6.60
   2  -4   7   12.50    6.70
   2  -4   7   13.80   11.30
   2  -4   7    8.70   10.40
   2  -4   7    1.50    5.90
  -3   4  -7   10.40    7.00
  -3   4  -7   23.60    7.00
  -3   4  -7   12.00   10.00
   3  -4   7   10.90    5.40
   3  -4   7   12.70    6.60
   3  -4   7   21.80   12.00
   3  -4   7    9.40   12.30
  -4   4  -7  220.08   16.00
  -4   4  -7  224.48   16.40
  -4   4  -7  241.18   20.30
   4  -4   7  191.88   16.30
   4  -4   7  239.88   21.90
   4  -4   7  218.48   13.80
  -5   4  -7    3.80    7.30
  -5   4  -7    6.90    9.50
  -5   4  -7    3.30   12.20
   5  -4   7   -6.50   12.70
   5  -4   7    1.40    5.80
   5  -4   7    2.70   10.50
   5  -4   7    0.40    6.80
  -6   4  -7   61.19   10.70
  -6   4  -7   52.29   14.40
  -6   4  -7   71.89   13.30
   6  -4   7   59.99   16.00
   6  -4   7   74.79   10.10
   6  -4   7   61.29    8.80
  -7   4  -7   74.19   15.40
   7  -4   7   72.09   10.20
   7  -4   7   58.69   18.00
   7  -4   7   71.89   10.40
   6   3  -7    5.40    8.50
   6   3  -7   13.00   11.70
  -6  -3   7   24.40    8.80
  -6  -3   7   10.60    9.90
   5   3  -7    6.80    7.30
   5   3  -7    5.80    9.50
  -5  -3   7    4.90   11.80
  -5  -3   7   -6.60   10.20
  -5  -3   7    3.10    6.70
   4   3  -7    5.20   15.80
   4   3  -7   39.60    9.80
   4   3  -7   21.30    7.10
  -4  -3   7   32.30    9.30
  -4  -3   7   25.60   10.70
  -4  -3   7   38.60    6.30
   3   3  -7   -1.90   13.10
   3   3  -7   -8.40    5.20
   3   3  -7    1.40    6.70
  -3  -3   7    6.50    7.40
  -3  -3   7    4.60    9.10
   2   3  -7  119.99   15.50
   2   3  -7  107.69   15.70
   2   3  -7  144.49   12.10
  -2  -3   7  129.79   13.50
  -2  -3   7  123.59    9.60
  -2  -3   7   97.99   11.30
  -2  -3   7  107.39   14.80
   1   3  -7    9.10    9.40
   1   3  -7    9.40    5.40
   1   3  -7    5.00   11.60
   1   3  -7   -0.10    5.30
  -1  -3   7    2.50    6.90
  -1  -3   7    9.20    8.80
  -1  -3   7   -1.10    5.70
  -1  -3   7   -8.40    8.90
  -1  -3   7   -0.50    6.00
   0   3  -7   21.90   10.50
   0   3  -7   16.10    9.10
   0   3  -7   10.60    5.50
   0   3  -7   17.40    6.20
   0  -3   7   19.70    7.30
   0  -3   7   23.20    6.70
   0  -3   7   20.60    8.40
   0  -3   7   10.90    8.60
   0  -3   7   32.70    9.90
  -1   3  -7    4.60    5.10
  -1   3  -7    2.80    7.90
  -1   3  -7   -1.30    4.70
  -1   3  -7   -2.80    4.90
  -1   3  -7   -1.50   10.70
   1  -3   7    5.90    8.40
   1  -3   7   -1.00    5.70
   1  -3   7    0.20    5.00
   1  -3   7    2.20    7.50
  -2   3  -7  108.89   10.80
  -2   3  -7   91.99   11.40
  -2   3  -7   95.49   14.10
  -2   3  -7   91.09   10.40
  -2   3  -7   90.99    9.90
   2  -3   7  127.39   13.90
   2  -3   7  115.29    9.70
   2  -3   7  114.09   10.90
   2  -3   7   95.09   12.50
   2  -3   7  107.09   10.20
  -3   3  -7   22.80    9.90
  -3   3  -7   38.70    7.50
  -3   3  -7   26.50   12.20
  -3   3  -7   19.80    7.90
  -3   3  -7   18.70    6.30
   3  -3   7   31.20    5.50
   3  -3   7   17.80    9.40
   3  -3   7   13.60    4.90
   3  -3   7   29.20    7.20
   3  -3   7   16.20    8.50
  -4   3  -7   29.90    7.20
  -4   3  -7   31.70    9.40
  -4   3  -7   37.80   11.20
   4  -3   7   27.00   11.00
   4  -3   7   33.60    6.30
   4  -3   7   36.60    7.50
   4  -3   7   26.30   10.10
  -5   3  -7   12.10   11.60
  -5   3  -7   13.50    9.80
  -5   3  -7   26.20    7.50
   5  -3   7   18.50    6.90
   5  -3   7    0.70   10.40
   5  -3   7   27.80    6.50
   5  -3   7   22.20   15.20
  -6   3  -7   12.20   11.00
  -6   3  -7    9.80    7.70
  -6   3  -7    4.60   13.10
   6  -3   7    5.00    6.50
   6  -3   7    6.90   13.70
   6  -3   7   -2.30    6.50
   6  -3   7    7.90   12.00
  -7   3  -7   20.00   12.90
   7  -3   7   23.50   15.10
   7  -3   7    7.10    9.10
   7  -3   7   10.70    7.40
  -8   3  -7   11.70   10.70
   8  -3   7  -10.80    7.10
   8  -3   7    4.00    9.20
   8  -3   7   27.90   18.90
   6   2  -7    9.70    7.10
   6   2  -7   22.80   11.30
  -6  -2   7    5.50    8.10
  -6  -2   7    1.70   13.30
   5   2  -7  104.49   13.00
  -5  -2   7  116.09   11.50
  -5  -2   7   99.19   11.80
  -5  -2   7   87.19   14.40
   4   2  -7  124.89   16.40
   4   2  -7  151.08   12.20
   4   2  -7  155.38   15.10
  -4  -2   7  132.99   14.80
  -4  -2   7  115.99   14.80
  -4  -2   7  134.79   10.30
   3   2  -7   59.89    8.00
   3   2  -7   66.89    9.70
   3   2  -7   55.79   13.60
  -3  -2   7   30.30   13.00
  -3  -2   7   52.39    6.90
  -3  -2   7   63.59    9.20
  -3  -2   7   48.50   10.30
   2   2  -7    5.00    5.50
   2   2  -7   14.10    9.50
   2   2  -7    4.20   10.30
   2   2  -7    8.80    5.90
  -2  -2   7   18.80    9.90
  -2  -2   7   12.40    6.30
  -2  -2   7    2.40    7.10
  -2  -2   7   14.20    4.80
  -2  -2   7   21.00   10.10
   1   2  -7   -4.60    9.50
   1   2  -7    3.60    4.60
   1   2  -7   -5.80    7.80
   1   2  -7    4.30    5.10
  -1  -2   7   -2.20    8.30
  -1  -2   7   -2.30    4.60
  -1  -2   7    0.40    6.70
  -1  -2   7    2.90    8.00
   0   2  -7   54.19    7.20
   0   2  -7   58.69   11.40
   0   2  -7   65.29    7.90
   0   2  -7   57.59   10.10
   0  -2   7   58.49    9.50
   0  -2   7   51.99    8.10
   0  -2   7   58.09    8.50
   0  -2   7   62.29   10.70
   0  -2   7   66.09    9.00
  -1   2  -7    7.20    7.70
  -1   2  -7   14.00    8.90
  -1   2  -7   13.30    4.50
  -1   2  -7   14.90    5.20
   1  -2   7    5.10    7.20
   1  -2   7    5.30    5.60
   1  -2   7   15.10    7.80
   1  -2   7   11.60    6.00
  -2   2  -7   12.60    4.60
  -2   2  -7   12.20    6.40
  -2   2  -7    7.60    5.20
  -2   2  -7   15.50   10.00
  -2   2  -7   16.00    7.70
   2  -2   7   23.30    5.90
   2  -2   7   24.10    7.90
   2  -2   7   12.50    4.00
   2  -2   7   29.10    6.50
   2  -2   7   15.90    8.50
  -3   2  -7  106.69   11.90
  -3   2  -7   88.89   10.10
  -3   2  -7   93.19    9.40
  -3   2  -7   86.19   12.10
  -3   2  -7  114.69   12.30
   3  -2   7   92.59   10.60
   3  -2   7  110.49   14.60
   3  -2   7   76.39   10.80
   3  -2   7   85.49    9.20
   3  -2   7   93.69    8.40
  -4   2  -7    2.20    9.10
  -4   2  -7    5.40    5.70
  -4   2  -7   12.10   11.30
  -4   2  -7   14.10    8.30
   4  -2   7    4.00    7.80
   4  -2   7    5.00    4.60
   4  -2   7   -0.80    5.30
   4  -2   7   -5.30    8.90
  -5   2  -7    0.10    9.00
  -5   2  -7   13.20    6.50
  -5   2  -7    5.10   11.50
   5  -2   7   -4.20    5.50
   5  -2   7    7.70    9.20
   5  -2   7    5.10    5.50
   5  -2   7   11.50    9.90
  -6   2  -7    9.50    7.20
  -6   2  -7    9.20   12.80
  -6   2  -7   -3.10   10.40
   6  -2   7   10.20    6.30
   6  -2   7    1.80   10.30
   6  -2   7    9.70    6.90
   6  -2   7    1.50   10.70
  -7   2  -7   11.20   12.40
   7  -2   7   12.50   12.60
   7  -2   7   15.60    8.50
   7  -2   7    9.50    6.90
  -8   2  -7   -8.20    9.50
   8  -2   7  -15.10    9.90
   8  -2   7    1.50    6.10
   8  -2   7   -1.60   16.00
   6   1  -7   99.89   11.20
   6   1  -7   99.19   13.50
  -6  -1   7  106.59   16.40
  -6  -1   7   86.29   10.70
   5   1  -7    4.90   13.00
   5   1  -7   16.50    8.90
   5   1  -7   30.60    6.90
  -5  -1   7   33.30    8.70
  -5  -1   7   47.40    7.80
  -5  -1   7   22.30   10.80
   4   1  -7  341.87   17.40
   4   1  -7  350.96   20.50
   4   1  -7  371.16   24.00
  -4  -1   7  364.36   22.70
  -4  -1   7  391.26   15.70
  -4  -1   7  386.96   16.30
  -4  -1   7  362.66   20.00
   3   1  -7   34.70   11.50
   3   1  -7   32.30   11.20
   3   1  -7   24.70    8.10
   3   1  -7   41.80    6.80
  -3  -1   7   39.90    5.70
  -3  -1   7   33.70    7.60
  -3  -1   7   38.20   12.10
  -3  -1   7   24.30    8.90
  -3  -1   7   26.00   10.50
   2   1  -7  157.08   12.30
   2   1  -7  131.69   11.20
   2   1  -7  176.38   18.80
   2   1  -7  154.88   15.90
  -2  -1   7  136.79   13.80
  -2  -1   7  149.09    9.70
  -2  -1   7  157.18   17.20
  -2  -1   7  160.08   16.20
  -2  -1   7  154.18   12.60
   1   1  -7  342.97   16.60
   1   1  -7  320.57   15.90
   1   1  -7  306.87   18.60
   1   1  -7  293.47   20.70
  -1  -1   7  313.67   16.80
  -1  -1   7  310.97   15.10
  -1  -1   7  308.27   19.00
  -1  -1   7  323.87   17.20
  -1  -1   7  312.07   18.30
   0   1  -7  174.18   14.50
   0   1  -7  186.28   11.50
   0   1  -7  171.28   11.50
   0   1  -7  198.08   17.40
   0  -1   7  186.78   12.90
   0  -1   7  183.68   11.20
   0  -1   7  182.58   14.80
   0  -1   7  193.48   13.30
   0  -1   7  192.38   15.60
   0  -1   7  187.48   12.70
  -1   1  -7   26.90    5.40
  -1   1  -7    5.50    7.80
  -1   1  -7   11.70    6.70
  -1   1  -7   16.40    5.20
   1  -1   7   12.30    5.60
   1  -1   7   18.70    5.70
   1  -1   7    9.30    6.50
   1  -1   7   15.40    7.00
   1  -1   7   12.00    7.00
   1  -1   7    9.50    4.10
  -2   1  -7  449.06   22.10
  -2   1  -7  431.76   22.40
  -2   1  -7  483.05   19.50
  -2   1  -7  469.05   20.20
   2  -1   7  466.05   17.60
   2  -1   7  425.96   21.20
   2  -1   7  461.55   21.10
   2  -1   7  460.65   23.10
   2  -1   7  456.65   20.70
   2  -1   7  427.46   19.10
  -3   1  -7    5.60    7.00
  -3   1  -7    6.40    5.00
  -3   1  -7    9.20    4.30
  -3   1  -7   13.30    7.70
  -3   1  -7    2.30    9.10
   3  -1   7   11.30    5.40
   3  -1   7    8.50    6.60
   3  -1   7    8.90    4.20
   3  -1   7   10.70    5.00
   3  -1   7    8.80    7.90
  -4   1  -7   11.70    5.60
  -4   1  -7   21.20   11.00
  -4   1  -7    7.30    4.20
  -4   1  -7    2.20    7.90
  -4   1  -7    0.80    8.40
   4  -1   7    4.50    4.60
   4  -1   7    9.00   13.30
   4  -1   7    6.60    5.40
   4  -1   7    7.50    7.20
  -5   1  -7  -11.30   10.40
  -5   1  -7  -11.40    8.80
  -5   1  -7   11.20   11.40
  -5   1  -7   -8.60    5.50
   5  -1   7   -1.90    7.30
   5  -1   7    5.00    9.00
   5  -1   7    9.40    6.00
   5  -1   7   -0.70    5.40
  -6   1  -7   61.39    8.70
  -6   1  -7   38.50   12.10
  -6   1  -7   46.40   14.60
   6  -1   7   56.39   11.30
   6  -1   7   56.39    8.10
   6  -1   7   64.99   11.60
   6  -1   7   46.30   10.10
  -7   1  -7   26.30   13.60
  -7   1  -7   52.89   10.30
   7  -1   7   27.50   11.40
   7  -1   7   40.90    7.60
   7  -1   7   40.70   10.30
  -8   1  -7    4.50    9.60
   8  -1   7   23.70    6.30
   8  -1   7   18.60   10.60
   6   0  -7   46.00   12.10
  -6   0   7   27.20   12.90
  -6   0   7   35.70    9.00
   5   0  -7   -2.10    8.10
   5   0  -7   -4.70    9.30
   5   0  -7    7.90    5.20
  -5   0   7   -0.70    6.30
  -5   0   7   12.00   10.60
  -5   0   7    0.80    6.70
   4   0  -7   27.50    5.60
   4   0  -7   14.30   12.60
   4   0  -7   14.70    7.30
   4   0  -7   13.20    5.70
   4   0  -7   23.60   10.20
  -4   0   7   24.80    7.30
  -4   0   7   25.40    9.40
  -4   0   7   14.50   12.70
  -4   0   7   23.00    6.00
  -4   0   7   24.70    7.30
   3   0  -7  486.85   22.80
   3   0  -7  528.55   21.10
   3   0  -7  511.35   19.90
   3   0  -7  473.35   25.00
   3   0  -7  496.85   25.00
  -3   0   7  434.06   26.00
  -3   0   7  487.45   22.60
  -3   0   7  543.25   25.20
  -3   0   7  482.25   19.60
  -3   0   7  466.85   23.50
   2   0  -7  148.09   10.50
   2   0  -7  147.89   16.30
   2   0  -7  143.19   15.20
   2   0  -7  143.59   10.30
   2   0  -7  131.99   11.30
  -2   0   7  151.28   12.40
  -2   0   7  143.19   13.30
  -2   0   7  171.38   15.40
  -2   0   7  155.08   16.90
  -2   0   7  135.19   11.00
   1   0  -7  324.87   15.50
   1   0  -7  280.77   15.30
   1   0  -7  308.87   18.00
   1   0  -7  311.47   19.20
  -1   0   7  305.87   16.30
  -1   0   7  319.27   16.90
  -1   0   7  301.67   14.60
  -1   0   7  307.27   18.00
  -1   0   7  297.37   18.00
   0   0  -7  319.87   15.30
   0   0  -7  332.57   19.70
   0   0  -7  292.97   15.30
   0   0  -7  309.87   17.80
   0   0   7  351.96   18.50
   0   0   7  314.97   15.60
   0   0   7  319.37   15.10
   0   0   7  317.77   16.70
   0   0   7  331.37   17.80
   0   0   7  309.57   15.30
  -1   0  -7   12.60    7.20
  -1   0  -7    1.50    3.60
  -1   0  -7   22.40    5.20
  -1   0  -7   15.50    8.40
   1   0   7    9.10    5.00
   1   0   7   13.20    6.30
   1   0   7   10.40    6.90
   1   0   7    1.90    3.40
   1   0   7   12.50    6.50
   1   0   7    5.10    4.60
  -2   0  -7    6.60    7.50
  -2   0  -7    9.40    6.90
  -2   0  -7    4.20    4.10
  -2   0  -7    8.40    3.60
   2   0   7   13.40    7.40
   2   0   7   11.50    5.90
   2   0   7   20.90    7.40
   2   0   7   21.30    5.30
   2   0   7    9.50    3.80
   2   0   7    1.80    4.40
  -3   0  -7  141.99    9.60
  -3   0  -7  127.69   15.40
  -3   0  -7  150.38   11.50
  -3   0  -7  143.79   15.10
   3   0   7  133.19   14.10
   3   0   7  133.49   10.20
   3   0   7  156.68   11.50
   3   0   7  134.19   16.00
   3   0   7  138.59    9.40
   3   0   7  147.69   12.40
  -4   0  -7  134.69   16.90
  -4   0  -7  109.49    9.40
  -4   0  -7  122.09   16.50
  -4   0  -7  143.69   11.50
  -4   0  -7  126.19   14.30
   4   0   7  114.09   17.40
   4   0   7  153.18   11.40
   4   0   7  136.19   12.50
   4   0   7  130.29    8.90
   4   0   7  140.49   16.60
   4   0   7  144.09   11.00
  -5   0  -7   43.10   11.10
  -5   0  -7   27.80   11.30
  -5   0  -7   33.60   10.80
  -5   0  -7   34.10    7.20
   5   0   7   43.40    5.60
   5   0   7   37.20    7.80
   5   0   7   29.30    9.40
   5   0   7   44.10    7.60
   5   0   7   36.10    7.50
  -6   0  -7  127.29   18.80
  -6   0  -7  149.19   18.80
  -6   0  -7  121.89   11.90
   6   0   7  124.89   15.30
   6   0   7  146.19   16.80
   6   0   7  137.29   14.00
   6   0   7  119.39   14.50
  -7   0  -7   63.09   15.20
  -7   0  -7   41.30    8.40
   7   0   7   45.70   10.20
   7   0   7   52.09   10.30
   7   0   7   53.69    8.20
  -8   0  -7   16.00   10.00
   8   0   7   17.60    6.40
   8   0   7    0.00   10.20
   7  -1  -7  -17.40   12.20
  -7   1   7  -35.70   15.10
  -7   1   7    2.50    6.40
   6  -1  -7   -4.50    5.50
   6  -1  -7   -0.60    9.60
  -6   1   7    4.80    7.80
  -6   1   7    9.10   12.40
   5  -1  -7   32.70    5.90
   5  -1  -7   36.20    9.70
   5  -1  -7   28.60    9.30
   5  -1  -7   27.70    6.20
  -5   1   7   31.30   11.60
  -5   1   7   28.70   10.60
  -5   1   7   28.70    7.50
  -5   1   7   39.70    7.80
   4  -1  -7   79.09    9.10
   4  -1  -7   81.49   12.80
   4  -1  -7   78.19   10.20
   4  -1  -7   92.89    9.70
   4  -1  -7   59.29   10.70
  -4   1   7   76.69   11.90
  -4   1   7   74.99    9.90
  -4   1   7   55.89   11.00
  -4   1   7   78.79    9.60
  -4   1   7   71.19    8.10
   3  -1  -7   62.29   10.30
   3  -1  -7   75.69    8.50
   3  -1  -7   75.79   10.00
   3  -1  -7   72.39   10.80
   3  -1  -7   83.19    8.80
  -3   1   7   70.69    8.40
  -3   1   7   97.69   13.80
  -3   1   7   82.39   11.00
  -3   1   7   47.10    8.20
  -3   1   7   68.89    9.80
   2  -1  -7    3.30    7.60
   2  -1  -7   10.60    4.40
   2  -1  -7    7.40    4.70
   2  -1  -7    8.80    7.50
   2  -1  -7   -1.10    4.20
  -2   1   7   10.20    7.70
  -2   1   7    4.70    6.50
  -2   1   7    8.10    5.20
  -2   1   7   24.20    6.10
  -2   1   7   17.40    9.00
   1  -1  -7    9.50    4.00
   1  -1  -7    9.20    6.70
   1  -1  -7    6.60    4.20
   1  -1  -7    9.30    4.60
   1  -1  -7    8.90    8.20
  -1   1   7    6.00    5.70
  -1   1   7   12.30    4.10
  -1   1   7    9.50    5.10
  -1   1   7    7.10    5.20
  -1   1   7   13.10    6.90
  -1   1   7   14.10    7.50
   0  -1  -7    3.50    3.40
   0  -1  -7    7.40    6.80
   0  -1  -7   11.00    4.00
   0  -1  -7   12.70    6.70
   0  -1  -7    7.50    4.20
   0   1   7    6.20    4.80
   0   1   7    8.70    5.40
   0   1   7    3.30    5.10
   0   1   7    7.70    6.70
   0   1   7   20.00    4.40
   0   1   7   11.10    6.50
  -1  -1  -7   38.30    7.70
  -1  -1  -7   33.00    5.10
  -1  -1  -7   37.70    5.60
  -1  -1  -7   39.60    8.70
   1   1   7   39.90    6.00
   1   1   7   31.50    5.70
   1   1   7   26.30    6.50
   1   1   7   34.30    5.50
   1   1   7   49.30    7.80
   1   1   7   20.80    6.50
  -2  -1  -7  103.39    9.60
  -2  -1  -7  112.69   12.00
  -2  -1  -7  122.99    8.50
  -2  -1  -7  132.39   12.90
   2   1   7  120.39   11.00
   2   1   7  111.09    9.50
   2   1   7  116.09   11.80
   2   1   7  113.19   12.40
   2   1   7  133.19    9.40
   2   1   7  110.19    9.10
  -3  -1  -7   37.70    5.30
  -3  -1  -7   30.60    8.40
  -3  -1  -7   38.40    9.10
  -3  -1  -7   41.90    6.50
   3   1   7   27.20    6.60
   3   1   7   33.10    8.00
   3   1   7   31.10    5.50
   3   1   7   29.50    5.90
   3   1   7   32.80    8.70
   3   1   7   36.00    6.60
  -4  -1  -7   84.19   11.20
  -4  -1  -7  114.79   10.60
  -4  -1  -7   85.79   12.50
  -4  -1  -7   93.09    7.60
   4   1   7   80.89   12.00
   4   1   7  100.49   10.10
   4   1   7   94.59   12.70
   4   1   7   91.99   10.20
   4   1   7   91.29    8.80
  -5  -1  -7   25.90   10.90
  -5  -1  -7   31.80   12.30
  -5  -1  -7   29.90   10.20
  -5  -1  -7   36.70    6.80
   5   1   7   30.20    6.00
   5   1   7   28.50   12.30
   5   1   7   35.90    9.70
   5   1   7   19.90    6.60
   5   1   7   44.00    8.20
   5   1   7   39.80    7.00
  -6  -1  -7   15.50    6.90
  -6  -1  -7    6.80   11.10
   6   1   7   20.60    9.80
   6   1   7   27.80    7.10
   6   1   7   15.70    7.50
   6   1   7   10.90    7.50
   6   1   7   13.00    6.30
  -7  -1  -7   24.00   12.90
  -7  -1  -7   35.70    8.50
   7   1   7   30.20    8.40
   7   1   7   20.20   13.30
   7   1   7   19.70    7.70
   7   1   7   22.90    9.50
  -8  -1  -7  196.88   20.20
   8   1   7  171.88   13.60
   8   1   7  192.58   20.90
   6  -2  -7   11.50   11.00
   6  -2  -7   42.00    7.70
  -6   2   7   35.40   13.10
  -6   2   7   39.80    9.30
   5  -2  -7   12.10    8.20
   5  -2  -7   11.80    5.10
   5  -2  -7   17.90    6.20
   5  -2  -7   12.60   12.90
   5  -2  -7    8.90    8.30
  -5   2   7    6.90    6.60
  -5   2   7   21.30   12.30
  -5   2   7   14.30    6.90
  -5   2   7   12.40   10.70
   4  -2  -7  184.28   12.00
   4  -2  -7  186.58   12.10
   4  -2  -7  176.18   15.70
   4  -2  -7  174.98   18.90
   4  -2  -7  173.28   16.80
  -4   2   7  211.38   14.50
  -4   2   7  167.58   17.50
  -4   2   7  183.08   12.10
  -4   2   7  173.48   16.90
  -4   2   7  141.89   17.70
   3  -2  -7    8.30    4.60
   3  -2  -7    8.60    6.30
   3  -2  -7    3.50    8.00
   3  -2  -7   18.40    9.00
   3  -2  -7   12.60    5.10
  -3   2   7   16.20    6.50
  -3   2   7   -3.10    7.90
  -3   2   7   12.80    7.50
  -3   2   7   15.00   11.60
  -3   2   7    3.50    8.00
   2  -2  -7  122.19    9.30
   2  -2  -7  111.89   14.20
   2  -2  -7  122.49   11.20
   2  -2  -7  108.79    9.80
   2  -2  -7  117.09   13.10
  -2   2   7  127.29   16.30
  -2   2   7  115.59   11.20
  -2   2   7   97.89   10.90
  -2   2   7  122.69   10.90
  -2   2   7   93.99   11.00
   1  -2  -7  134.09   10.20
   1  -2  -7  134.69   10.10
   1  -2  -7  142.59   13.50
   1  -2  -7  145.59   11.00
   1  -2  -7  140.59   14.40
  -1   2   7  157.78   13.70
  -1   2   7  140.39   14.90
  -1   2   7  150.68   12.10
  -1   2   7  165.08   10.30
  -1   2   7  162.88   12.10
  -1   2   7  150.48   11.00
   0  -2  -7   42.50    8.80
   0  -2  -7   35.80    5.60
   0  -2  -7   45.40    6.50
   0  -2  -7   34.40    6.10
   0  -2  -7   33.10    7.60
   0   2   7   33.90    5.20
   0   2   7   51.09    7.40
   0   2   7   28.50    6.10
   0   2   7   27.70    7.00
   0   2   7   21.80    7.20
   0   2   7   35.80    6.90
  -1  -2  -7    4.50    6.40
  -1  -2  -7    3.10    4.20
  -1  -2  -7   -1.90    6.70
  -1  -2  -7    9.10    4.60
  -1  -2  -7    6.30    3.40
   1   2   7    5.70    4.90
   1   2   7    1.10    4.00
   1   2   7    7.40    5.50
   1   2   7    6.00    5.80
   1   2   7    2.10    6.70
   1   2   7   10.10    3.90
  -2  -2  -7   92.19    7.40
  -2  -2  -7   90.99   12.70
  -2  -2  -7  101.19   11.40
  -2  -2  -7   76.79    8.80
   2   2   7   76.49    8.30
   2   2   7   67.99    7.00
   2   2   7   82.89   10.00
   2   2   7   60.49    8.10
   2   2   7   85.89   11.20
   2   2   7   83.59   11.20
  -3  -2  -7   49.70    9.90
  -3  -2  -7   45.80   10.10
  -3  -2  -7   43.30    5.90
  -3  -2  -7   38.80    6.70
   3   2   7   38.10    8.40
   3   2   7   37.60    6.30
   3   2   7   54.19    7.50
   3   2   7   48.80    6.20
   3   2   7   40.20    8.70
   3   2   7   43.50    6.40
  -4  -2  -7    8.70    9.60
  -4  -2  -7   10.80    9.50
  -4  -2  -7   16.00    5.50
   4   2   7   -7.10    4.70
   4   2   7    0.90    4.80
   4   2   7    8.90    5.10
   4   2   7   12.60    5.50
   4   2   7    6.50    8.00
   4   2   7    8.20    9.20
  -5  -2  -7   -5.00   10.00
  -5  -2  -7    4.00    9.00
  -5  -2  -7   -3.10    5.20
  -5  -2  -7   18.90   12.30
   5   2   7    2.10    8.60
   5   2   7    3.80    5.70
   5   2   7    4.90    4.80
   5   2   7   -8.20   10.30
  -6  -2  -7   42.20    8.10
  -6  -2  -7   30.00   12.10
   6   2   7   47.80    8.00
   6   2   7   38.10    4.90
   6   2   7   35.90   10.60
   6   2   7   41.40    9.30
  -7  -2  -7    5.70   12.70
  -7  -2  -7    1.90    7.20
   7   2   7   -1.40    8.80
   7   2   7   27.80    7.90
  -8  -2  -7   56.19   13.20
   8   2   7   52.49   13.70
   8   2   7   47.50    8.90
   6  -3  -7  101.99   14.80
   6  -3  -7   65.69   13.70
  -6   3   7   56.29   14.30
  -6   3   7   65.49   11.80
   5  -3  -7   14.90    8.60
   5  -3  -7   -7.00    5.60
   5  -3  -7    3.00   12.30
   5  -3  -7   11.30    5.30
   5  -3  -7    0.80    8.10
  -5   3   7   17.50   13.70
  -5   3   7    8.90   11.10
  -5   3   7    0.10    6.60
  -5   3   7  -11.60    6.50
   4  -3  -7  339.97   20.70
   4  -3  -7  331.07   20.00
   4  -3  -7  340.97   16.80
   4  -3  -7  351.56   17.20
   4  -3  -7  325.87   21.40
  -4   3   7  342.37   17.10
  -4   3   7  345.47   22.80
  -4   3   7  322.17   18.50
  -4   3   7  329.87   21.30
   3  -3  -7  170.98   14.40
   3  -3  -7  170.08   16.20
   3  -3  -7  161.88   12.10
   3  -3  -7  163.78   11.80
   3  -3  -7  180.48   16.30
  -3   3   7  122.79   16.00
  -3   3   7  161.18   17.00
  -3   3   7  170.88   15.70
  -3   3   7  145.19   14.50
  -3   3   7  166.88   13.30
   2  -3  -7   73.49    9.00
   2  -3  -7   79.79    8.30
   2  -3  -7   53.39    8.20
   2  -3  -7   60.09   10.50
   2  -3  -7   72.19   10.00
  -2   3   7   68.49    9.30
  -2   3   7   73.29   10.80
  -2   3   7   61.39    8.50
  -2   3   7   66.99    9.20
  -2   3   7   81.09   12.40
   1  -3  -7  568.54   23.40
   1  -3  -7  551.54   24.20
   1  -3  -7  600.64   23.30
   1  -3  -7  591.84   25.70
   1  -3  -7  566.64   23.70
  -1   3   7  578.44   24.60
  -1   3   7  576.24   25.50
  -1   3   7  606.64   22.50
  -1   3   7  537.45   22.90
  -1   3   7  570.94   26.50
  -1   3   7  593.24   23.50
   0  -3  -7   11.00    4.50
   0  -3  -7    9.70    4.30
   0  -3  -7   20.30    7.40
   0  -3  -7   12.00    7.20
   0  -3  -7   10.60    4.90
   0   3   7    4.90    6.80
   0   3   7   14.80    6.10
   0   3   7   13.00    7.50
   0   3   7   14.30    4.30
   0   3   7    8.00    4.50
   0   3   7   19.90    5.90
  -1  -3  -7  195.68   16.20
  -1  -3  -7  198.68   11.40
  -1  -3  -7  198.98   12.90
  -1  -3  -7  205.18   12.30
  -1  -3  -7  206.08   15.30
   1   3   7  199.48   15.70
   1   3   7  227.48   13.20
   1   3   7  198.48   13.90
   1   3   7  174.38   13.30
   1   3   7  212.38   12.50
   1   3   7  222.18   12.10
  -2  -3  -7   52.79    8.10
  -2  -3  -7   47.10    9.50
  -2  -3  -7   59.19   10.00
  -2  -3  -7   49.40    6.60
  -2  -3  -7   48.10    6.90
   2   3   7   55.79    7.80
   2   3   7   33.40    6.20
   2   3   7   59.29    9.00
   2   3   7   57.49    9.60
   2   3   7   53.39    7.00
   2   3   7   56.69    7.50
  -3  -3  -7  331.47   21.30
  -3  -3  -7  302.27   19.00
  -3  -3  -7  347.57   17.50
  -3  -3  -7  350.36   14.00
   3   3   7  347.27   17.60
   3   3   7  328.27   17.60
   3   3   7  352.86   19.40
   3   3   7  353.36   16.00
   3   3   7  330.37   15.30
   3   3   7  359.56   19.90
  -4  -3  -7    1.80    9.20
  -4  -3  -7   21.20   11.10
  -4  -3  -7    7.30    2.80
  -4  -3  -7   17.10    6.00
   4   3   7   19.70    9.30
   4   3   7   15.50    6.30
   4   3   7   13.10    5.10
   4   3   7   -0.70    7.90
   4   3   7   12.10    6.10
  -5  -3  -7  115.09   12.70
   5   3   7  133.79   13.60
   5   3   7  136.59   16.30
   5   3   7   87.09   13.10
  -6  -3  -7   42.20   13.20
  -6  -3  -7   48.80    9.20
   6   3   7   42.90   11.70
   6   3   7   36.90    8.30
   6   3   7   33.70    9.30
  -7  -3  -7   -7.10    7.50
  -7  -3  -7   -2.30   12.00
   7   3   7    2.90    7.30
   7   3   7   20.10   10.10
  -8  -3  -7   19.00   11.20
   8   3   7   44.50   13.90
   8   3   7   25.20    8.80
   6  -4  -7  109.49   16.20
   6  -4  -7  108.09   15.20
  -6   4   7  110.69   11.40
  -6   4   7  104.99   17.20
   5  -4  -7    5.80   12.20
   5  -4  -7   -9.80    9.10
   5  -4  -7  -10.00    7.60
   5  -4  -7   10.80    7.20
  -5   4   7    4.90   11.40
  -5   4   7    4.60    7.60
   4  -4  -7   79.09   11.20
   4  -4  -7   52.39   10.10
   4  -4  -7   51.19   11.10
   4  -4  -7   77.19   11.20
  -4   4   7  105.69   12.80
  -4   4   7   64.39   11.50
  -4   4   7   63.39   13.80
   3  -4  -7  575.34   26.70
   3  -4  -7  602.54   24.40
   3  -4  -7  569.04   26.90
   3  -4  -7  623.44   24.40
   3  -4  -7  557.44   25.50
  -3   4   7  556.14   27.30
  -3   4   7  583.14   28.50
  -3   4   7  572.34   26.10
  -3   4   7  586.44   25.50
   2  -4  -7   91.99   10.60
   2  -4  -7   93.79   10.40
   2  -4  -7   99.69   11.40
   2  -4  -7   88.49    9.80
  -2   4   7   86.79    8.50
  -2   4   7  110.19   12.30
  -2   4   7  119.29   11.40
  -2   4   7   92.79   12.10
  -2   4   7   92.19   14.10
   1  -4  -7  400.46   18.60
   1  -4  -7  409.16   19.10
   1  -4  -7  389.26   21.90
   1  -4  -7  407.16   20.20
   1  -4  -7  407.86   19.00
  -1   4   7  419.96   19.20
  -1   4   7  415.26   22.50
  -1   4   7  395.66   17.00
  -1   4   7  396.26   19.60
  -1   4   7  426.06   21.90
  -1   4   7  403.46   19.90
   0  -4  -7  778.72   29.10
   0  -4  -7  766.12   30.40
   0  -4  -7  810.62   29.80
   0  -4  -7  757.62   29.60
   0  -4  -7  789.92   31.80
   0   4   7  782.12   28.20
   0   4   7  780.82   30.70
   0   4   7  787.52   28.90
   0   4   7  748.13   29.50
   0   4   7  772.02   30.50
  -1  -4  -7  128.49   10.60
  -1  -4  -7  114.69    9.70
  -1  -4  -7   88.89   11.00
  -1  -4  -7   92.49    8.80
  -1  -4  -7  111.09   13.80
   1   4   7   82.49   10.30
   1   4   7  107.49   10.40
   1   4   7  107.89    9.40
   1   4   7  101.59   11.70
   1   4   7  117.69   12.60
   1   4   7   95.59   11.80
  -2  -4  -7  576.34   26.90
  -2  -4  -7  567.54   25.10
  -2  -4  -7  595.24   21.90
  -2  -4  -7  595.24   24.50
  -2  -4  -7  562.04   26.70
   2   4   7  564.64   23.20
   2   4   7  560.24   24.90
   2   4   7  589.54   26.40
   2   4   7  583.54   24.60
   2   4   7  590.04   22.30
   2   4   7  575.14   23.90
  -3  -4  -7  762.72   25.40
  -3  -4  -7  720.43   30.60
  -3  -4  -7  775.12   31.40
  -3  -4  -7  732.23   29.50
  -3  -4  -7  730.13   33.10
   3   4   7  724.43   29.20
   3   4   7  772.02   30.90
   3   4   7  737.73   30.70
   3   4   7  741.13   30.20
  -4  -4  -7   50.59    8.10
  -4  -4  -7   54.89    4.90
  -4  -4  -7   35.90   10.90
  -4  -4  -7   28.40   11.90
   4   4   7   37.70    9.40
   4   4   7   48.20   10.70
   4   4   7   28.70   10.70
  -5  -4  -7  146.19   14.30
   5   4   7  164.58   14.30
   5   4   7  164.78   15.80
   5   4   7  106.79   14.10
   5   4   7  169.18   19.80
  -6  -4  -7  123.39   13.80
  -6  -4  -7  102.69   14.90
   6   4   7   91.49   13.10
   6   4   7  111.99   14.30
   7   4   7   -4.20    7.70
   7   4   7    4.20   10.20
  -8  -4  -7    5.50   11.10
   8   4   7    9.50    9.40
   8   4   7    3.50   13.60
   6  -5  -7  179.98   18.60
   6  -5  -7  133.19   18.60
  -6   5   7  148.49   13.20
  -6   5   7  147.29   19.30
   5  -5  -7   57.89    9.90
   5  -5  -7   84.79   15.00
   5  -5  -7   58.49    8.40
  -5   5   7   47.50   13.20
   4  -5  -7   88.49   11.80
   4  -5  -7   63.89   11.80
   4  -5  -7   82.09   12.20
   4  -5  -7   91.99   13.10
   4  -5  -7   87.49   11.80
  -4   5   7   85.39   10.80
  -4   5   7   60.59   12.00
   3  -5  -7  331.87   17.60
   3  -5  -7  348.07   18.30
   3  -5  -7  342.77   22.80
   3  -5  -7  349.17   20.70
   3  -5  -7  301.57   19.50
  -3   5   7  329.07   19.40
  -3   5   7  322.77   20.40
   2  -5  -7   67.39   12.80
   2  -5  -7   77.19   12.30
   2  -5  -7   73.49    9.80
   2  -5  -7   50.69    9.00
   2  -5  -7   56.19    8.30
  -2   5   7   58.69    9.50
  -2   5   7   63.89   11.70
  -2   5   7   68.79    7.20
  -2   5   7   68.59    9.00
  -2   5   7   37.30   12.80
   1  -5  -7  540.15   26.10
   1  -5  -7  487.65   22.00
   1  -5  -7  493.25   22.20
   1  -5  -7  475.15   22.60
   1  -5  -7  460.05   22.30
  -1   5   7  495.05   25.30
  -1   5   7  499.85   23.00
  -1   5   7  475.85   19.90
  -1   5   7  493.35   24.20
  -1   5   7  465.35   21.80
   0  -5  -7  833.22   33.50
   0  -5  -7  877.41   35.50
   0  -5  -7  882.61   33.30
   0  -5  -7  952.50   34.20
   0  -5  -7  887.91   32.80
   0   5   7  880.81   33.60
   0   5   7  884.71   33.90
   0   5   7  911.01   31.80
   0   5   7  865.61   35.40
   0   5   7  863.51   32.10
  -1  -5  -7    3.50    4.10
  -1  -5  -7    1.70    8.00
  -1  -5  -7   -9.10    8.70
  -1  -5  -7   -3.70    4.40
  -1  -5  -7   -5.30    4.70
   1   5   7    0.40    6.90
   1   5   7    2.00    9.20
   1   5   7    3.00    5.30
   1   5   7    4.90    4.40
   1   5   7   11.60    6.40
  -2  -5  -7  795.12   27.50
  -2  -5  -7  764.32   31.10
  -2  -5  -7  715.13   32.70
  -2  -5  -7  757.42   33.10
  -2  -5  -7  774.62   30.30
   2   5   7  779.72   31.00
   2   5   7  735.43   28.00
   2   5   7  760.92   30.70
   2   5   7  753.02   31.70
   2   5   7  775.02   29.80
  -3  -5  -7   63.19   12.70
  -3  -5  -7   63.39    8.80
  -3  -5  -7   64.39    6.90
  -3  -5  -7   52.29   13.20
  -3  -5  -7   62.99   10.00
   3   5   7   51.99    9.60
   3   5   7   52.99   12.00
   3   5   7   69.29   10.30
   3   5   7   46.90    7.90
  -4  -5  -7   45.10    8.70
  -4  -5  -7   48.20    5.00
   4   5   7   32.90   10.50
   4   5   7   34.70    8.20
   4   5   7   42.50   12.40
   4   5   7   56.79    9.50
  -5  -5  -7  133.19   14.20
   5   5   7  108.49   13.20
   5   5   7  112.69   13.40
   5   5   7  114.69   15.90
  -6  -5  -7   -0.60    8.30
  -6  -5  -7    1.60   12.10
   6   5   7   -3.60   13.60
   6   5   7    0.90    7.80
   6   5   7   23.40    9.30
  -7  -5  -7   15.60   10.10
   7   5   7   13.00   12.40
   7   5   7   12.60    9.90
  -8  -5  -7   -1.80   11.20
   8   5   7   13.30   10.80
   5  -6  -7   -5.40    7.20
   5  -6  -7   16.60    8.70
   5  -6  -7    5.80   12.80
  -5   6   7   -5.80   11.50
   4  -6  -7   70.49   12.90
   4  -6  -7   32.10    8.80
   4  -6  -7   52.29   14.00
   4  -6  -7   51.09    9.00
  -4   6   7   60.09   12.40
  -4   6   7   79.79   11.00
   3  -6  -7  126.29   15.50
   3  -6  -7  143.09   16.70
   3  -6  -7  134.29   16.10
   3  -6  -7  165.78   14.10
   3  -6  -7  128.19   13.10
  -3   6   7  124.69   14.30
  -3   6   7  111.19   13.30
   2  -6  -7   17.80    7.10
   2  -6  -7    5.80    5.80
   2  -6  -7   -0.70   11.30
   2  -6  -7   -3.20    8.20
   2  -6  -7   16.20    6.80
  -2   6   7    3.40    7.60
  -2   6   7    5.40    6.60
  -2   6   7    0.50    4.30
   1  -6  -7   37.00    9.00
   1  -6  -7   44.80    8.30
   1  -6  -7   49.99    8.40
   1  -6  -7   39.40    9.80
   1  -6  -7   62.89   13.00
  -1   6   7   49.10    6.40
  -1   6   7   33.30    8.70
  -1   6   7   40.00    8.40
   0  -6  -7  161.58   13.30
   0  -6  -7  166.48   17.60
   0  -6  -7  163.78   13.80
   0  -6  -7  158.68   18.10
   0  -6  -7  172.88   13.30
   0   6   7  160.08   16.80
   0   6   7  146.09   19.00
   0   6   7  182.98   14.60
   0   6   7  177.28   11.80
   0   6   7  152.48   12.30
  -1  -6  -7   21.40   12.00
  -1  -6  -7   38.50   10.80
  -1  -6  -7   42.60    6.70
  -1  -6  -7   32.90    7.30
   1   6   7   33.40    8.00
   1   6   7   34.20    8.00
   1   6   7   47.20    7.20
   1   6   7   28.80   11.30
   1   6   7   21.10    8.90
  -2  -6  -7  417.96   26.50
  -2  -6  -7  477.45   22.40
  -2  -6  -7  393.16   17.90
  -2  -6  -7  442.26   26.10
   2   6   7  424.76   20.70
   2   6   7  388.26   26.10
   2   6   7  398.96   22.50
  -3  -6  -7   -3.10    6.50
  -3  -6  -7    0.60   12.40
  -3  -6  -7   -9.70    6.40
  -3  -6  -7   -0.30    3.80
   3   6   7    2.00    9.90
   3   6   7    7.00    6.10
   3   6   7   -4.20    6.20
   3   6   7    0.90   11.90
  -4  -6  -7    8.30    7.00
  -4  -6  -7   14.80    8.80
  -4  -6  -7    2.30    3.10
   4   6   7    7.40    6.90
   4   6   7    9.40    7.60
   4   6   7   -9.10   12.70
  -5  -6  -7   -6.70    7.60
   5   6   7    6.50   14.30
   5   6   7   -8.60    7.60
   5   6   7   -4.30    7.10
  -6  -6  -7   33.20   10.40
   6   6   7    5.60    9.40
   6   6   7    2.10    9.60
  -7  -6  -7    4.60    9.80
   7   6   7  -14.30   10.50
   7   6   7    9.30   12.50
   5  -7  -7   12.10    9.20
   5  -7  -7   18.00   14.90
   5  -7  -7   40.80   11.80
  -5   7   7   -1.10   13.60
   4  -7  -7  201.48   17.00
   4  -7  -7  186.18   18.40
   4  -7  -7  257.97   24.10
  -4   7   7  140.39   16.30
   3  -7  -7  155.28   15.60
   3  -7  -7  153.98   17.70
   3  -7  -7  157.08   16.00
   3  -7  -7  152.98   18.10
   3  -7  -7  142.19   18.00
  -3   7   7  162.88   17.10
  -3   7   7  164.38   17.70
   2  -7  -7   86.69   10.90
   2  -7  -7  102.29   12.30
   2  -7  -7  103.69   13.10
   2  -7  -7  102.69   16.40
   2  -7  -7  104.09   14.40
  -2   7   7  117.89   15.10
  -2   7   7   67.79   10.90
  -2   7   7   97.39    9.40
   1  -7  -7  900.51   40.40
   1  -7  -7  905.81   35.90
   1  -7  -7  856.31   35.90
   1  -7  -7  915.01   36.70
   1  -7  -7  954.60   36.60
  -1   7   7  976.80   38.00
  -1   7   7  954.80   32.80
  -1   7   7  918.61   35.70
   0  -7  -7   39.50   11.80
   0  -7  -7   32.00    7.50
   0  -7  -7   52.89    8.90
   0  -7  -7   58.49    9.30
   0  -7  -7   43.10   12.70
   0   7   7   41.80    8.90
   0   7   7   62.99    7.80
   0   7   7   44.50    8.90
  -1  -7  -7  508.25   25.00
  -1  -7  -7  527.55   25.00
  -1  -7  -7  532.25   28.20
  -1  -7  -7  501.85   23.00
  -1  -7  -7  493.65   30.70
   1   7   7  495.55   23.80
   1   7   7  574.34   23.80
   1   7   7  554.34   26.60
  -2  -7  -7  138.69   11.60
  -2  -7  -7  129.39   17.00
  -2  -7  -7  169.78   15.60
  -2  -7  -7  134.39   15.20
   2   7   7  137.39   14.30
   2   7   7  108.19   18.80
   2   7   7  129.59   13.30
  -3  -7  -7   46.20    9.70
  -3  -7  -7   62.09   11.00
  -3  -7  -7   65.59    8.90
   3   7   7   47.60   10.00
   3   7   7   60.19   10.50
   3   7   7   44.70   15.30
  -4  -7  -7  130.29   17.30
  -4  -7  -7  140.59   17.40
  -4  -7  -7  129.59    8.90
   4   7   7  129.89   15.70
   4   7   7  132.49   20.00
   4   7   7  114.39   16.20
  -5  -7  -7  278.87   36.40
   5   7   7  335.57   22.70
   5   7   7  346.27   24.20
   5   7   7  375.96   35.90
  -6  -7  -7    3.30   19.60
   6   7   7   25.00   13.40
   6   7   7   40.50   12.10
  -7  -7  -7   58.19   14.00
   7   7   7   39.60   14.30
   4  -8  -7  172.48   20.20
   4  -8  -7  228.68   21.10
   4  -8  -7  255.57   21.50
  -4   8   7  227.68   23.40
   3  -8  -7  225.38   23.70
   3  -8  -7  228.38   20.20
   3  -8  -7  238.98   20.20
  -3   8   7  223.38   20.70
  -3   8   7  280.57   21.20
   2  -8  -7    4.30    8.30
   2  -8  -7   22.40   17.80
   2  -8  -7    4.80    8.70
   2  -8  -7   13.90    8.90
  -2   8   7   22.70   10.30
  -2   8   7    8.60    9.80
  -2   8   7    6.50    5.00
   1  -8  -7  652.53   31.10
   1  -8  -7  630.94   29.40
   1  -8  -7  628.74   36.70
   1  -8  -7  634.94   29.70
   1  -8  -7  620.14   28.90
  -1   8   7  608.44   28.50
  -1   8   7  639.04   24.60
  -1   8   7  601.14   35.60
   0  -8  -7  570.44   26.50
   0  -8  -7  511.25   29.50
   0  -8  -7  450.15   24.80
   0  -8  -7  517.25   35.00
   0  -8  -7  502.05   26.10
   0   8   7  501.85   27.80
   0   8   7  478.85   24.10
   0   8   7  518.25   22.70
  -1  -8  -7   43.50    8.90
  -1  -8  -7   36.50   14.20
  -1  -8  -7   38.70    9.50
  -1  -8  -7   62.09    9.50
   1   8   7   55.39    9.20
   1   8   7   47.40   11.20
   1   8   7   48.10    9.70
  -2  -8  -7  915.21   35.00
  -2  -8  -7  942.31   38.90
  -2  -8  -7  962.10   38.60
   2   8   7  927.71   39.30
   2   8   7  955.40   37.70
  -3  -8  -7  257.47   20.80
  -3  -8  -7  322.07   22.90
  -3  -8  -7  267.97   15.40
   3   8   7  242.18   19.30
   3   8   7  322.47   21.00
  -4  -8  -7  196.58   20.40
  -4  -8  -7  206.38   21.20
   4   8   7  205.78   20.80
   4   8   7  160.18   20.40
  -5  -8  -7  374.06   29.40
  -5  -8  -7  419.76   27.70
   5   8   7  417.46   29.40
   5   8   7  378.86   26.60
  -6  -8  -7   29.00   13.80
   6   8   7   10.20   12.40
   6   8   7   -0.70   13.40
   3  -9  -7  233.68   22.40
   3  -9  -7  219.28   21.10
   3  -9  -7  241.98   26.40
  -3   9   7  164.78   21.00
  -3   9   7  220.68   23.00
   2  -9  -7   14.90   10.50
   2  -9  -7   21.30   12.80
   2  -9  -7   11.60   11.00
  -2   9   7   -7.60   11.80
  -2   9   7    7.20   11.80
   1  -9  -7  381.46   23.90
   1  -9  -7  357.96   23.80
   1  -9  -7  331.07   24.30
  -1   9   7  360.06   17.30
  -1   9   7  349.07   26.10
  -1   9   7  304.77   22.20
   0  -9  -7  217.58   19.70
   0  -9  -7  212.48   19.20
   0  -9  -7  197.88   25.00
   0  -9  -7  230.88   20.90
   0   9   7  227.68   22.50
   0   9   7  175.88   18.20
   0   9   7  236.28   16.00
  -1  -9  -7   66.79   13.40
  -1  -9  -7   45.10   16.60
  -1  -9  -7   47.10   10.30
  -1  -9  -7   42.40   11.20
   1   9   7   50.19   10.70
   1   9   7   33.00   12.20
  -2  -9  -7  495.95   27.70
  -2  -9  -7  474.95   24.10
  -2  -9  -7  484.85   29.00
   2   9   7  492.65   30.30
   2   9   7  515.75   26.70
  -3  -9  -7    4.90   11.70
  -3  -9  -7   17.40   11.40
  -3  -9  -7   36.70    7.40
   3   9   7   25.90   10.70
   3   9   7   32.90   13.60
  -4  -9  -7   98.69   16.80
  -4  -9  -7   89.59   16.00
   4   9   7  120.19   16.80
   4   9   7  109.19   16.70
  -5  -9  -7   59.19   16.50
  -5  -9  -7   60.89   16.50
   5   9   7   17.60   14.40
   5   9   7   23.60   20.60
   2 -10  -7  116.59   27.40
   2 -10  -7   81.39   17.00
  -2  10   7   64.09   16.30
   1 -10  -7   49.20   14.00
   1 -10  -7   62.99   13.70
   1 -10  -7  103.99   15.80
  -1  10   7   74.59   13.80
  -1  10   7   91.59   17.10
   0 -10  -7    7.30   11.50
   0 -10  -7   -8.40   11.20
   0 -10  -7    4.10   10.70
   0  10   7   -5.20   11.30
   0  10   7    1.80   13.10
   0  10   7    7.00   11.00
  -1 -10  -7   48.70   11.30
  -1 -10  -7   15.90   11.70
  -1 -10  -7   48.60   14.80
   1  10   7   33.50   11.90
   1  10   7   43.50   10.80
   1  10   7   41.90   15.40
  -2 -10  -7   65.89   14.60
  -2 -10  -7   33.90   13.80
  -2 -10  -7   58.79   11.50
   2  10   7   36.70   15.60
   2  10   7   60.19   12.00
  -3 -10  -7   16.50   14.40
  -3 -10  -7   13.10   15.00
   3  10   7  -28.40   13.20
   3  10   7  -13.10   11.50
   1  -8   8  134.99   19.70
   1  -8   8   76.19   18.00
  -2   8  -8  310.07   30.60
   2  -8   8  312.17   26.90
   2   7  -8   34.40   14.20
   2   7  -8   30.80   14.80
  -2  -7   8   54.29   16.40
  -2  -7   8   52.99   14.80
   1   7  -8  208.48   25.40
   1   7  -8  297.67   26.20
  -1  -7   8  272.47   22.40
  -1  -7   8  270.47   26.50
   0   7  -8   16.90   13.50
   0   7  -8    1.40   12.30
   0  -7   8   10.80   12.10
   0  -7   8  -24.60   10.10
  -1   7  -8  168.08   19.80
   1  -7   8  172.38   19.80
   1  -7   8  197.78   19.50
  -2   7  -8   62.29   14.00
   2  -7   8   41.20   12.80
   2  -7   8   60.59   13.80
  -3   7  -8  -15.70   10.00
   3  -7   8   18.50   12.80
   3  -7   8    4.80   11.20
  -4   7  -8  158.58   18.90
   4  -7   8  186.68   22.60
   4  -7   8  109.49   17.10
   3   6  -8   24.30   12.60
  -3  -6   8   19.00   13.90
  -3  -6   8   17.10   13.10
   2   6  -8  172.98   20.50
   2   6  -8  195.48   22.00
  -2  -6   8  198.28   23.30
  -2  -6   8  160.88   18.00
   1   6  -8  164.88   21.00
   1   6  -8  177.58   20.10
  -1  -6   8  217.18   14.80
  -1  -6   8  221.38   21.70
  -1  -6   8  172.88   17.10
   0   6  -8   79.29   12.80
   0   6  -8   56.59   11.50
   0  -6   8   67.19   12.60
   0  -6   8   38.50    9.10
   0  -6   8   59.39   11.90
  -1   6  -8  522.65   28.70
  -1   6  -8  485.55   27.20
   1  -6   8  495.75   28.60
   1  -6   8  556.04   27.40
   1  -6   8  452.65   25.10
  -2   6  -8  143.49   18.00
   2  -6   8  137.19   18.60
   2  -6   8  138.79   18.70
  -3   6  -8   25.30   11.60
   3  -6   8   41.50   12.20
   3  -6   8   41.60   12.60
  -4   6  -8  221.08   21.10
   4  -6   8  191.08   22.10
   4  -6   8  172.58   23.00
  -5   6  -8  110.39   13.00
  -5   6  -8   79.59   13.70
   5  -6   8   77.29   17.80
   5  -6   8   69.99   13.70
   4   5  -8   85.69   15.20
  -4  -5   8   84.79   14.40
  -4  -5   8  111.59   17.80
   3   5  -8  -14.70    9.30
   3   5  -8   -4.40    9.60
  -3  -5   8  -11.00   10.80
  -3  -5   8  -10.80   11.00
   2   5  -8  373.96   23.30
   2   5  -8  397.76   24.40
   2   5  -8  403.26   38.70
  -2  -5   8  415.46   16.80
  -2  -5   8  371.16   24.00
  -2  -5   8  385.66   25.60
   1   5  -8  202.58   17.20
   1   5  -8  214.08   18.20
  -1  -5   8  203.38   14.00
  -1  -5   8  181.28   18.00
  -1  -5   8  212.88   18.70
  -1  -5   8  170.28   18.30
   0   5  -8   87.89   11.20
   0   5  -8   80.59   11.10
   0  -5   8   85.39   12.60
   0  -5   8  121.49   13.30
   0  -5   8  132.69   17.00
  -1   5  -8  639.84   29.10
  -1   5  -8  611.64   28.90
   1  -5   8  596.54   26.40
   1  -5   8  538.25   28.20
   1  -5   8  616.94   29.00
  -2   5  -8  328.87   20.60
  -2   5  -8  346.27   21.30
   2  -5   8  329.27   23.10
   2  -5   8  314.57   21.40
   2  -5   8  318.37   18.80
  -3   5  -8  301.87   27.10
  -3   5  -8  329.27   20.50
   3  -5   8  271.47   23.30
   3  -5   8  295.27   20.70
   3  -5   8  319.67   30.40
  -4   5  -8  851.01   31.10
  -4   5  -8  717.43   38.60
   4  -5   8  832.02   35.90
   4  -5   8  848.32   42.40
   4  -5   8  843.52   40.40
  -5   5  -8   14.60   10.50
  -5   5  -8   -1.10   10.40
   5  -5   8   12.50   14.20
   5  -5   8    5.40    9.30
  -6   5  -8  110.19   15.10
   6  -5   8  126.79   21.60
   6  -5   8  155.88   19.00
   6  -5   8  129.19   15.00
   5   4  -8   28.10   11.30
   5   4  -8   42.60   13.10
  -5  -4   8   30.70   11.40
   4   4  -8  131.19   16.40
   4   4  -8  173.98   19.40
  -4  -4   8  123.79   15.80
  -4  -4   8  134.79   15.80
   3   4  -8   51.69   10.70
   3   4  -8   45.40   21.10
   3   4  -8   38.20    9.30
  -3  -4   8   57.19   11.90
  -3  -4   8   32.10   12.20
   2   4  -8  491.35   24.80
   2   4  -8  428.26   36.40
   2   4  -8  452.55   23.80
  -2  -4   8  417.86   25.00
  -2  -4   8  525.15   27.40
  -2  -4   8  453.25   19.60
  -2  -4   8  481.75   19.30
   1   4  -8  964.50   37.80
   1   4  -8  852.91   36.00
   1   4  -8 1008.70   46.00
  -1  -4   8  927.41   36.70
  -1  -4   8  962.50   35.40
   0   4  -8   12.50    6.80
   0   4  -8    9.50    7.70
   0   4  -8   -2.80   15.40
   0  -4   8    7.90    8.10
   0  -4   8   18.50    8.30
   0  -4   8   11.70    9.90
  -1   4  -8 1174.78   43.20
  -1   4  -8 1224.28   43.60
  -1   4  -8 1069.59   44.40
   1  -4   8 1146.49   44.20
   1  -4   8 1029.30   46.60
   1  -4   8 1194.48   39.70
  -2   4  -8  286.17   28.40
  -2   4  -8  408.16   22.00
  -2   4  -8  405.96   25.90
  -2   4  -8  394.86   15.90
   2  -4   8  386.66   28.40
   2  -4   8  409.56   19.20
   2  -4   8  417.66   22.50
  -3   4  -8  198.88   22.60
  -3   4  -8  193.18   16.90
  -3   4  -8  206.98   17.00
  -3   4  -8  213.38   15.00
   3  -4   8  166.48   16.00
   3  -4   8  175.08   24.30
  -4   4  -8  358.66   27.70
  -4   4  -8  414.46   23.10
  -4   4  -8  416.76   21.90
   4  -4   8  438.46   20.80
   4  -4   8  425.76   23.10
   4  -4   8  406.16   29.90
  -5   4  -8   47.70    9.90
  -5   4  -8   37.70   11.70
  -5   4  -8   17.50   14.90
   5  -4   8   64.19   10.80
   5  -4   8   34.70    9.50
   5  -4   8   48.10   16.80
  -6   4  -8   51.39   13.50
  -6   4  -8   14.00    9.60
   6  -4   8   29.90    9.70
   6  -4   8   25.70    8.50
   6  -4   8   54.09   16.90
  -7   4  -8  117.89   17.70
   7  -4   8  166.58   17.00
   7  -4   8  169.98   18.40
   7  -4   8   99.79   23.50
   5   3  -8   71.39   14.10
  -5  -3   8   54.39   14.90
   4   3  -8   70.49   12.30
   4   3  -8   86.99   11.20
  -4  -3   8   74.49   13.70
  -4  -3   8  116.59   13.90
   3   3  -8    0.50    6.80
   3   3  -8   27.40   17.90
   3   3  -8    6.60    8.40
  -3  -3   8   10.60    8.90
  -3  -3   8    3.80   10.60
  -3  -3   8   19.50    4.80
  -3  -3   8    9.30    4.00
   2   3  -8  297.37   29.10
   2   3  -8  338.67   19.90
   2   3  -8  309.27   18.00
  -2  -3   8  287.27   19.50
  -2  -3   8  286.57   20.50
  -2  -3   8  314.97   15.60
   1   3  -8  124.29   12.80
   1   3  -8  106.69   13.20
   1   3  -8  118.09   18.10
  -1  -3   8  119.29   12.30
  -1  -3   8  107.99   13.40
  -1  -3   8  129.99   13.10
   0   3  -8  256.47   26.00
   0   3  -8  254.47   22.00
   0   3  -8  260.37   17.00
   0   3  -8  283.37   16.90
   0   3  -8  277.07   11.30
   0  -3   8  265.67   19.00
   0  -3   8  280.27   17.80
   0  -3   8  284.37   23.50
   0  -3   8  266.37   17.20
  -1   3  -8  412.16   29.20
  -1   3  -8  394.76   15.80
  -1   3  -8  358.86   23.50
  -1   3  -8  352.26   22.50
  -1   3  -8  422.86   20.80
   1  -3   8  395.76   24.30
   1  -3   8  345.17   24.40
   1  -3   8  389.66   20.90
  -2   3  -8   75.49   12.60
  -2   3  -8   84.09   16.80
  -2   3  -8   69.89    9.90
  -2   3  -8   82.69    8.80
   2  -3   8   73.79   13.90
   2  -3   8   99.89   10.60
   2  -3   8   86.89    9.00
   2  -3   8   67.39   12.30
   2  -3   8   62.79    9.10
  -3   3  -8   55.19    9.40
  -3   3  -8   55.59   12.40
   3  -3   8   66.69    9.90
   3  -3   8   41.50   12.00
   3  -3   8   61.49   13.30
   3  -3   8   69.99    7.80
   3  -3   8   61.39    8.50
  -4   3  -8  131.99   13.50
  -4   3  -8  122.49   13.20
  -4   3  -8  111.49   15.40
   4  -3   8  111.69   15.60
   4  -3   8  144.99   13.80
   4  -3   8   86.99   15.30
   4  -3   8  160.28   13.20
  -5   3  -8   55.39   12.20
  -5   3  -8   51.49   15.00
  -5   3  -8   51.89   10.10
   5  -3   8   46.60    9.40
   5  -3   8   61.09   15.50
   5  -3   8   70.59   11.40
  -6   3  -8  125.69   15.20
  -6   3  -8  106.29   15.60
   6  -3   8  122.59   14.90
   6  -3   8  133.99   15.10
  -7   3  -8   75.49   16.10
   7  -3   8   89.89   11.40
   7  -3   8   58.19   11.50
   6   2  -8   18.60    9.00
   6   2  -8   56.49   15.20
  -6  -2   8   27.80    9.40
  -6  -2   8   24.30   10.20
   5   2  -8    0.20    7.20
   5   2  -8    8.60   10.30
  -5  -2   8    9.20    7.20
  -5  -2   8   16.00   12.30
   4   2  -8    6.50    8.50
   4   2  -8    8.70   15.90
   4   2  -8    5.20    6.70
  -4  -2   8    1.90    8.20
  -4  -2   8    2.50    9.70
   3   2  -8  308.07   17.40
   3   2  -8  293.57   19.40
   3   2  -8  279.57   28.10
  -3  -2   8  289.77   19.30
  -3  -2   8  286.67   13.50
  -3  -2   8  287.27   20.30
   2   2  -8    5.50    6.00
   2   2  -8   -5.30    6.00
   2   2  -8    7.70   13.70
  -2  -2   8    5.10    6.40
  -2  -2   8    1.40    8.30
   1   2  -8  213.08   18.70
   1   2  -8  228.78   20.20
   1   2  -8  225.08   23.50
   1   2  -8  199.58   16.30
  -1  -2   8  240.18   16.50
  -1  -2   8  230.58   14.60
  -1  -2   8  229.08   16.20
  -1  -2   8  197.58   19.80
  -1  -2   8  211.88   20.50
   0   2  -8   48.60   12.50
   0   2  -8   55.89   11.60
   0   2  -8   81.39   10.70
   0   2  -8   81.09   10.90
   0  -2   8   88.49   13.50
   0  -2   8   87.99   11.90
   0  -2   8   70.29   12.90
   0  -2   8   51.49   10.40
   0  -2   8   71.99    9.70
  -1   2  -8   14.30   12.20
  -1   2  -8    4.70    9.40
  -1   2  -8    2.10    5.50
  -1   2  -8    4.20    5.70
   1  -2   8    0.60    4.40
   1  -2   8   -0.10    9.00
   1  -2   8   11.20    8.80
   1  -2   8    5.50    6.70
   1  -2   8    0.70    5.60
   1  -2   8    4.80    8.60
  -2   2  -8   93.89   12.80
  -2   2  -8   91.79   10.70
  -2   2  -8   89.09   10.70
  -2   2  -8   87.29   11.80
  -2   2  -8   76.99   13.20
   2  -2   8   72.59   12.40
   2  -2   8   94.39    8.90
   2  -2   8   83.09    9.80
   2  -2   8   82.39   10.30
   2  -2   8   89.09   11.70
  -3   2  -8   70.29   14.70
  -3   2  -8   51.19   11.40
  -3   2  -8   58.49    8.40
  -3   2  -8   48.90    8.10
  -3   2  -8   41.00    9.30
   3  -2   8   65.39   12.60
   3  -2   8   55.59   10.90
   3  -2   8   54.89    8.00
   3  -2   8   70.69    7.50
   3  -2   8   80.39   11.80
  -4   2  -8   68.69    9.20
  -4   2  -8   79.19   11.70
  -4   2  -8   99.29   11.70
  -4   2  -8   73.59   14.10
   4  -2   8   81.89   10.90
   4  -2   8   65.09   13.00
   4  -2   8   61.89    9.60
   4  -2   8   74.89   12.00
  -5   2  -8    4.90   13.80
  -5   2  -8   11.50    7.60
  -5   2  -8   15.50   10.60
   5  -2   8   22.20    8.30
   5  -2   8   30.20   12.70
   5  -2   8   14.90   11.10
   5  -2   8   26.00    7.90
  -6   2  -8  117.09   16.30
  -6   2  -8  157.78   15.10
   6  -2   8  115.59   14.30
   6  -2   8  127.59   16.70
   6  -2   8  121.29   14.70
   6  -2   8  104.09   15.20
  -7   2  -8   58.39   15.40
   7  -2   8   42.00    9.40
   7  -2   8   43.40   10.20
  -8   2  -8    0.40   10.10
   8  -2   8  -15.60   10.90
   8  -2   8   -7.30    7.90
   6   1  -8   73.49   14.70
  -6  -1   8   63.39   10.50
   5   1  -8   80.39    9.70
   5   1  -8   84.19   13.10
  -5  -1   8   90.39   11.50
  -5  -1   8   63.69   13.10
   4   1  -8   -9.50   13.40
   4   1  -8    9.30    6.30
   4   1  -8    2.80    7.30
  -4  -1   8   13.10    7.30
  -4  -1   8   -0.60    9.40
  -4  -1   8  -13.60    7.30
   3   1  -8  185.48   15.70
   3   1  -8  211.78   22.70
   3   1  -8  194.68   13.80
  -3  -1   8  167.68   17.30
  -3  -1   8  193.78   15.70
  -3  -1   8  165.58   12.40
   2   1  -8  440.66   21.90
   2   1  -8  425.36   27.10
   2   1  -8  442.76   21.10
   2   1  -8  442.66   27.10
  -2  -1   8  457.65   22.20
  -2  -1   8  421.96   22.20
  -2  -1   8  446.46   34.00
  -2  -1   8  419.36   18.30
  -2  -1   8  417.96   36.00
   1   1  -8   16.00   10.10
   1   1  -8   11.20   11.50
   1   1  -8   14.70    6.30
   1   1  -8    3.50    5.30
  -1  -1   8    3.10    9.60
  -1  -1   8   10.50    9.50
  -1  -1   8    5.80    5.90
  -1  -1   8    9.70    7.30
  -1  -1   8    5.90    6.10
   0   1  -8  135.69   16.00
   0   1  -8  141.09   19.20
   0   1  -8  153.28   11.90
   0   1  -8  138.89   11.90
   0  -1   8  155.68   14.00
   0  -1   8  161.08   17.30
   0  -1   8  161.38   13.60
   0  -1   8  160.68   13.40
   0  -1   8  170.38   16.90
  -1   1  -8  392.26   19.60
  -1   1  -8  364.56   23.40
  -1   1  -8  434.46   19.60
  -1   1  -8  408.56   23.00
   1  -1   8  409.06   18.60
   1  -1   8  404.66   21.50
   1  -1   8  430.26   21.60
   1  -1   8  412.66   20.80
   1  -1   8  377.36   22.80
   1  -1   8  426.16   19.10
  -2   1  -8  147.29   17.10
  -2   1  -8  141.69   19.20
  -2   1  -8  139.29   12.20
  -2   1  -8  161.18   11.50
   2  -1   8  135.29   17.10
   2  -1   8  150.58   11.80
   2  -1   8  162.58   17.50
   2  -1   8  171.18   11.50
   2  -1   8  152.38   13.40
   2  -1   8  164.18   15.60
  -3   1  -8  188.78   15.30
  -3   1  -8  195.28   21.00
  -3   1  -8  193.68   14.10
  -3   1  -8  211.48   19.20
  -3   1  -8  190.48   12.80
   3  -1   8  194.18   16.80
   3  -1   8  208.48   12.30
   3  -1   8  189.98   13.20
   3  -1   8  200.18   18.60
   3  -1   8  177.38   19.80
   3  -1   8  185.08   14.60
  -4   1  -8 1022.40   38.90
  -4   1  -8 1018.60   47.90
  -4   1  -8 1071.59   37.20
  -4   1  -8  967.20   41.00
  -4   1  -8 1075.59   38.80
   4  -1   8 1019.00   40.80
   4  -1   8 1020.40   38.50
   4  -1   8 1041.10   39.10
   4  -1   8 1046.90   32.50
   4  -1   8 1079.59   38.10
  -5   1  -8   23.40   14.10
  -5   1  -8   51.69    9.00
  -5   1  -8   46.30   11.50
   5  -1   8   35.20   10.40
   5  -1   8   45.10    8.90
   5  -1   8   39.30   12.00
  -6   1  -8  190.18   20.80
  -6   1  -8  192.18   16.80
   6  -1   8  205.18   16.00
   6  -1   8  197.58   16.10
   6  -1   8  190.68   20.90
   6  -1   8  197.48   22.00
  -7   1  -8   96.99   17.50
   7  -1   8  103.09   13.30
   7  -1   8   94.79   11.00
  -8   1  -8    5.10   10.20
   8  -1   8    8.60    8.00
   8  -1   8   -1.60   11.00
   6   0  -8   47.60   14.10
  -6   0   8   50.09    9.80
  -6   0   8   60.89   17.20
   5   0  -8   77.39    8.90
   5   0  -8   76.89   12.80
  -5   0   8   64.79    9.00
  -5   0   8   50.89   13.20
   4   0  -8   30.30   12.80
   4   0  -8   27.70    6.80
   4   0  -8   18.10    8.60
  -4   0   8   17.50    8.00
  -4   0   8   18.90    8.40
  -4   0   8   20.00    9.90
   3   0  -8   26.10    6.50
   3   0  -8   31.00    7.90
   3   0  -8   20.00   14.50
  -3   0   8   36.40    7.60
  -3   0   8   31.40    8.40
  -3   0   8   13.00    8.80
   2   0  -8   12.60    5.40
   2   0  -8   -3.70   10.70
   2   0  -8    5.90    9.70
  -2   0   8    3.40   10.50
  -2   0   8    0.90    5.70
  -2   0   8   -4.30    7.10
  -2   0   8    6.50    5.70
  -2   0   8   -0.30    9.40
   1   0  -8  292.07   15.80
   1   0  -8  264.77   15.80
   1   0  -8  267.07   21.10
   1   0  -8  284.17   19.30
  -1   0   8  256.07   19.70
  -1   0   8  264.87   15.10
  -1   0   8  277.27   19.20
  -1   0   8  273.67   16.80
  -1   0   8  270.47   16.90
   0   0  -8  243.28   20.00
   0   0  -8  239.78   17.70
   0   0  -8  215.18   13.90
   0   0  -8  234.58   14.00
   0   0   8  205.78   14.10
   0   0   8  236.88   13.50
   0   0   8  218.58   14.60
   0   0   8  216.18   17.90
   0   0   8  230.58   17.20
   0   0   8  204.18   14.80
  -1   0  -8 1122.89   38.60
  -1   0  -8 1093.49   39.20
  -1   0  -8 1053.09   41.30
  -1   0  -8 1130.19   41.10
   1   0   8 1132.69   40.70
   1   0   8 1098.49   40.00
   1   0   8 1057.79   37.10
   1   0   8 1076.59   40.80
   1   0   8 1130.69   39.90
   1   0   8 1126.09   38.80
  -2   0  -8  164.58   17.00
  -2   0  -8  170.28   12.20
  -2   0  -8  142.99   18.90
  -2   0  -8  167.98   11.50
   2   0   8  203.28   12.60
   2   0   8  180.08   16.70
   2   0   8  182.78   17.00
   2   0   8  184.88   15.10
   2   0   8  183.98   13.70
   2   0   8  191.08   11.80
  -3   0  -8  291.47   20.50
  -3   0  -8  316.87   15.40
  -3   0  -8  301.97   21.30
  -3   0  -8  340.17   16.90
   3   0   8  295.17   21.90
   3   0   8  311.77   18.20
   3   0   8  274.17   18.60
   3   0   8  300.77   16.20
   3   0   8  322.87   14.70
   3   0   8  306.37   17.10
  -4   0  -8  299.47   19.30
  -4   0  -8  277.07   22.40
  -4   0  -8  299.17   16.80
  -4   0  -8  303.67   14.90
  -4   0  -8  237.78   22.10
   4   0   8  295.07   19.40
   4   0   8  275.37   13.70
   4   0   8  262.87   23.60
   4   0   8  321.77   21.00
   4   0   8  271.57   18.20
   4   0   8  272.37   16.60
  -5   0  -8    8.00    6.70
  -5   0  -8   16.40   13.00
  -5   0  -8   11.10   10.20
   5   0   8    8.20    8.40
   5   0   8    2.10    6.30
   5   0   8   -5.40   10.30
   5   0   8   13.80    6.90
  -6   0  -8   73.99   10.30
  -6   0  -8   51.79   13.50
   6   0   8   60.59   10.40
   6   0   8   59.99   11.20
   6   0   8   63.89   13.20
   6   0   8   58.69    9.50
  -7   0  -8   58.39   15.60
  -7   0  -8   73.99   12.40
   7   0   8   48.30   10.70
   7   0   8   54.99    9.60
  -8   0  -8   17.10   11.00
   8   0   8   33.70   12.60
   8   0   8    6.40    7.90
   6  -1  -8   29.70    6.20
   6  -1  -8   27.80   12.80
  -6   1   8   11.60   13.00
  -6   1   8   30.10    9.30
   5  -1  -8   -7.10    6.20
   5  -1  -8   11.10    6.30
   5  -1  -8    1.70    9.10
  -5   1   8   -0.60    6.60
  -5   1   8   -3.50   10.80
   4  -1  -8    4.10    7.70
   4  -1  -8    7.00    6.10
   4  -1  -8    5.70    5.90
   4  -1  -8   -2.90   10.90
  -4   1   8    5.20    9.30
  -4   1   8  -10.10    7.00
  -4   1   8    1.80    8.70
   3  -1  -8   -2.50    5.30
   3  -1  -8    7.00   10.60
   3  -1  -8   15.30    7.20
   3  -1  -8   14.40   10.70
   3  -1  -8   15.20    5.90
  -3   1   8   14.30    7.60
  -3   1   8   11.90    9.10
  -3   1   8   11.90    7.30
   2  -1  -8   97.99   13.10
   2  -1  -8   96.59   12.80
   2  -1  -8   86.59   11.90
   2  -1  -8  113.49   10.80
   2  -1  -8   90.19   10.30
  -2   1   8  109.09   13.00
  -2   1   8   76.59   12.40
  -2   1   8   76.59   10.20
  -2   1   8  125.19   12.20
  -2   1   8   98.49   11.30
   1  -1  -8   67.09    9.50
   1  -1  -8   77.09   12.20
   1  -1  -8   87.79   10.00
   1  -1  -8   79.99   10.10
   1  -1  -8   90.69   11.80
  -1   1   8   76.29   10.60
  -1   1   8   67.19    8.80
  -1   1   8   77.69    9.00
  -1   1   8   66.29   10.40
  -1   1   8   72.59   10.90
  -1   1   8   67.69    8.80
   0  -1  -8   36.50    6.90
   0  -1  -8   47.60   10.90
   0  -1  -8   30.50    5.60
   0  -1  -8   30.30    8.70
   0   1   8   34.40    6.80
   0   1   8   30.00    7.30
   0   1   8   35.00    9.30
   0   1   8   32.80    7.10
   0   1   8   42.50    6.40
   0   1   8   26.40    8.20
  -1  -1  -8  124.69   13.90
  -1  -1  -8  126.89   10.50
  -1  -1  -8  132.29   15.70
  -1  -1  -8  131.29   10.00
   1   1   8  125.49   13.60
   1   1   8  103.89   10.80
   1   1   8  120.69   12.90
   1   1   8  122.99   10.10
   1   1   8  131.19   14.80
   1   1   8  128.39   11.60
  -2  -1  -8   21.30    5.70
  -2  -1  -8   46.80   10.90
  -2  -1  -8   42.20    5.80
  -2  -1  -8   36.00    9.60
   2   1   8   45.90    7.10
   2   1   8   34.00    6.40
   2   1   8   40.30    9.90
   2   1   8   27.60    6.20
   2   1   8   25.10    8.30
   2   1   8   38.80    8.20
  -3  -1  -8   56.79    7.80
  -3  -1  -8   29.80    9.70
  -3  -1  -8   28.40    6.40
  -3  -1  -8   54.49   11.10
   3   1   8   50.49    7.00
   3   1   8   45.50    9.90
   3   1   8   30.40    9.60
   3   1   8   45.20    7.00
   3   1   8   43.00    8.20
   3   1   8   40.80    7.30
  -4  -1  -8   11.00   10.60
  -4  -1  -8   32.20    7.10
  -4  -1  -8   18.10   10.90
  -4  -1  -8   16.70    4.90
   4   1   8   27.50   10.30
   4   1   8   17.40    6.30
   4   1   8   14.20   10.90
   4   1   8   18.20    6.40
   4   1   8   13.30    6.50
   4   1   8   37.30    8.00
  -5  -1  -8   28.30   11.40
  -5  -1  -8   34.10    7.70
   5   1   8   26.30    8.20
   5   1   8   26.10   11.20
   5   1   8   35.40    7.10
   5   1   8   30.30    7.50
   5   1   8   31.80    7.90
  -6  -1  -8   -1.50    7.20
  -6  -1  -8   -2.90   10.80
   6   1   8   10.50   11.20
   6   1   8    2.30    7.10
   6   1   8    2.10    8.40
   6   1   8   -0.90    6.80
  -7  -1  -8   15.70   14.20
  -7  -1  -8  -17.90    7.10
   7   1   8    3.40    9.10
   7   1   8   12.50    7.90
  -8  -1  -8   16.80   10.90
   8   1   8   18.20   12.60
   8   1   8   16.50    8.30
   6  -2  -8   50.79   14.20
  -6   2   8   36.50    8.10
  -6   2   8   42.00   14.00
   5  -2  -8   10.40    6.70
   5  -2  -8    0.50    6.20
   5  -2  -8   25.30   10.00
  -5   2   8    0.80    7.20
  -5   2   8    7.60   11.20
   4  -2  -8  160.08   19.50
   4  -2  -8  182.58   12.90
   4  -2  -8  131.59   16.30
   4  -2  -8  163.98   12.80
   4  -2  -8  152.98   16.30
  -4   2   8  136.39   15.00
  -4   2   8  157.58   15.50
  -4   2   8  150.68   18.30
   3  -2  -8  244.88   14.60
   3  -2  -8  245.08   17.00
   3  -2  -8  230.68   20.30
   3  -2  -8  213.08   20.20
   3  -2  -8  212.98   14.50
  -3   2   8  181.88   17.10
  -3   2   8  215.88   16.50
  -3   2   8  210.88   16.70
   2  -2  -8   36.10   10.00
   2  -2  -8   64.69    8.30
   2  -2  -8   33.00   10.60
   2  -2  -8   44.20    7.40
  -2   2   8   39.70   10.70
  -2   2   8   55.89    8.70
  -2   2   8   35.70    8.50
  -2   2   8   38.20   12.20
  -2   2   8   38.70    8.50
   1  -2  -8  568.54   24.30
   1  -2  -8  576.94   23.90
   1  -2  -8  570.84   27.10
   1  -2  -8  547.15   23.70
   1  -2  -8  551.64   26.10
  -1   2   8  576.24   23.10
  -1   2   8  555.34   26.20
  -1   2   8  553.94   24.40
  -1   2   8  581.54   24.40
  -1   2   8  524.15   23.10
  -1   2   8  572.84   27.50
   0  -2  -8   57.79   10.30
   0  -2  -8   61.29    7.40
   0  -2  -8   77.39   11.10
   0  -2  -8   65.59    9.60
   0  -2  -8   65.79    8.30
   0   2   8   62.59    9.70
   0   2   8   63.59    7.70
   0   2   8   56.89    8.20
   0   2   8   48.20    9.30
   0   2   8   61.59    8.60
   0   2   8   79.69    9.20
  -1  -2  -8  166.08   12.90
  -1  -2  -8  169.88   17.20
  -1  -2  -8  182.58   11.30
  -1  -2  -8  179.08   12.50
  -1  -2  -8  164.98   16.10
   1   2   8  167.58   14.30
   1   2   8  174.48   13.10
   1   2   8  177.38   16.20
   1   2   8  173.88   11.80
   1   2   8  180.58   12.20
   1   2   8  168.18   14.50
  -2  -2  -8    8.70    5.30
  -2  -2  -8   -0.70    9.00
  -2  -2  -8   14.90    9.20
  -2  -2  -8   -1.80    3.70
   2   2   8   -3.40    5.40
   2   2   8    7.70    4.90
   2   2   8    1.90    7.30
   2   2   8   -1.20    4.80
   2   2   8   -0.40    6.40
   2   2   8    0.10    7.30
  -3  -2  -8  139.49   11.40
  -3  -2  -8  136.99   17.80
  -3  -2  -8  148.19    9.90
  -3  -2  -8  145.79   17.90
   3   2   8  129.39   16.10
   3   2   8  136.89   11.80
   3   2   8  141.79   11.30
   3   2   8  144.29   12.70
   3   2   8  124.59   11.40
   3   2   8  134.99   14.60
  -4  -2  -8    5.80    3.80
  -4  -2  -8    3.80   10.60
  -4  -2  -8   -1.50   10.70
  -4  -2  -8   16.60    6.60
   4   2   8   14.20    6.80
   4   2   8   23.90    7.60
   4   2   8   22.50    9.90
   4   2   8   20.10    6.70
   4   2   8   13.70    9.50
   4   2   8   14.10    6.40
  -5  -2  -8    4.50   10.00
  -5  -2  -8   -9.60    5.50
   5   2   8   -1.70    6.20
   5   2   8    4.40    6.50
   5   2   8    3.00   10.00
   5   2   8    4.80    6.50
   5   2   8   -1.10    6.30
  -6  -2  -8   13.30    7.70
  -6  -2  -8   -0.40   11.40
   6   2   8    9.60    6.30
   6   2   8   12.90   11.80
   6   2   8    2.10    8.00
   6   2   8   11.50    7.60
   6   2   8    4.60    7.50
  -7  -2  -8    9.00   13.70
  -7  -2  -8   12.20    7.90
   7   2   8    3.30    9.50
   7   2   8    8.70    8.30
  -8  -2  -8   48.10   12.50
   8   2   8   65.39   10.60
   8   2   8   53.39   14.50
   6  -3  -8  188.38   17.10
   6  -3  -8  191.78   25.30
  -6   3   8  229.78   14.70
  -6   3   8  169.88   20.60
   5  -3  -8   15.40   11.40
   5  -3  -8   12.10    7.40
   5  -3  -8    2.40    6.10
  -5   3   8   21.10   15.20
  -5   3   8   17.30    8.20
  -5   3   8    3.40   11.30
   4  -3  -8  264.77   15.50
   4  -3  -8  262.27   19.20
   4  -3  -8  253.47   16.10
   4  -3  -8  232.78   21.10
   4  -3  -8  240.18   23.20
  -4   3   8  217.98   17.80
  -4   3   8  226.28   20.30
  -4   3   8  241.18   22.00
   3  -3  -8  128.89   12.20
   3  -3  -8  114.09   12.60
   3  -3  -8  117.59   11.60
   3  -3  -8  118.19   14.20
   3  -3  -8  120.09   14.50
  -3   3   8  101.39   12.90
  -3   3   8  114.09   13.50
  -3   3   8  124.89   14.10
   2  -3  -8  115.09   12.80
   2  -3  -8   83.39   11.60
   2  -3  -8   82.59   11.70
   2  -3  -8   97.09   10.50
   2  -3  -8   93.99   12.60
  -2   3   8   79.79   10.30
  -2   3   8   78.39   12.70
  -2   3   8   93.19   11.10
  -2   3   8   81.69   10.90
  -2   3   8   56.59   13.10
   1  -3  -8  170.98   13.50
   1  -3  -8  161.88   17.60
   1  -3  -8  176.58   12.60
   1  -3  -8  182.28   17.10
   1  -3  -8  204.08   13.60
  -1   3   8  175.38   18.80
  -1   3   8  170.18   14.20
  -1   3   8  171.88   13.90
  -1   3   8  201.48   17.50
  -1   3   8  171.68   11.80
  -1   3   8  177.98   13.80
   0  -3  -8  225.08   13.70
   0  -3  -8  213.08   19.30
   0  -3  -8  238.88   17.80
   0  -3  -8  224.58   14.30
   0  -3  -8  248.48   14.20
   0   3   8  222.98   14.50
   0   3   8  251.27   15.90
   0   3   8  228.18   13.30
   0   3   8  243.68   18.70
   0   3   8  226.28   15.40
   0   3   8  247.98   18.40
  -1  -3  -8  128.19   10.00
  -1  -3  -8   84.59   11.90
  -1  -3  -8   76.39   11.10
  -1  -3  -8   80.39    9.40
  -1  -3  -8  108.59   11.20
   1   3   8  119.39   11.90
   1   3   8   93.29    9.50
   1   3   8   97.89   12.90
   1   3   8  108.29   13.80
   1   3   8  117.69   10.00
   1   3   8  109.79   12.80
  -2  -3  -8  199.28   19.60
  -2  -3  -8  226.28   18.80
  -2  -3  -8  236.58   14.30
  -2  -3  -8  223.08   16.00
  -2  -3  -8  245.38   12.70
   2   3   8  227.58   15.00
   2   3   8  244.28   14.00
   2   3   8  252.57   14.50
   2   3   8  209.98   18.50
   2   3   8  228.38   17.30
   2   3   8  223.88   15.80
  -3  -3  -8  160.18   19.90
  -3  -3  -8  146.19   13.00
  -3  -3  -8  141.89   18.50
  -3  -3  -8  144.49    9.70
   3   3   8  149.09   11.70
   3   3   8  147.89   13.50
   3   3   8  129.59   16.70
   3   3   8  165.18   13.90
   3   3   8  138.59   11.90
   3   3   8  122.49   15.70
  -4  -3  -8    7.20    3.80
  -4  -3  -8   -2.40   12.90
  -4  -3  -8  -10.70    5.00
  -4  -3  -8    9.70   13.90
   4   3   8    5.40    6.60
   4   3   8    5.10    9.60
   4   3   8   -6.00    5.90
   4   3   8   -2.40    5.90
   4   3   8  -11.90    5.40
   4   3   8    9.90   10.20
  -5  -3  -8    0.50    6.80
   5   3   8    8.80    6.10
   5   3   8   20.30   11.50
   5   3   8    8.00    7.00
   5   3   8   -4.70    6.70
   5   3   8   -1.10    7.00
  -6  -3  -8   35.00   13.90
  -6  -3  -8   34.10    9.10
   6   3   8   31.30    8.20
   6   3   8   36.80    9.60
   6   3   8   41.00   13.50
  -7  -3  -8    1.70   16.80
  -7  -3  -8   33.80    8.80
   7   3   8   37.10   12.20
   7   3   8   32.70    9.50
  -8  -3  -8    2.70   10.80
   8   3   8   10.30   13.80
   8   3   8    5.30    9.90
   6  -4  -8   10.80   14.30
   6  -4  -8    6.50    9.90
  -6   4   8   36.70   16.50
  -6   4   8   16.20    6.70
   5  -4  -8   -7.00   11.40
   5  -4  -8   -7.20   20.60
   5  -4  -8   -1.10    6.60
   5  -4  -8   -0.80    7.80
  -5   4   8    7.00   12.40
   4  -4  -8   15.30   11.60
   4  -4  -8   25.20    8.10
   4  -4  -8   21.60   12.60
   4  -4  -8   21.20    7.40
   4  -4  -8   20.80    9.80
  -4   4   8   19.10    8.90
  -4   4   8   25.70   10.80
   3  -4  -8   55.39   10.50
   3  -4  -8   54.39   11.80
   3  -4  -8   54.19   13.00
   3  -4  -8   58.49   10.00
   3  -4  -8   54.09    8.50
  -3   4   8   54.49   10.90
  -3   4   8   46.50   12.80
  -3   4   8   70.59   10.40
   2  -4  -8   17.60    7.10
   2  -4  -8   17.80    6.40
   2  -4  -8   25.50   10.20
   2  -4  -8   36.40    7.30
   2  -4  -8   20.00   11.10
  -2   4   8   11.70    7.00
  -2   4   8   34.40   10.00
  -2   4   8   23.70    8.40
   1  -4  -8   21.50   11.20
   1  -4  -8   36.30   10.20
   1  -4  -8   17.00    6.20
   1  -4  -8   26.30    7.20
   1  -4  -8   27.40    7.50
  -1   4   8   38.50    8.90
  -1   4   8   13.10    6.90
  -1   4   8   30.60    7.40
  -1   4   8   26.90   10.80
  -1   4   8   27.40   10.10
  -1   4   8   17.20    5.40
   0  -4  -8  213.68   14.20
   0  -4  -8  177.68   13.40
   0  -4  -8  209.58   13.50
   0  -4  -8  193.38   19.70
   0  -4  -8  177.58   17.00
   0   4   8  208.68   14.50
   0   4   8  241.28   15.70
   0   4   8  190.68   16.90
   0   4   8  199.68   15.80
   0   4   8  201.08   12.70
   0   4   8  204.68   17.80
  -1  -4  -8    2.90    9.30
  -1  -4  -8   21.20   10.80
  -1  -4  -8   17.50    6.60
  -1  -4  -8    7.00    5.40
  -1  -4  -8    2.40    4.70
   1   4   8   10.00    5.60
   1   4   8   18.30    7.00
   1   4   8    3.20    4.60
   1   4   8    7.00    7.80
   1   4   8   14.80    7.70
   1   4   8   15.10    9.90
  -2  -4  -8   35.40   10.80
  -2  -4  -8   34.10   10.70
  -2  -4  -8   31.60    8.30
  -2  -4  -8   35.90    5.70
  -2  -4  -8   37.80    7.90
   2   4   8   39.40    7.30
   2   4   8   32.50    9.00
   2   4   8   31.40    7.40
   2   4   8   31.80   11.00
   2   4   8   27.80    7.10
   2   4   8   33.80    8.20
  -3  -4  -8   49.30   12.70
  -3  -4  -8   38.50   12.40
  -3  -4  -8   73.79    7.50
  -3  -4  -8   81.19   10.40
  -3  -4  -8   79.09   12.40
   3   4   8   68.79    8.70
   3   4   8   66.39    9.40
   3   4   8   62.69    8.80
   3   4   8   57.09   11.30
   3   4   8   54.19   14.60
   3   4   8   49.30   10.80
  -4  -4  -8   44.10    8.90
  -4  -4  -8   42.80    5.10
   4   4   8   46.10    8.30
   4   4   8   43.40    9.20
   4   4   8   49.30   12.90
  -5  -4  -8    6.30    7.40
   5   4   8   -4.20    6.90
   5   4   8   16.00   12.90
   5   4   8    5.00    7.10
  -6  -4  -8   22.40   13.00
  -6  -4  -8   20.40    9.10
   6   4   8    4.70    9.60
   6   4   8   22.10   14.90
   6   4   8   10.00    8.00
  -7  -4  -8    4.70    9.80
  -7  -4  -8   29.30   16.30
   7   4   8    9.70   11.90
   7   4   8   -0.70    8.80
  -8  -4  -8    7.70   10.10
   8   4   8   22.90   16.10
   8   4   8    4.20   10.70
   5  -5  -8   13.40   13.00
   5  -5  -8   31.80    9.80
   5  -5  -8   33.70    8.40
  -5   5   8   36.90   15.00
   4  -5  -8    8.20   12.70
   4  -5  -8   18.10   10.60
   4  -5  -8   12.60    8.00
   4  -5  -8   14.50    7.60
  -4   5   8    2.80   10.50
   3  -5  -8   50.29   12.50
   3  -5  -8   63.29   11.00
   3  -5  -8   59.99    9.70
   3  -5  -8   69.89    9.50
   3  -5  -8   65.19   14.80
  -3   5   8   38.90   10.70
  -3   5   8   31.20    9.20
   2  -5  -8  170.08   21.00
   2  -5  -8  180.38   14.50
   2  -5  -8  164.08   14.00
   2  -5  -8  165.18   18.30
   2  -5  -8  192.48   16.00
  -2   5   8  173.48   15.60
  -2   5   8  205.38   16.00
  -2   5   8  164.58   11.90
   1  -5  -8   11.20    9.80
   1  -5  -8   12.30    6.60
   1  -5  -8    7.40    5.90
   1  -5  -8   11.10   11.60
  -1   5   8   13.30    7.90
  -1   5   8   17.70    7.20
  -1   5   8   15.80    5.20
  -1   5   8   13.40   10.00
   0  -5  -8   30.20   10.30
   0  -5  -8   55.69   11.70
   0  -5  -8   41.70    7.40
   0  -5  -8   47.50    9.80
   0   5   8   55.69    8.70
   0   5   8   47.40    6.80
   0   5   8   33.00    7.90
   0   5   8   38.40    9.60
   0   5   8   48.90   12.40
  -1  -5  -8    8.70    9.90
  -1  -5  -8    8.60    5.20
  -1  -5  -8   -2.20    6.00
  -1  -5  -8   11.80   10.30
   1   5   8    3.50    6.50
   1   5   8    6.30    5.20
   1   5   8   -6.40    5.60
   1   5   8   -2.80    7.70
   1   5   8   10.30   10.00
  -2  -5  -8   34.20    7.50
  -2  -5  -8   39.40    6.30
  -2  -5  -8   59.39   11.10
  -2  -5  -8   19.10   10.90
  -2  -5  -8   39.90   12.40
   2   5   8   34.30    8.20
   2   5   8   46.20   10.60
   2   5   8   31.80    6.90
   2   5   8   16.20    7.10
   2   5   8   42.00   11.40
  -3  -5  -8   29.50    8.60
  -3  -5  -8   20.70   15.60
  -3  -5  -8   25.20    4.90
  -3  -5  -8   14.40    6.90
   3   5   8   16.80    7.30
   3   5   8   26.10    7.40
   3   5   8   21.60    7.30
   3   5   8   19.30   11.10
  -4  -5  -8   19.60    7.90
   4   5   8   15.00    7.70
   4   5   8   22.50   13.20
   4   5   8   19.80    7.80
  -5  -5  -8   45.70   10.40
   5   5   8   36.40   15.70
   5   5   8   30.70    8.90
   5   5   8   53.59   10.50
  -6  -5  -8   -7.20    8.80
   6   5   8    9.30    9.20
   6   5   8    2.00   21.30
   6   5   8    8.40   10.40
  -7  -5  -8   49.00   13.00
   7   5   8   69.79   13.20
   7   5   8   86.09   16.50
   5  -6  -8    2.10   10.20
   5  -6  -8   16.30   13.80
   5  -6  -8   14.00    9.30
  -5   6   8   17.40   14.20
   4  -6  -8  119.89   15.70
   4  -6  -8   97.99   16.40
   4  -6  -8   92.79   11.50
  -4   6   8  105.49   14.60
   3  -6  -8   42.40   12.60
   3  -6  -8   27.00   14.50
   3  -6  -8   27.60    8.70
   3  -6  -8   28.40   10.00
   3  -6  -8   16.90    8.00
  -3   6   8   13.90   10.00
  -3   6   8   31.50   10.10
   2  -6  -8   53.99   10.20
   2  -6  -8  100.09   13.10
   2  -6  -8   71.39   15.70
   2  -6  -8   73.19   10.40
   2  -6  -8   79.79   12.80
  -2   6   8   91.19   10.50
  -2   6   8   80.39   11.70
  -2   6   8   81.89   11.30
   1  -6  -8  472.75   23.40
   1  -6  -8  466.85   23.20
   1  -6  -8  431.76   29.00
   1  -6  -8  436.26   25.20
   1  -6  -8  449.56   23.60
  -1   6   8  401.76   22.30
  -1   6   8  482.95   20.10
  -1   6   8  484.95   23.80
   0  -6  -8   -3.30    6.20
   0  -6  -8    2.00   10.40
   0  -6  -8   -4.40   12.70
   0  -6  -8   -0.60    6.30
   0  -6  -8   -0.20    6.30
   0   6   8   -4.70    4.90
   0   6   8   16.50    7.80
   0   6   8    8.50    7.70
  -1  -6  -8  392.56   21.60
  -1  -6  -8  431.66   28.50
  -1  -6  -8  405.36   21.30
  -1  -6  -8  421.96   25.70
  -1  -6  -8  433.86   20.00
   1   6   8  381.86   20.40
   1   6   8  405.66   20.30
  -2  -6  -8   -2.70    4.70
  -2  -6  -8    4.90    7.20
  -2  -6  -8    0.00   12.20
  -2  -6  -8    3.90    6.60
   2   6   8    1.70   12.70
   2   6   8    1.60    7.30
   2   6   8   -0.60    6.60
  -3  -6  -8   45.00    6.40
  -3  -6  -8   57.59   11.10
   3   6   8   23.70    8.50
   3   6   8   60.29    9.90
   3   6   8   36.50   14.60
  -4  -6  -8    8.10    8.70
  -4  -6  -8    8.40    9.20
  -4  -6  -8    0.20    3.90
   4   6   8   -9.80    6.70
   4   6   8    6.30   15.00
   4   6   8   -0.20    7.40
  -5  -6  -8   -8.40    9.60
   5   6   8   18.40   17.60
   5   6   8    7.00    8.60
   5   6   8   -9.00    8.00
  -6  -6  -8   12.60   11.40
   6   6   8   28.50   11.40
   6   6   8   26.30   12.80
  -7  -6  -8    5.90   11.00
   7   6   8  -34.80   13.50
   7   6   8  -26.60   11.30
   4  -7  -8   78.59   11.80
   4  -7  -8   91.29   16.30
   4  -7  -8   94.49   14.20
  -4   7   8   60.69   14.00
   3  -7  -8  118.79   15.30
   3  -7  -8  129.59   15.80
   3  -7  -8  106.59   14.90
  -3   7   8  107.89   14.10
  -3   7   8  101.49   14.50
   2  -7  -8    7.00    9.00
   2  -7  -8   -0.10   15.70
   2  -7  -8    0.90   11.90
   2  -7  -8    6.10    8.20
   2  -7  -8   -7.50    6.80
  -2   7   8    5.20    5.70
  -2   7   8    8.70    9.40
  -2   7   8    0.60    9.20
   1  -7  -8   23.60    8.60
   1  -7  -8    0.30   15.50
   1  -7  -8   33.40    8.80
   1  -7  -8   25.00   12.70
   1  -7  -8   29.70    9.30
  -1   7   8   28.40    9.70
  -1   7   8   21.90    9.20
  -1   7   8   38.00    7.00
   0  -7  -8   33.40   13.30
   0  -7  -8   30.90    8.30
   0  -7  -8   36.70    8.70
   0  -7  -8   47.80   16.20
   0  -7  -8   29.10    8.60
   0   7   8   48.30    7.90
   0   7   8   56.89   10.60
   0   7   8   41.50   10.50
  -1  -7  -8   34.60   14.00
  -1  -7  -8   12.60    8.10
  -1  -7  -8   40.40    8.20
  -1  -7  -8   28.90    9.10
   1   7   8   27.40    9.20
   1   7   8   30.80    9.20
   1   7   8   44.60    8.40
  -2  -7  -8  183.48   17.00
  -2  -7  -8  207.48   16.30
  -2  -7  -8  201.38   13.90
   2   7   8  189.78   16.30
   2   7   8  172.78   15.70
   2   7   8  199.68   16.70
  -3  -7  -8  139.79   16.80
  -3  -7  -8  134.89   16.90
  -3  -7  -8  137.89   11.60
   3   7   8  158.68   17.10
   3   7   8  165.38   16.00
  -4  -7  -8    1.20   10.20
  -4  -7  -8   28.70    9.50
  -4  -7  -8   19.00    4.80
   4   7   8   -0.30    7.60
   4   7   8   20.80   10.10
   4   7   8   12.30   21.60
  -5  -7  -8   13.40   11.70
   5   7   8   -8.60   19.60
   5   7   8   36.10   12.30
   5   7   8   11.70   10.40
  -6  -7  -8   54.29   14.40
   6   7   8   30.40   12.30
   6   7   8   68.99   15.90
   4  -8  -8    9.10   12.50
   4  -8  -8   -8.60   10.90
   3  -8  -8  102.09   15.10
   3  -8  -8  115.59   14.70
   3  -8  -8  113.09   17.60
  -3   8   8   89.69   15.10
  -3   8   8  112.49   14.40
   2  -8  -8   81.59   13.20
   2  -8  -8   87.99   13.50
   2  -8  -8   82.19   13.90
  -2   8   8   92.39   16.30
  -2   8   8   73.19   13.40
  -2   8   8   80.19   10.60
   1  -8  -8   25.40   18.60
   1  -8  -8   44.80   10.90
   1  -8  -8   16.40    9.80
   1  -8  -8   32.50   14.20
   1  -8  -8   21.20   10.60
  -1   8   8   19.80   10.60
  -1   8   8   29.70    7.40
  -1   8   8   32.20   11.50
   0  -8  -8  276.27   19.80
   0  -8  -8  220.98   19.40
   0  -8  -8  226.78   19.20
   0  -8  -8  231.98   26.50
   0   8   8  225.38   16.20
   0   8   8  227.28   18.10
   0   8   8  253.67   21.60
  -1  -8  -8  100.39   18.30
  -1  -8  -8  116.99   14.70
  -1  -8  -8  123.19   15.30
  -1  -8  -8  127.49   15.90
   1   8   8   99.39   13.10
   1   8   8  125.19   15.20
   1   8   8  102.39   12.10
  -2  -8  -8   12.00    7.40
  -2  -8  -8   27.20   10.00
  -2  -8  -8    3.60    9.40
   2   8   8    5.90    8.10
   2   8   8  -15.60    8.70
   2   8   8    5.10    9.10
  -3  -8  -8  140.09   13.20
  -3  -8  -8  133.29   17.00
  -3  -8  -8  123.69   18.70
   3   8   8   91.19   13.00
   3   8   8  105.39   14.50
  -4  -8  -8   30.10   12.90
  -4  -8  -8   47.80   12.00
   4   8   8   34.90   11.90
   4   8   8   29.70   11.80
  -5  -8  -8   24.00   13.20
  -5  -8  -8   -1.30   14.00
   5   8   8   40.60   13.00
   5   8   8   -1.70   13.20
   2  -9  -8   35.40   13.00
   2  -9  -8   18.50   12.70
   2  -9  -8   29.20   12.70
  -2   9   8   26.90   13.00
  -2   9   8   28.90   14.10
   1  -9  -8  -13.20   10.70
   1  -9  -8   -6.10   10.90
   1  -9  -8    6.40   11.20
  -1   9   8    5.10   11.10
  -1   9   8    5.60   11.90
  -1   9   8  -11.80    6.50
   0  -9  -8  105.49   14.90
   0  -9  -8  149.29   16.00
   0  -9  -8  142.69   18.70
   0   9   8  111.79   16.40
   0   9   8  166.68   15.80
   0   9   8  151.98   16.00
  -1  -9  -8   53.59   12.20
  -1  -9  -8   39.50   13.30
  -1  -9  -8   53.19   10.80
   1   9   8   26.10   10.60
   1   9   8   41.20   10.40
   1   9   8   32.00   13.40
  -2  -9  -8   41.70   14.00
  -2  -9  -8   58.49   13.10
  -2  -9  -8   56.49   10.70
   2   9   8   45.60   14.80
   2   9   8   68.29   12.30
   2   9   8   56.09   12.40
  -3  -9  -8   95.39   17.60
  -3  -9  -8  124.89   17.50
  -3  -9  -8  106.99   13.60
   3   9   8  110.59   15.10
   3   9   8   95.19   16.40
  -4  -9  -8   12.50   14.50
  -4  -9  -8   22.70   15.00
   4   9   8   15.40   13.50
   4   9   8   18.00   13.40
   1 -10  -8   25.70   13.90
  -1  10   8   18.40    9.20
  -1  10   8   26.70   14.90
   0 -10  -8   73.69   14.70
   0 -10  -8   67.29   15.80
   0 -10  -8   64.89   15.70
   0  10   8   93.89   12.30
   0  10   8   94.99   17.60
  -1 -10  -8   13.60   11.10
  -1 -10  -8    4.00   13.00
  -1 -10  -8    7.00   13.90
   1  10   8   -1.50    8.50
   1  10   8    6.90   15.90
   1  10   8   -9.40   10.00
  -2 -10  -8   76.09   12.20
  -2 -10  -8   71.09   16.90
  -2 -10  -8   46.90   16.80
   2  10   8   59.09   17.20
   2  10   8   51.19   13.40
   2  10   8   68.59   11.60
  -3 -10  -8   -3.20   15.30
  -3 -10  -8  -19.30   14.90
   3  10   8   24.80   14.00
   0   7  -9   18.70   14.30
   0   7  -9    4.10   14.60
   0  -7   9   36.90   14.30
   0  -7   9   13.20   16.10
  -1   7  -9  -10.40   13.60
   1  -7   9   29.40   12.10
   1  -7   9    4.20   13.30
  -2   7  -9   41.70   15.60
   2  -7   9   36.40   13.90
   2  -7   9   15.00   13.00
  -3   7  -9    7.90   14.90
   3  -7   9   28.00   15.30
   2   6  -9   14.20   13.40
   2   6  -9    6.20   12.40
  -2  -6   9   18.40   14.10
  -2  -6   9   16.30   14.10
   1   6  -9  257.47   23.40
   1   6  -9  165.58   23.20
  -1  -6   9  206.38   23.00
  -1  -6   9  224.48   24.60
   0   6  -9  104.39   16.50
   0   6  -9   79.39   14.80
   0  -6   9  110.59   15.40
   0  -6   9   88.89   14.30
  -1   6  -9   28.00   13.00
  -1   6  -9   37.70   12.10
   1  -6   9   41.60   11.60
   1  -6   9   32.70   12.20
   1  -6   9   31.00   11.90
  -2   6  -9  271.27   24.10
   2  -6   9  265.37   24.70
   2  -6   9  275.77   23.50
  -3   6  -9   -8.10   11.60
   3  -6   9   -0.20   11.60
   3  -6   9   -0.10   11.80
  -4   6  -9   71.59   14.70
   4  -6   9   69.29   15.20
   4  -6   9   80.79   18.20
   3   5  -9  199.28   23.60
   3   5  -9  162.68   20.70
  -3  -5   9  157.48   19.30
  -3  -5   9  204.68   23.10
   2   5  -9   36.10   11.80
   2   5  -9   35.00   11.90
  -2  -5   9   35.90   12.70
  -2  -5   9   18.80   11.30
   1   5  -9  600.04   31.20
   1   5  -9  554.04   31.50
  -1  -5   9  638.74   30.60
  -1  -5   9  660.73   33.80
  -1  -5   9  603.34   26.40
   0   5  -9  205.68   21.10
   0   5  -9  220.38   20.50
   0  -5   9  216.68   17.90
   0  -5   9  219.98   24.40
   0  -5   9  274.97   22.10
   0  -5   9  176.08   20.30
  -1   5  -9  571.74   29.80
  -1   5  -9  610.14   30.10
   1  -5   9  541.95   26.80
   1  -5   9  552.34   30.00
   1  -5   9  577.44   30.00
  -2   5  -9  779.92   35.20
  -2   5  -9  719.23   35.00
   2  -5   9  751.82   36.50
   2  -5   9  764.62   35.80
   2  -5   9  756.92   30.70
  -3   5  -9    4.50   10.70
   3  -5   9    0.70   10.10
   3  -5   9   22.20   11.90
  -4   5  -9  135.59   16.90
   4  -5   9  157.98   20.60
   4  -5   9  153.38   20.10
   4  -5   9   96.69   23.90
  -5   5  -9  346.17   22.70
  -5   5  -9  354.46   26.70
   5  -5   9  290.47   31.30
   5  -5   9  300.07   24.20
   4   4  -9  333.87   24.00
   4   4  -9  280.07   27.20
   3   4  -9  321.07   24.40
   3   4  -9  331.67   24.00
  -3  -4   9  357.26   25.90
  -3  -4   9  310.37   25.40
   2   4  -9   38.90   22.90
   2   4  -9   28.20   10.00
   2   4  -9    4.40    8.90
  -2  -4   9   25.10   11.40
  -2  -4   9   15.40   11.30
  -2  -4   9   26.70    6.50
   1   4  -9  458.95   25.50
   1   4  -9  495.35   26.40
  -1  -4   9  507.65   24.90
  -1  -4   9  447.96   26.00
  -1  -4   9  518.65   28.20
   0   4  -9  293.77   20.20
   0   4  -9  304.47   20.00
   0  -4   9  270.07   23.40
   0  -4   9  261.37   19.30
   0  -4   9  265.47   21.00
  -1   4  -9    9.20    8.60
  -1   4  -9   28.90    9.20
   1  -4   9   21.80    9.10
   1  -4   9    5.90    8.50
  -2   4  -9  284.47   19.50
  -2   4  -9  254.67   20.00
   2  -4   9  269.77   19.90
  -3   4  -9  190.28   16.10
  -3   4  -9  218.08   18.30
  -3   4  -9  267.87   20.00
   3  -4   9  162.08   17.70
   3  -4   9  216.68   29.50
  -4   4  -9  145.89   17.90
  -4   4  -9  118.29   13.50
   4  -4   9  141.99   21.30
   4  -4   9  131.09   15.50
   4  -4   9  127.99   14.20
  -5   4  -9  168.98   19.20
  -5   4  -9  175.68   20.90
   5  -4   9  192.48   16.80
   5  -4   9  139.89   15.90
  -6   4  -9    5.30   13.10
   6  -4   9   12.40   11.30
   6  -4   9   -3.10    8.90
   4   3  -9  180.38   22.20
   4   3  -9  212.58   19.70
  -4  -3   9  151.98   20.20
  -4  -3   9  205.38   22.80
   3   3  -9  124.39   23.30
   3   3  -9  131.79   15.70
   3   3  -9  144.39   19.00
  -3  -3   9  141.39   16.50
  -3  -3   9  137.09   18.40
   2   3  -9   16.80    8.40
   2   3  -9   19.70    8.90
   2   3  -9   21.20   19.40
  -2  -3   9   23.60   10.90
  -2  -3   9   33.60    7.50
  -2  -3   9   38.70   10.90
   1   3  -9  574.74   38.00
   1   3  -9  535.45   26.70
   1   3  -9  577.34   26.30
  -1  -3   9  543.95   26.20
  -1  -3   9  460.65   31.30
  -1  -3   9  553.34   25.10
   0   3  -9  226.78   27.50
   0   3  -9  277.77   18.70
   0   3  -9  279.87   18.30
   0  -3   9  255.37   20.60
   0  -3   9  270.57   20.30
   0  -3   9  246.38   18.40
  -1   3  -9   46.50    9.00
  -1   3  -9   52.79    7.80
  -1   3  -9   43.50    8.60
   1  -3   9   48.50    9.70
   1  -3   9   43.20   10.30
   1  -3   9   55.59   13.10
  -2   3  -9  827.12   33.30
  -2   3  -9  785.32   33.60
  -2   3  -9  764.02   28.90
   2  -3   9  807.42   34.10
   2  -3   9  818.92   29.90
   2  -3   9  727.03   38.40
  -3   3  -9   97.49   11.80
  -3   3  -9   86.99   12.70
  -3   3  -9  108.49   12.20
   3  -3   9  135.79   13.10
   3  -3   9   91.29   16.40
   3  -3   9  109.39   14.20
   3  -3   9  112.19   12.60
  -4   3  -9  167.48   17.10
  -4   3  -9  139.99   17.90
   4  -3   9  138.49   19.70
   4  -3   9  135.29   14.00
   4  -3   9  126.69   15.50
  -5   3  -9  177.68   20.50
  -5   3  -9  203.98   18.40
   5  -3   9  188.08   21.50
   5  -3   9  200.18   19.00
   5  -3   9  227.08   17.30
  -6   3  -9    7.60   12.80
  -6   3  -9   -1.70    9.60
   6  -3   9    6.80    9.00
   6  -3   9    9.10    9.30
  -7   3  -9   63.59   17.20
   7  -3   9   70.19   13.00
   7  -3   9   51.49   12.30
   5   2  -9   84.69   16.20
   5   2  -9  129.99   17.40
  -5  -2   9  101.19   13.40
   4   2  -9   93.19   14.20
   4   2  -9   74.89   11.50
  -4  -2   9   89.89   15.10
  -4  -2   9   88.19   13.30
   3   2  -9   21.90    9.20
   3   2  -9   16.00    8.10
   3   2  -9   10.60   19.00
  -3  -2   9   22.00   11.50
  -3  -2   9   18.60    9.10
   2   2  -9  112.69   19.80
   2   2  -9  126.09   13.60
   2   2  -9  122.49   15.00
  -2  -2   9  114.29   13.80
  -2  -2   9  143.99   12.90
  -2  -2   9  119.89   13.80
   1   2  -9  570.04   26.60
   1   2  -9  524.15   32.40
   1   2  -9  557.54   25.50
  -1  -2   9  530.95   27.30
  -1  -2   9  572.84   24.70
  -1  -2   9  558.04   26.00
   0   2  -9    7.70    6.00
   0   2  -9   -4.90   14.60
   0   2  -9   -0.80    6.20
   0  -2   9    5.20    8.80
   0  -2   9    6.70    6.70
   0  -2   9   -0.40    7.60
  -1   2  -9  801.32   39.90
  -1   2  -9  855.81   33.10
  -1   2  -9  823.42   33.70
   1  -2   9  810.02   35.10
   1  -2   9  804.72   37.50
   1  -2   9  850.11   31.30
   1  -2   9  718.33   36.80
  -2   2  -9  952.60   36.80
  -2   2  -9  997.70   34.70
  -2   2  -9  967.50   44.40
  -2   2  -9  928.51   37.00
   2  -2   9  982.40   41.50
   2  -2   9  937.91   38.10
   2  -2   9  941.41   40.60
   2  -2   9  980.00   36.20
   2  -2   9  912.81   39.30
   2  -2   9  981.50   34.00
  -3   2  -9   35.80   10.00
  -3   2  -9   48.30   10.80
  -3   2  -9   41.70    9.20
   3  -2   9   31.50    7.50
   3  -2   9   50.29    8.00
   3  -2   9   30.90   12.20
   3  -2   9   41.40    9.40
   3  -2   9   32.20   14.00
  -4   2  -9 1146.09   42.30
  -4   2  -9 1095.09   41.40
  -4   2  -9  972.40   44.50
   4  -2   9 1123.09   46.00
   4  -2   9 1032.10   43.80
   4  -2   9 1144.89   42.80
   4  -2   9 1193.98   41.20
  -5   2  -9  176.18   16.50
  -5   2  -9  197.58   20.30
   5  -2   9  206.18   27.70
   5  -2   9  173.78   15.90
   5  -2   9  173.98   20.40
   5  -2   9  164.18   16.40
  -6   2  -9  171.78   22.30
  -6   2  -9  139.59   18.00
   6  -2   9  131.49   16.70
   6  -2   9  156.58   16.40
  -7   2  -9  228.48   25.60
   7  -2   9  215.18   20.50
   7  -2   9  214.88   19.90
   5   1  -9   40.40   13.40
   5   1  -9   37.50    9.10
  -5  -1   9   44.70   14.10
   4   1  -9  192.78   20.60
   4   1  -9  216.18   16.60
  -4  -1   9  200.98   21.00
  -4  -1   9  263.37   20.40
   3   1  -9  114.99   19.20
   3   1  -9   92.69   12.70
   3   1  -9  133.69   15.90
  -3  -1   9   80.39   12.00
  -3  -1   9   83.89   13.40
  -3  -1   9   83.99   12.30
   2   1  -9  156.88   15.40
   2   1  -9  177.68   15.30
   2   1  -9  194.08   21.00
  -2  -1   9  198.08   16.30
  -2  -1   9  175.68   13.80
  -2  -1   9  174.18   17.20
   1   1  -9  890.31   42.10
   1   1  -9  864.11   34.70
   1   1  -9  938.61   35.70
  -1  -1   9  899.81   36.70
  -1  -1   9  898.31   34.90
  -1  -1   9  929.51   33.70
   0   1  -9  409.86   29.10
   0   1  -9  402.76   20.70
   0   1  -9  403.56   20.00
   0  -1   9  365.76   21.80
   0  -1   9  357.46   25.20
   0  -1   9  365.56   24.20
   0  -1   9  419.06   21.70
   0  -1   9  395.46   20.20
  -1   1  -9  997.50   36.70
  -1   1  -9  915.61   42.40
  -1   1  -9 1004.10   37.40
  -1   1  -9  943.31   40.10
   1  -1   9  976.20   38.50
   1  -1   9  998.20   38.30
   1  -1   9  946.71   34.70
   1  -1   9  976.90   40.40
   1  -1   9  923.01   38.60
  -2   1  -9  963.40   35.50
  -2   1  -9  869.31   41.70
  -2   1  -9  946.41   40.10
  -2   1  -9  953.30   36.90
   2  -1   9  939.21   48.50
   2  -1   9  959.20   33.30
   2  -1   9  979.90   38.00
   2  -1   9  911.41   38.70
   2  -1   9  921.31   39.40
  -3   1  -9   56.49   13.50
  -3   1  -9   75.99   10.50
  -3   1  -9   64.59    8.50
  -3   1  -9   58.69   10.50
   3  -1   9   69.89   10.30
   3  -1   9   73.99   10.70
   3  -1   9   85.59   14.80
   3  -1   9   76.89   12.00
   3  -1   9   54.89    8.60
  -4   1  -9  763.42   31.40
  -4   1  -9  697.13   31.50
  -4   1  -9  722.43   29.30
   4  -1   9  753.52   25.40
   4  -1   9  732.83   30.20
   4  -1   9  732.13   31.60
   4  -1   9  707.33   34.90
   4  -1   9  675.83   32.00
  -5   1  -9  210.88   20.90
  -5   1  -9  246.88   18.50
   5  -1   9  225.68   22.30
   5  -1   9  246.58   26.50
   5  -1   9  257.27   17.50
   5  -1   9  244.78   18.10
  -6   1  -9   20.00   13.50
  -6   1  -9    6.80    8.80
   6  -1   9   21.70    8.70
   6  -1   9   16.90   13.10
   6  -1   9   15.90    8.90
  -7   1  -9  254.17   26.90
   7  -1   9  244.28   19.70
   7  -1   9  244.08   21.40
   5   0  -9   50.89    8.90
   5   0  -9   60.69   14.30
  -5   0   9   26.60   14.30
   4   0  -9  431.96   22.10
   4   0  -9  474.95   26.80
  -4   0   9  448.76   24.50
  -4   0   9  389.86   26.20
   3   0  -9   75.49   10.50
   3   0  -9   76.89    9.80
   3   0  -9   58.09   16.30
  -3   0   9   82.39   10.10
  -3   0   9   51.29   10.80
  -3   0   9   76.99   11.80
   2   0  -9  852.11   34.10
   2   0  -9  803.32   38.00
   2   0  -9  832.22   32.70
  -2   0   9  818.72   34.10
  -2   0   9  816.72   30.40
  -2   0   9  780.62   33.60
   1   0  -9  821.02   39.70
   1   0  -9  947.91   50.69
   1   0  -9  943.81   35.40
   1   0  -9  904.31   35.60
  -1   0   9  921.41   36.70
  -1   0   9  967.00   34.20
  -1   0   9  953.00   35.60
   0   0  -9   15.60   12.40
   0   0  -9    4.60   10.20
   0   0  -9   15.20    7.30
   0   0  -9   18.50    6.40
   0   0   9    0.10    7.10
   0   0   9   14.70    7.00
   0   0   9   12.20    8.20
   0   0   9   13.10   10.50
   0   0   9   -1.30    8.80
  -1   0  -9  604.94   29.70
  -1   0  -9  632.74   25.70
  -1   0  -9  614.04   32.00
  -1   0  -9  624.84   26.60
   1   0   9  578.44   27.40
   1   0   9  610.94   28.60
   1   0   9  576.14   27.40
   1   0   9  592.94   25.30
   1   0   9  566.84   28.60
   1   0   9  596.34   24.60
  -2   0  -9 1052.39   43.60
  -2   0  -9 1096.09   39.50
  -2   0  -9 1116.29   41.10
  -2   0  -9 1094.79   45.20
   2   0   9 1105.29   42.20
   2   0   9 1124.99   40.60
   2   0   9 1138.29   42.00
   2   0   9 1166.48   43.40
   2   0   9 1137.79   38.00
   2   0   9 1075.09   42.60
  -3   0  -9   13.90    5.10
  -3   0  -9   11.80   13.60
  -3   0  -9    3.50    6.60
  -3   0  -9    0.40   11.60
   3   0   9    6.00    6.60
   3   0   9   18.70    9.40
   3   0   9    2.70   10.30
   3   0   9   12.00   11.40
   3   0   9    2.20    5.80
  -4   0  -9  413.26   24.00
  -4   0  -9  445.06   22.50
  -4   0  -9  444.06   20.10
   4   0   9  442.06   24.20
   4   0   9  432.36   26.90
   4   0   9  422.26   22.60
   4   0   9  428.66   21.70
   4   0   9  447.96   18.80
  -5   0  -9  274.67   22.10
  -5   0  -9  247.98   18.00
   5   0   9  245.28   21.00
   5   0   9  252.47   25.20
   5   0   9  226.98   18.10
   5   0   9  239.08   17.90
  -6   0  -9   11.40   12.10
  -6   0  -9   12.40    8.70
   6   0   9   10.80    7.90
   6   0   9   -6.20   14.10
   6   0   9   -5.10   11.20
   6   0   9    7.10    8.30
  -7   0  -9  110.29   19.00
   7   0   9  117.39   15.10
   7   0   9  141.19   16.70
  -8   0  -9   35.30   12.40
   8   0   9   45.10   11.00
   8   0   9   72.39   15.00
   5  -1  -9   21.90   11.70
   5  -1  -9   -1.70    7.10
  -5   1   9    2.80   12.00
   4  -1  -9   64.69    9.80
   4  -1  -9   71.09    9.80
   4  -1  -9   84.89   13.40
  -4   1   9   92.19   12.70
  -4   1   9   82.19   14.30
   3  -1  -9   11.20    7.70
   3  -1  -9    1.20    6.40
   3  -1  -9    0.70   13.20
   3  -1  -9   -3.20    6.20
  -3   1   9    3.50    8.60
  -3   1   9   -4.10    7.50
  -3   1   9   -3.20    9.30
   2  -1  -9    3.40    5.90
   2  -1  -9    2.50    6.90
   2  -1  -9    5.50   12.00
   2  -1  -9    8.00    6.70
  -2   1   9   -0.60    6.90
  -2   1   9    3.40    8.50
  -2   1   9   -2.50    6.80
   1  -1  -9  194.88   22.00
   1  -1  -9  185.68   14.50
   1  -1  -9  183.48   19.40
   1  -1  -9  191.18   13.80
  -1   1   9  209.98   15.20
  -1   1   9  151.88   22.60
  -1   1   9  225.48   16.20
  -1   1   9  177.28   20.60
  -1   1   9  208.38   16.50
   0  -1  -9   20.50   12.10
   0  -1  -9   17.50    6.50
   0  -1  -9   22.60    6.20
   0  -1  -9   19.50   10.90
   0   1   9   13.20   10.50
   0   1   9   12.80    8.00
   0   1   9    9.50    5.40
   0   1   9   16.10    7.60
   0   1   9    9.50    5.90
   0   1   9   20.20    9.90
  -1  -1  -9  435.56   26.70
  -1  -1  -9  448.76   24.70
  -1  -1  -9  441.26   20.70
  -1  -1  -9  450.35   22.10
   1   1   9  463.65   23.80
   1   1   9  453.75   22.60
   1   1   9  463.25   24.20
   1   1   9  447.56   20.40
   1   1   9  476.05   21.10
   1   1   9  449.56   23.00
  -2  -1  -9  257.77   16.50
  -2  -1  -9  232.88   14.10
  -2  -1  -9  228.98   21.30
  -2  -1  -9  201.98   20.20
   2   1   9  243.28   18.80
   2   1   9  212.68   17.60
   2   1   9  232.58   16.90
   2   1   9  237.38   19.20
   2   1   9  220.08   15.10
   2   1   9  248.38   14.80
  -3  -1  -9    2.10   10.50
  -3  -1  -9   10.40    6.80
  -3  -1  -9   13.10   11.60
  -3  -1  -9   20.90    5.30
   3   1   9   13.20    8.90
   3   1   9    7.70    7.20
   3   1   9   15.10   11.30
   3   1   9    6.40    6.60
   3   1   9    7.00    6.60
   3   1   9    3.70    9.40
  -4  -1  -9  229.68   13.70
  -4  -1  -9  229.38   16.50
   4   1   9  220.68   16.80
   4   1   9  234.88   14.10
   4   1   9  246.38   18.90
   4   1   9  223.68   15.80
   4   1   9  243.48   22.20
  -5  -1  -9  256.67   18.20
  -5  -1  -9  261.37   14.20
  -5  -1  -9  263.67   21.70
   5   1   9  304.07   18.90
   5   1   9  247.68   19.60
   5   1   9  248.18   24.00
   5   1   9  261.97   15.50
   5   1   9  244.28   17.60
  -6  -1  -9   15.90   12.30
  -6  -1  -9   27.30    9.20
   6   1   9   34.20   10.80
   6   1   9   26.90    9.90
   6   1   9   27.40    8.70
   6   1   9   14.30   14.00
  -7  -1  -9   96.09   26.90
   7   1   9  103.49   14.20
   7   1   9  120.19   16.40
  -8  -1  -9   78.39   15.00
   8   1   9   88.89   16.30
   8   1   9  138.19   18.10
   5  -2  -9   20.00    7.50
   5  -2  -9   38.80   12.80
   5  -2  -9    7.40    8.40
  -5   2   9   14.60   13.10
   4  -2  -9   10.80    7.30
   4  -2  -9   -5.40    6.70
   4  -2  -9   -4.20    8.70
  -4   2   9   -1.60    8.80
  -4   2   9  -12.10   10.70
  -4   2   9   -6.80   10.00
   3  -2  -9   14.80    6.70
   3  -2  -9    9.10   13.10
   3  -2  -9    1.20    6.50
   3  -2  -9   12.10    7.70
  -3   2   9   11.90    7.60
  -3   2   9   -3.10    9.50
  -3   2   9   -7.30    8.70
   2  -2  -9  158.78   13.00
   2  -2  -9  140.89   16.00
   2  -2  -9  124.29   13.10
   2  -2  -9  122.49   15.10
   2  -2  -9  120.69   13.50
  -2   2   9  138.89   15.10
  -2   2   9  159.38   15.10
  -2   2   9  155.18   16.10
   1  -2  -9   92.89   13.70
   1  -2  -9  106.09   12.50
   1  -2  -9  117.59   12.40
   1  -2  -9  103.59   15.00
   1  -2  -9  112.39   12.20
  -1   2   9  107.59   13.30
  -1   2   9  103.69   11.70
  -1   2   9  120.89   11.30
  -1   2   9  117.79   14.00
  -1   2   9   91.79   14.80
   0  -2  -9   16.10    5.90
   0  -2  -9   16.30   11.20
   0  -2  -9   23.80   11.30
   0  -2  -9   27.40    6.60
   0  -2  -9   19.50    7.00
   0   2   9   17.80    6.50
   0   2   9   17.40    5.70
   0   2   9   18.80    8.10
   0   2   9   32.30    8.00
   0   2   9   33.80   11.20
   0   2   9   29.10   10.20
  -1  -2  -9  177.28   12.40
  -1  -2  -9  163.58   20.50
  -1  -2  -9  163.08   19.00
  -1  -2  -9  172.08   13.10
   1   2   9  165.18   14.50
   1   2   9  190.38   13.40
   1   2   9  153.98   16.30
   1   2   9  162.38   13.60
   1   2   9  182.88   17.70
   1   2   9  189.38   19.10
  -2  -2  -9    9.50    5.00
  -2  -2  -9    6.50    5.50
  -2  -2  -9   -1.60    9.80
  -2  -2  -9    6.60   10.20
   2   2   9    4.60    8.40
   2   2   9   12.00    5.90
   2   2   9    2.40    8.30
   2   2   9    8.00    6.70
   2   2   9   13.30    7.00
   2   2   9   26.60   11.10
  -3  -2  -9   56.09    8.60
  -3  -2  -9   48.70   13.80
  -3  -2  -9   52.29   14.00
  -3  -2  -9   62.49    7.20
   3   2   9   51.99    8.70
   3   2   9   53.39    8.90
   3   2   9   63.79    9.70
   3   2   9   55.39   12.70
   3   2   9   51.89   12.10
   3   2   9   64.49    8.60
  -4  -2  -9  188.98   11.50
  -4  -2  -9  168.88   14.80
   4   2   9  177.38   15.80
   4   2   9  203.18   13.90
   4   2   9  155.58   15.10
   4   2   9  156.78   21.20
   4   2   9  169.18   15.10
  -5  -2  -9    9.50    7.30
  -5  -2  -9   11.50    4.80
   5   2   9   10.60    7.20
   5   2   9   18.40    7.80
   5   2   9   11.10    7.70
   5   2   9    8.10    8.10
   5   2   9   10.00   12.60
  -6  -2  -9   36.60   14.80
  -6  -2  -9   42.10    9.60
   6   2   9   46.90   10.10
   6   2   9   26.10    9.10
   6   2   9   53.99   15.50
   6   2   9   36.30    9.00
   6   2   9   22.80    9.60
  -7  -2  -9  111.09   15.20
   7   2   9  129.79   14.40
   7   2   9  118.19   16.20
  -8  -2  -9   17.90   11.10
   8   2   9   22.00   11.00
   8   2   9   33.80   14.40
   5  -3  -9  265.27   19.30
   5  -3  -9  235.68   16.60
   5  -3  -9  186.38   24.20
  -5   3   9  213.78   23.60
   4  -3  -9   28.00    8.00
   4  -3  -9   -5.10    9.60
  -4   3   9    9.10   11.10
  -4   3   9   17.50   13.70
  -4   3   9   30.80   10.00
   3  -3  -9  257.77   25.40
   3  -3  -9  324.57   19.00
   3  -3  -9  352.66   27.50
   3  -3  -9  327.37   19.00
   3  -3  -9  328.07   21.20
  -3   3   9  339.37   20.90
  -3   3   9  311.67   21.60
  -3   3   9  331.37   23.30
   2  -3  -9  527.25   29.70
   2  -3  -9  567.24   24.80
   2  -3  -9  589.34   25.30
   2  -3  -9  522.95   26.00
   2  -3  -9  499.75   28.80
  -2   3   9  507.05   25.60
  -2   3   9  554.44   27.00
  -2   3   9  540.35   26.30
   1  -3  -9    9.00    6.80
   1  -3  -9    8.00   11.70
   1  -3  -9   17.10    6.80
   1  -3  -9   11.40    6.10
   1  -3  -9    3.80   10.70
  -1   3   9    4.40    8.00
  -1   3   9   11.20    6.80
  -1   3   9   11.20    5.60
  -1   3   9    0.50   13.00
  -1   3   9    8.20    7.50
   0  -3  -9  424.76   20.20
   0  -3  -9  381.66   26.40
   0  -3  -9  414.86   21.40
   0  -3  -9  409.66   24.80
   0   3   9  403.76   19.10
   0   3   9  386.06   24.70
   0   3   9  404.66   25.00
   0   3   9  407.76   21.40
   0   3   9  400.36   20.20
   0   3   9  398.86   21.40
  -1  -3  -9  417.86   19.60
  -1  -3  -9  442.36   25.00
  -1  -3  -9  414.66   24.90
  -1  -3  -9  440.66   21.70
  -1  -3  -9  439.56   22.50
   1   3   9  410.06   23.50
   1   3   9  427.76   23.00
   1   3   9  423.96   20.30
   1   3   9  384.26   22.30
   1   3   9  396.56   23.80
   1   3   9  416.46   19.90
  -2  -3  -9  322.87   16.60
  -2  -3  -9  363.96   25.70
  -2  -3  -9  342.87   19.50
  -2  -3  -9  328.77   23.90
   2   3   9  346.27   20.30
   2   3   9  352.76   18.00
   2   3   9  322.27   21.60
   2   3   9  310.37   23.80
   2   3   9  347.67   21.00
   2   3   9  365.76   20.70
  -3  -3  -9   55.29    9.00
  -3  -3  -9   62.79    7.40
   3   3   9   60.09    8.80
   3   3   9   59.29   12.70
   3   3   9   78.39   10.60
   3   3   9   59.89    8.80
   3   3   9   61.49    9.50
  -4  -3  -9  747.53   31.30
  -4  -3  -9  759.82   26.70
   4   3   9  720.93   31.50
   4   3   9  758.42   28.10
   4   3   9  729.83   32.30
   4   3   9  765.12   29.30
   4   3   9  717.83   34.50
  -5  -3  -9   45.80    9.40
  -5  -3  -9   29.40    5.10
   5   3   9   34.40   14.20
   5   3   9   32.50    8.70
   5   3   9   30.40    8.40
   5   3   9   15.20    7.90
   5   3   9   42.30    9.30
  -6  -3  -9  148.69   19.00
  -6  -3  -9  142.29   17.40
   6   3   9  147.19   18.70
   6   3   9  182.58   18.10
   6   3   9  148.69   16.70
   6   3   9  159.08   15.40
  -7  -3  -9  114.29   17.10
   7   3   9  171.78   21.70
   7   3   9  123.79   12.40
   7   3   9  103.79   14.00
   5  -4  -9   79.09   10.50
   5  -4  -9   75.49   14.80
   5  -4  -9   94.09   12.80
  -5   4   9  103.29   17.60
   4  -4  -9    8.20    7.70
   4  -4  -9   30.30   11.30
   4  -4  -9   17.60    8.70
  -4   4   9    9.00    8.80
  -4   4   9    5.90   11.60
   3  -4  -9   48.60   14.20
   3  -4  -9   50.09   14.80
   3  -4  -9   55.59   10.00
   3  -4  -9   51.69    9.60
   3  -4  -9   47.30    9.30
  -3   4   9   51.89   10.90
  -3   4   9   38.40   11.30
   2  -4  -9  152.88   14.50
   2  -4  -9  148.29   17.60
   2  -4  -9  138.89   14.70
   2  -4  -9  181.98   14.60
   2  -4  -9  149.59   21.10
  -2   4   9  141.79   16.10
  -2   4   9  173.28   16.10
   1  -4  -9   -2.30   12.10
   1  -4  -9   -4.20    6.90
   1  -4  -9   11.60   10.90
   1  -4  -9  -10.30    5.90
   1  -4  -9   -1.60    5.70
  -1   4   9    0.40    7.60
  -1   4   9    8.20    5.70
  -1   4   9    4.50    7.00
  -1   4   9    6.30    8.80
   0  -4  -9   82.89    9.90
   0  -4  -9   77.29   13.60
   0  -4  -9   82.49   12.80
   0  -4  -9   83.09   10.80
   0   4   9   85.09   11.20
   0   4   9   71.69   11.70
   0   4   9   76.79   10.00
   0   4   9   89.19   13.90
   0   4   9   96.99   11.30
  -1  -4  -9   59.69   13.00
  -1  -4  -9   53.99   12.40
  -1  -4  -9   70.89   10.00
  -1  -4  -9   62.89    8.10
  -1  -4  -9   57.89   14.90
   1   4   9   60.99   13.40
   1   4   9   36.60   10.10
   1   4   9   66.49   12.00
   1   4   9   78.99   10.70
   1   4   9   64.69    9.50
   1   4   9   71.69    9.00
  -2  -4  -9   96.69   14.10
  -2  -4  -9   73.89   15.00
  -2  -4  -9  117.29   12.10
  -2  -4  -9   51.29   12.70
  -2  -4  -9   83.49    9.80
   2   4   9   89.89   12.40
   2   4   9   91.99   13.40
   2   4   9   76.09   11.30
   2   4   9   87.89   12.20
   2   4   9   78.79    9.80
  -3  -4  -9   97.69    9.70
  -3  -4  -9  132.69   14.40
   3   4   9  112.09   12.20
   3   4   9  108.59   11.80
   3   4   9  130.69   13.80
   3   4   9  119.79   15.70
   3   4   9  122.69   13.00
  -4  -4  -9   98.89   12.30
  -4  -4  -9  112.69    9.40
   4   4   9  101.79   10.70
   4   4   9  110.69   16.50
   4   4   9   92.99   10.20
   4   4   9   76.39   11.20
   4   4   9   78.19   11.40
  -5  -4  -9   69.39   11.20
  -5  -4  -9   52.49    5.20
   5   4   9   53.49   10.10
   5   4   9   56.09   15.70
   5   4   9   56.29   10.50
   5   4   9   46.70    9.20
  -6  -4  -9    0.00   11.80
  -6  -4  -9    5.00    9.80
   6   4   9    5.50   10.00
   6   4   9   12.50    9.10
  -7  -4  -9   28.30   11.20
   7   4   9   28.00   12.00
   7   4   9   39.40   13.50
   5  -5  -9    8.50   10.80
   5  -5  -9    8.30    8.80
   5  -5  -9   -9.10   14.40
   4  -5  -9    7.20    8.90
   4  -5  -9   30.90    9.60
   4  -5  -9    8.00   12.10
  -4   5   9   22.80   11.90
   3  -5  -9   12.10   13.80
   3  -5  -9   10.90    8.50
   3  -5  -9    6.10    9.90
   3  -5  -9   10.90   15.30
   3  -5  -9   -5.90    7.50
  -3   5   9    7.80    9.60
  -3   5   9   -3.00    9.20
   2  -5  -9   13.80    8.60
   2  -5  -9    1.70    6.60
   2  -5  -9    4.60   14.60
   2  -5  -9    2.80    7.50
   2  -5  -9    2.90   12.20
  -2   5   9   11.70    8.90
  -2   5   9    4.70    8.90
  -2   5   9    7.20    6.20
   1  -5  -9    5.60    6.40
   1  -5  -9    8.20   13.80
   1  -5  -9    3.30    6.90
   1  -5  -9    7.60    7.20
   1  -5  -9    7.30   11.30
  -1   5   9   -4.60    8.30
  -1   5   9    0.20    7.20
  -1   5   9   12.40    6.10
   0  -5  -9   99.49   16.70
   0  -5  -9   88.09   14.00
   0  -5  -9  126.69   13.80
   0  -5  -9  122.79   13.80
   0   5   9  124.49   14.00
   0   5   9  120.89   12.90
   0   5   9  137.09   12.50
  -1  -5  -9   17.30   12.40
  -1  -5  -9   -0.60    7.00
  -1  -5  -9    0.60   13.10
  -1  -5  -9    5.10    7.60
  -1  -5  -9    4.80    6.00
   1   5   9   -2.20    7.50
   1   5   9    2.00    6.10
  -2  -5  -9    5.80    6.70
  -2  -5  -9    5.50    5.10
  -2  -5  -9    5.80    8.10
   2   5   9  -15.60   12.20
   2   5   9   -0.70    7.40
   2   5   9    9.70    7.50
   2   5   9    6.70    6.50
  -3  -5  -9   45.70   12.20
  -3  -5  -9   36.80   10.00
  -3  -5  -9   39.10    6.30
   3   5   9   44.10    9.90
   3   5   9   32.30    8.40
   3   5   9   43.20   13.60
   3   5   9   45.10    9.20
  -4  -5  -9   14.70    9.70
  -4  -5  -9    0.90    4.40
   4   5   9   10.90    8.00
   4   5   9    5.00    7.30
   4   5   9  -16.30   14.10
   4   5   9    5.00    7.60
  -5  -5  -9   31.20   11.00
  -5  -5  -9   20.10    5.40
   5   5   9   30.30   16.50
   5   5   9   19.70    9.90
   5   5   9   14.70    9.40
  -6  -5  -9   17.80   11.40
   6   5   9   -5.10   11.30
   6   5   9    9.90   10.60
  -7  -5  -9   31.60   11.60
   7   5   9  -23.30   11.10
   7   5   9   -1.10   12.90
   4  -6  -9   18.10   10.00
   4  -6  -9   18.70   13.00
   4  -6  -9    4.80   10.20
  -4   6   9   14.10   11.90
   3  -6  -9  110.29   15.20
   3  -6  -9   77.59   15.90
   3  -6  -9  108.79   12.90
   3  -6  -9  105.99   13.70
  -3   6   9  106.39   14.00
  -3   6   9  111.89   15.00
   2  -6  -9    8.70    9.30
   2  -6  -9   14.10    8.60
   2  -6  -9   11.40   16.80
   2  -6  -9    9.40   13.40
   2  -6  -9    9.40    8.50
  -2   6   9    9.70    9.20
  -2   6   9   16.20    9.70
  -2   6   9   19.80    6.80
   1  -6  -9   45.50    9.90
   1  -6  -9  102.59   18.70
   1  -6  -9   63.19   14.20
   1  -6  -9   64.49   10.30
   1  -6  -9   77.89   11.30
  -1   6   9   47.90   10.10
  -1   6   9   87.19   13.30
  -1   6   9   80.89    9.40
   0  -6  -9  124.29   14.40
   0  -6  -9  107.59   18.60
   0  -6  -9  101.59   15.70
   0  -6  -9   93.19   13.60
   0  -6  -9  152.78   15.10
   0   6   9  105.49   12.20
   0   6   9  153.38   13.60
   0   6   9  134.19   17.60
  -1  -6  -9  101.99   16.50
  -1  -6  -9  107.29   13.40
  -1  -6  -9  130.79   15.20
  -1  -6  -9  131.79   13.80
   1   6   9  127.19   16.50
   1   6   9  122.19   12.80
   1   6   9  130.19   13.90
  -2  -6  -9   38.10   10.30
  -2  -6  -9   57.39    8.10
  -2  -6  -9   49.00    9.90
   2   6   9   44.90    9.50
   2   6   9   58.49   10.80
   2   6   9   43.80    9.30
  -3  -6  -9   89.49   10.10
  -3  -6  -9   73.19   12.80
  -3  -6  -9   97.39   12.90
   3   6   9   97.79   12.80
   3   6   9   88.89   11.50
   3   6   9   77.09   11.20
  -4  -6  -9   -5.40    9.70
  -4  -6  -9   -2.90    4.50
  -4  -6  -9   -2.40   10.10
   4   6   9   -2.80    8.00
   4   6   9    6.20    8.00
   4   6   9    6.40    8.90
   4   6   9   -7.80   15.10
  -5  -6  -9    2.90   11.20
   5   6   9   38.70   11.60
   5   6   9  -11.50   18.00
   5   6   9   11.60   10.50
  -6  -6  -9   36.30   13.20
   6   6   9    9.30   12.00
   6   6   9   -5.30   12.40
   4  -7  -9   30.50   12.30
   4  -7  -9   40.30   13.20
   3  -7  -9  168.78   20.50
   3  -7  -9  135.29   15.70
   3  -7  -9  102.59   16.30
  -3   7   9  135.09   17.00
  -3   7   9  117.09   15.40
   2  -7  -9    0.10    9.20
   2  -7  -9   -2.80   14.20
   2  -7  -9   19.40   10.40
   2  -7  -9   13.00   10.50
   2  -7  -9   11.40   18.70
  -2   7   9   19.20   12.80
  -2   7   9    8.00    6.70
  -2   7   9   15.00   10.80
   1  -7  -9   85.29   19.60
   1  -7  -9  139.59   17.70
   1  -7  -9  129.49   16.50
   1  -7  -9  161.48   17.60
   1  -7  -9  155.48   18.20
  -1   7   9  127.79   12.40
  -1   7   9  125.19   15.70
  -1   7   9   88.69   12.90
   0  -7  -9  200.68   16.90
   0  -7  -9  218.78   26.50
   0  -7  -9  221.28   18.50
   0  -7  -9  187.18   18.20
   0   7   9  200.68   21.00
   0   7   9  230.48   18.50
   0   7   9  214.18   18.60
  -1  -7  -9   70.79   10.90
  -1  -7  -9   95.09   12.90
  -1  -7  -9   69.49   12.10
   1   7   9   70.89   13.20
   1   7   9   68.19   11.80
   1   7   9   59.59   10.00
  -2  -7  -9   55.79   11.90
  -2  -7  -9   54.19   11.90
  -2  -7  -9   74.39    9.50
   2   7   9   82.09   11.60
   2   7   9   67.59   11.40
   2   7   9   75.79   12.30
  -3  -7  -9   -8.90    9.20
  -3  -7  -9   -5.60    9.70
  -3  -7  -9    9.40    6.50
   3   7   9    8.90    8.30
   3   7   9    8.00    9.50
   3   7   9   -8.70    9.90
  -4  -7  -9   28.90    6.90
  -4  -7  -9   23.20   11.70
  -4  -7  -9   17.50   12.70
   4   7   9   40.80   11.80
   4   7   9   31.30   11.70
  -5  -7  -9  -12.50   11.90
   5   7   9   12.70   12.20
   5   7   9   26.00   12.70
  -6  -7  -9   -0.70   13.30
   6   7   9  -30.90   13.10
   6   7   9   -0.70   14.00
   3  -8  -9   74.19   17.00
   3  -8  -9   86.99   15.90
   3  -8  -9  107.79   15.10
  -3   8   9   73.29   13.20
   2  -8  -9    7.60   10.40
   2  -8  -9   37.00   13.40
  -2   8   9   43.30   13.60
  -2   8   9   33.90   13.10
   1  -8  -9  -13.90    9.90
   1  -8  -9  -11.10    9.50
   1  -8  -9   23.60   10.60
  -1   8   9   -0.40   10.70
  -1   8   9   17.10   11.10
  -1   8   9   -0.10    6.80
   0  -8  -9   19.50   10.40
   0  -8  -9   46.20   10.90
   0  -8  -9   16.90   17.50
   0  -8  -9   33.10   11.40
   0   8   9   24.20    8.50
   0   8   9   23.70   11.40
   0   8   9   24.60   12.10
  -1  -8  -9   22.20   11.20
  -1  -8  -9   20.00    9.50
  -1  -8  -9   19.50   10.20
   1   8   9   14.30   11.50
   1   8   9   -0.30    8.90
   1   8   9   12.90    9.10
  -2  -8  -9   18.00   10.60
  -2  -8  -9   -7.80   10.40
  -2  -8  -9   19.70    8.40
   2   8   9    6.10    8.80
   2   8   9   -8.10   10.50
   2   8   9    0.90    9.70
  -3  -8  -9    7.40   12.50
  -3  -8  -9   12.60   11.20
  -3  -8  -9    2.70    6.90
   3   8   9    3.80   11.70
   3   8   9   20.00   10.00
   3   8   9    9.30   10.00
  -4  -8  -9    3.80   12.70
  -4  -8  -9   -7.20   13.40
   4   8   9   -2.50   12.10
   4   8   9   -7.80   11.20
  -5  -8  -9   27.40   14.90
   5   8   9   18.90   14.40
   5   8   9  -12.30   13.50
   2  -9  -9   -4.60   14.20
  -2   9   9   28.30   14.40
  -2   9   9   20.00    8.80
   1  -9  -9   -0.10   11.80
   1  -9  -9   -7.00   12.10
   1  -9  -9   14.10   12.80
  -1   9   9   -6.20   13.00
   0  -9  -9    3.90   11.30
   0  -9  -9    2.70   10.80
   0  -9  -9   41.10   13.10
   0   9   9   27.90   12.20
   0   9   9   13.20    9.20
   0   9   9   15.60   13.40
  -1  -9  -9   -8.50   11.60
  -1  -9  -9   18.10   13.20
  -1  -9  -9   -9.00    9.70
   1   9   9   -3.90   10.60
   1   9   9   15.80   13.60
   1   9   9    4.30    9.70
  -2  -9  -9   -9.00   13.50
  -2  -9  -9   11.60   11.80
  -2  -9  -9  -19.40    8.90
   2   9   9  -19.60   10.00
   2   9   9   -0.60   13.20
   2   9   9  -10.30   10.60
  -3  -9  -9  -16.70   14.00
  -3  -9  -9   14.50   13.60
   3   9   9  -12.00   11.80
   3   9   9  -10.30   11.70
   3   9   9   17.30   11.30
  -4  -9  -9    3.40   16.10
  -4  -9  -9   13.00   15.60
   4   9   9   20.00   14.70
   0   6 -10   15.60   13.90
   0   6 -10   -2.50   14.20
   0  -6  10    9.80   14.70
   0  -6  10   -3.00   13.70
  -1   6 -10  -14.50   12.30
  -1   6 -10   17.30   14.20
   1  -6  10   12.30   13.80
   1  -6  10   -4.30   14.00
   1  -6  10    2.70   11.30
  -2   6 -10    7.10   14.30
  -2   6 -10   28.30   15.00
   2  -6  10   -5.40   12.90
   2  -6  10    4.90   12.50
  -3   6 -10   -7.30   12.80
   3  -6  10   16.30   16.20
   2   5 -10    3.60   13.60
   2   5 -10   -0.50   13.30
  -2  -5  10    8.80   13.10
  -2  -5  10   -5.10   12.20
   1   5 -10   56.99   14.50
   1   5 -10   85.09   15.40
  -1  -5  10   72.29   15.50
  -1  -5  10   84.69   14.40
   0   5 -10  134.39   17.30
   0   5 -10  133.69   16.90
   0  -5  10  142.99   17.00
   0  -5  10  128.99   17.80
  -1   5 -10   23.90   12.90
  -1   5 -10   19.30   11.30
   1  -5  10   -0.90   12.10
   1  -5  10   23.10   12.70
   1  -5  10   20.70   11.50
  -2   5 -10   67.69   14.70
  -2   5 -10   75.99   15.20
   2  -5  10   76.39   15.80
   2  -5  10   79.29   13.70
   2  -5  10   77.89   16.00
  -3   5 -10  231.38   24.20
   3  -5  10  179.88   20.30
   3  -5  10  168.68   21.40
  -4   5 -10  -32.40   12.70
   4  -5  10   12.20   12.30
   4  -5  10   21.10   16.20
  -5   5 -10    0.10   13.60
   5  -5  10  -14.50   20.00
   3   4 -10   97.19   17.10
   3   4 -10   82.89   15.00
  -3  -4  10   90.59   16.00
  -3  -4  10   98.59   17.20
   2   4 -10  155.18   19.70
   2   4 -10  109.29   16.00
  -2  -4  10  156.38   19.20
  -2  -4  10  142.49   17.20
   1   4 -10   16.00   11.20
   1   4 -10   19.70   11.40
  -1  -4  10   -8.20   11.20
  -1  -4  10   21.30   11.50
   0   4 -10  157.38   17.20
   0   4 -10  124.69   16.00
   0  -4  10  148.49   15.10
   0  -4  10  163.88   23.10
   0  -4  10  191.58   21.00
  -1   4 -10    5.60    9.80
  -1   4 -10    7.60    9.30
   1  -4  10   13.10   10.00
   1  -4  10    2.70   10.90
  -2   4 -10   33.40   11.50
  -2   4 -10   51.49   10.90
   2  -4  10   36.00   11.00
   2  -4  10   54.39   12.00
  -3   4 -10    2.40   10.10
  -3   4 -10    8.70   11.00
   3  -4  10   -3.70    8.90
  -4   4 -10   -6.10   10.60
  -4   4 -10    8.00   11.50
   4  -4  10   13.80    8.60
   4  -4  10    2.20   11.00
  -5   4 -10   18.30   13.60
  -5   4 -10   15.30   12.70
   5  -4  10   29.90   13.10
   5  -4  10   -1.40    9.30
   4   3 -10   20.50   14.30
   4   3 -10   -3.20   11.20
  -4  -3  10   11.80   10.20
   3   3 -10   25.10   11.60
   3   3 -10   84.09   14.90
  -3  -3  10   65.09   14.80
  -3  -3  10   49.30   14.30
   2   3 -10   30.10   24.50
   2   3 -10   39.90   12.40
   2   3 -10    9.90   10.70
  -2  -3  10   36.00   12.80
  -2  -3  10   31.90   12.70
   1   3 -10   28.00   10.20
   1   3 -10   28.30    9.80
  -1  -3  10   36.70   10.50
  -1  -3  10   40.30   12.20
  -1  -3  10   29.40   11.10
   0   3 -10   98.89   12.60
   0   3 -10   99.79   13.50
   0  -3  10  117.29   13.40
   0  -3  10  122.89   14.80
   0  -3  10  151.78   20.80
  -1   3 -10   81.99   11.30
  -1   3 -10   48.70   10.60
   1  -3  10   84.99   13.20
   1  -3  10   80.09   11.60
   1  -3  10   81.69   15.60
  -2   3 -10   -8.60    8.50
  -2   3 -10    5.20    9.10
  -2   3 -10   -6.60    7.30
   2  -3  10    9.60    9.00
   2  -3  10   22.40    9.20
  -3   3 -10   28.90   10.50
  -3   3 -10   33.50   11.50
  -3   3 -10   54.19   10.50
   3  -3  10   21.00    8.00
   3  -3  10   24.10    9.20
   3  -3  10   26.90   10.20
  -4   3 -10   24.70   10.00
  -4   3 -10   28.70   12.70
  -4   3 -10   35.20   11.40
   4  -3  10   25.00   18.60
   4  -3  10   34.70    9.50
   4  -3  10   28.20   11.60
  -5   3 -10   24.10   12.00
  -5   3 -10   20.70   13.50
   5  -3  10    7.70   10.70
   5  -3  10   24.80    9.60
  -6   3 -10   15.20   14.50
   6  -3  10   23.30   10.50
   6  -3  10  -14.00   10.80
   4   2 -10   89.59   16.10
   4   2 -10   57.39   12.40
   3   2 -10  213.08   22.40
   3   2 -10  186.88   18.80
  -3  -2  10  212.58   21.80
   2   2 -10   19.00    9.30
   2   2 -10   -9.20    9.20
   2   2 -10   -0.60   21.10
  -2  -2  10   -2.00   10.90
  -2  -2  10   -7.80   10.10
   1   2 -10  170.78   16.20
   1   2 -10  167.68   24.30
   1   2 -10  225.78   18.10
  -1  -2  10  188.88   18.10
  -1  -2  10  156.68   17.90
  -1  -2  10  189.98   19.70
   0   2 -10  310.17   20.60
   0   2 -10  372.36   21.60
   0  -2  10  332.87   21.20
   0  -2  10  358.16   23.00
   0  -2  10  313.67   22.90
  -1   2 -10    8.20    6.90
  -1   2 -10    6.10    7.80
   1  -2  10   11.60    9.00
   1  -2  10   12.70    8.80
   1  -2  10    0.10   11.60
  -2   2 -10  606.04   26.70
  -2   2 -10  637.54   28.50
  -2   2 -10  578.14   28.90
   2  -2  10  638.04   26.10
   2  -2  10  610.44   29.50
   2  -2  10  602.14   27.40
  -3   2 -10  193.48   18.40
  -3   2 -10  187.08   16.60
  -3   2 -10  177.58   16.40
   3  -2  10  140.59   20.30
   3  -2  10  193.58   15.40
   3  -2  10  186.18   15.60
   3  -2  10  217.48   17.90
  -4   2 -10   -1.50   11.20
  -4   2 -10   -0.80    7.90
  -4   2 -10    1.80   10.90
   4  -2  10    7.60    9.00
   4  -2  10   -8.70    6.60
   4  -2  10   17.20   16.60
  -5   2 -10  227.68   22.70
  -5   2 -10  252.57   20.50
   5  -2  10  241.28   20.80
   5  -2  10  196.48   18.80
   5  -2  10  235.98   30.80
  -6   2 -10   50.19   15.30
  -6   2 -10   76.39   13.00
   6  -2  10   44.60   12.20
   6  -2  10   38.40   11.00
  -7   2 -10   79.79   26.50
   7  -2  10   25.70   12.10
   7  -2  10    9.20   11.70
   4   1 -10  149.59   19.40
   4   1 -10  187.48   22.90
  -4  -1  10  170.98   19.10
   3   1 -10  363.86   22.60
   3   1 -10  342.17   25.20
  -3  -1  10  335.67   24.30
  -3  -1  10  350.06   25.10
   2   1 -10   10.10   18.90
   2   1 -10   13.80    8.20
   2   1 -10   -2.00    8.20
  -2  -1  10   17.50   10.40
  -2  -1  10   10.30    9.90
  -2  -1  10   14.90    8.40
   1   1 -10  544.65   25.80
   1   1 -10  480.25   36.40
   1   1 -10  537.55   26.50
  -1  -1  10  562.34   25.70
  -1  -1  10  566.54   29.10
  -1  -1  10  510.85   26.50
   0   1 -10  358.16   21.30
   0   1 -10  425.16   22.40
   0   1 -10  379.06   33.30
   0  -1  10  389.86   21.50
   0  -1  10  404.76   23.10
   0  -1  10  390.76   23.40
  -1   1 -10   86.39   11.60
  -1   1 -10   77.99   10.10
   1  -1  10   84.89   10.90
   1  -1  10   74.89   12.00
   1  -1  10   64.49   10.30
   1  -1  10   62.99   12.80
  -2   1 -10  408.16   22.40
  -2   1 -10  372.86   20.80
   2  -1  10  331.97   19.70
   2  -1  10  370.56   20.10
   2  -1  10  350.96   28.60
   2  -1  10  424.16   23.70
  -3   1 -10  349.67   19.90
  -3   1 -10  354.26   21.60
   3  -1  10  339.77   18.60
   3  -1  10  353.46   28.50
   3  -1  10  380.96   20.20
   3  -1  10  299.37   20.90
  -4   1 -10  153.78   15.30
  -4   1 -10  157.18   17.80
  -4   1 -10  159.48   19.20
   4  -1  10  142.79   17.40
   4  -1  10  169.88   15.50
   4  -1  10  123.19   18.60
   4  -1  10  178.08   17.20
  -5   1 -10  288.07   20.50
  -5   1 -10  265.77   23.20
   5  -1  10  242.98   21.50
   5  -1  10  250.47   27.50
   5  -1  10  277.07   32.10
   5  -1  10  272.37   19.30
  -6   1 -10   12.00   13.70
  -6   1 -10   14.90   10.20
   6  -1  10   15.10    9.60
   6  -1  10   11.30   16.70
   6  -1  10   -9.70    9.50
  -7   1 -10   11.80   22.60
   7  -1  10   16.80   11.30
   7  -1  10   20.10   11.70
   5   0 -10   63.19   11.40
   5   0 -10   62.99   15.90
  -5   0  10   53.89   11.90
   4   0 -10  174.68   21.40
   4   0 -10  148.19   16.70
  -4   0  10  146.99   18.30
   3   0 -10  564.54   36.80
   3   0 -10  585.84   30.10
   3   0 -10  540.95   27.00
  -3   0  10  554.94   29.60
  -3   0  10  567.34   29.00
   2   0 -10  185.08   22.20
   2   0 -10  193.58   16.90
   2   0 -10  236.68   17.90
  -2   0  10  194.08   19.10
  -2   0  10  250.07   19.50
  -2   0  10  220.68   17.30
   1   0 -10  827.22   33.90
   1   0 -10  818.52   40.90
   1   0 -10  816.12   34.20
  -1   0  10  763.42   33.60
  -1   0  10  861.01   36.00
  -1   0  10  837.12   32.70
   0   0 -10 1927.01   70.99
   0   0 -10 1976.20   66.89
   0   0 -10 2030.20   67.49
   0   0  10 2025.90   66.19
   0   0  10 1974.30   68.79
   0   0  10 2017.80   65.89
   0   0  10 1927.61   64.99
  -1   0 -10   12.80    7.10
  -1   0 -10   10.20    6.70
  -1   0 -10    3.20   15.20
   1   0  10   10.80    6.50
   1   0  10    7.40    9.90
   1   0  10    4.00    7.80
   1   0  10    6.40    8.10
  -2   0 -10  960.40   38.50
  -2   0 -10 1004.20   45.20
   2   0  10  985.80   37.00
   2   0  10  952.90   34.80
   2   0  10  909.21   41.90
   2   0  10 1016.20   39.90
   2   0  10  908.71   40.30
  -3   0 -10  480.05   23.80
  -3   0 -10  463.95   22.20
   3   0  10  474.55   21.30
   3   0  10  459.25   24.60
   3   0  10  443.36   27.70
   3   0  10  443.76   23.40
   3   0  10  436.06   27.50
  -4   0 -10   10.20    6.80
  -4   0 -10   11.10   10.70
  -4   0 -10   12.90    8.80
   4   0  10   10.40   14.50
   4   0  10   19.40   12.50
   4   0  10   16.70    8.10
   4   0  10   11.60    8.40
   4   0  10    3.00    7.50
  -5   0 -10  340.57   22.30
  -5   0 -10  351.86   25.50
  -5   0 -10  350.06   19.50
   5   0  10  366.66   21.50
   5   0  10  401.46   31.20
   5   0  10  366.56   26.80
   5   0  10  355.86   23.00
  -6   0 -10   99.29   17.10
  -6   0 -10  128.09   17.50
   6   0  10  126.69   17.70
   6   0  10  146.09   18.60
   6   0  10  133.29   23.10
  -7   0 -10    3.00   12.00
   7   0  10   10.40   12.10
   7   0  10   29.00   11.80
   5  -1 -10   18.80   15.30
   5  -1 -10   14.40    8.90
  -5   1  10   34.20   10.90
   4  -1 -10   47.90   12.60
   4  -1 -10   24.60    9.20
  -4   1  10   24.60   12.30
   3  -1 -10  312.87   19.60
   3  -1 -10  366.66   23.90
   3  -1 -10  363.86   32.20
  -3   1  10  348.27   22.20
  -3   1  10  336.17   22.90
  -3   1  10  367.46   24.30
   2  -1 -10    9.50    7.00
   2  -1 -10    0.70   14.90
   2  -1 -10  -16.80    6.30
  -2   1  10    0.30    8.70
  -2   1  10   24.70    9.60
  -2   1  10    5.00    9.70
   1  -1 -10  331.77   28.10
   1  -1 -10  339.87   20.10
   1  -1 -10  332.57   19.50
  -1   1  10  323.77   21.10
  -1   1  10  369.66   22.30
  -1   1  10  325.97   20.10
   0  -1 -10   74.59   16.60
   0  -1 -10   65.19    9.60
   0  -1 -10  108.99   13.00
   0   1  10  122.29   13.90
   0   1  10   88.19   11.60
   0   1  10  119.29   16.20
   0   1  10   92.19   11.70
  -1  -1 -10   10.40   14.30
  -1  -1 -10    0.90    7.00
   1   1  10   -9.60   10.00
   1   1  10   12.50   20.10
   1   1  10   -7.00    5.70
   1   1  10    4.10    7.30
   1   1  10   -5.30    9.60
  -2  -1 -10  514.55   36.50
  -2  -1 -10  646.54   27.00
   2   1  10  664.13   32.10
   2   1  10  639.64   26.20
   2   1  10  623.74   30.70
   2   1  10  670.63   28.00
   2   1  10  679.13   30.60
  -3  -1 -10  420.76   20.00
  -3  -1 -10  376.56   22.60
   3   1  10  398.36   23.30
   3   1  10  400.76   28.20
   3   1  10  415.16   21.60
   3   1  10  402.06   19.80
   3   1  10  423.26   24.70
  -4  -1 -10   66.09    8.50
  -4  -1 -10   62.29   11.20
   4   1  10   66.59   16.10
   4   1  10   63.19   12.70
   4   1  10   64.29   10.50
   4   1  10   54.79   10.60
   4   1  10   68.59    9.40
  -5  -1 -10  266.77   22.80
  -5  -1 -10  249.48   15.70
  -5  -1 -10  244.78   19.70
   5   1  10  275.87   19.70
   5   1  10  265.57   16.90
   5   1  10  242.38   19.90
   5   1  10  238.58   28.50
   5   1  10  273.67   23.40
  -6  -1 -10   22.50   10.40
  -6  -1 -10   11.60   13.90
   6   1  10   18.90    9.70
   6   1  10   -8.00    9.30
  -7  -1 -10   42.30   13.30
   7   1  10   67.49   14.60
   7   1  10   30.60   12.10
   5  -2 -10    2.00    9.00
   5  -2 -10  -12.60   13.50
  -5   2  10    0.60    9.10
   4  -2 -10  148.89   16.00
   4  -2 -10  152.78   17.10
   4  -2 -10  145.39   17.40
  -4   2  10   99.19   15.70
   3  -2 -10   82.49   12.80
   3  -2 -10   84.99   10.90
   3  -2 -10  112.19   15.20
   3  -2 -10   78.89   18.30
  -3   2  10   87.39   13.50
  -3   2  10   88.49   14.10
  -3   2  10   88.79   13.10
   2  -2 -10   44.10    9.90
   2  -2 -10   41.70   16.50
   2  -2 -10   24.70    7.80
   2  -2 -10   42.30    9.50
  -2   2  10   45.70   10.80
  -2   2  10   33.40   11.30
  -2   2  10   38.80   10.40
   1  -2 -10  133.99   14.50
   1  -2 -10  179.58   16.90
   1  -2 -10  133.29   14.00
   1  -2 -10  105.89   16.10
  -1   2  10  146.59   16.80
  -1   2  10  132.69   14.20
  -1   2  10  151.08   16.40
  -1   2  10  151.58   13.60
   0  -2 -10  242.68   16.70
   0  -2 -10  271.67   19.20
   0  -2 -10  255.17   17.70
   0  -2 -10  208.38   25.90
   0   2  10  246.68   19.00
   0   2  10  242.38   18.10
   0   2  10  249.58   17.60
   0   2  10  276.27   16.50
  -1  -2 -10   87.79   11.20
  -1  -2 -10   55.09   13.90
  -1  -2 -10   57.49   10.00
   1   2  10   69.39   10.10
   1   2  10   85.29   10.60
   1   2  10   83.09   13.80
   1   2  10   71.59   12.80
  -2  -2 -10  586.14   31.50
  -2  -2 -10  685.23   27.60
   2   2  10  689.93   34.00
   2   2  10  681.23   31.10
   2   2  10  630.34   28.30
   2   2  10  697.43   27.30
   2   2  10  674.73   31.30
  -3  -2 -10   44.20    9.90
  -3  -2 -10   70.79    8.50
   3   2  10   78.69   15.20
   3   2  10   53.29   11.40
   3   2  10   62.09    9.60
   3   2  10   50.19    9.70
   3   2  10   61.99    9.50
  -4  -2 -10  467.75   20.70
  -4  -2 -10  498.55   25.50
   4   2  10  433.66   24.60
   4   2  10  480.45   24.90
   4   2  10  441.36   28.60
   4   2  10  430.16   23.70
   4   2  10  486.15   21.70
  -5  -2 -10  349.87   22.40
  -5  -2 -10  337.27   17.10
   5   2  10  345.77   30.60
   5   2  10  359.36   22.30
   5   2  10  329.27   22.50
   5   2  10  360.46   22.50
   5   2  10  333.37   19.60
  -6  -2 -10    2.90   13.40
  -6  -2 -10   14.00   10.10
   6   2  10  -17.60    9.20
   6   2  10   10.20   10.80
  -7  -2 -10  139.89   18.30
   7   2  10   98.89   16.60
   7   2  10  136.29   16.00
   5  -3 -10   27.10   10.60
   5  -3 -10   29.30   10.20
  -5   3  10   20.80   10.40
   4  -3 -10  190.68   19.80
   4  -3 -10  240.38   18.60
   4  -3 -10  244.78   23.70
  -4   3  10  257.27   23.70
   3  -3 -10  188.78   16.80
   3  -3 -10  192.28   18.00
   3  -3 -10  205.88   19.40
  -3   3  10  176.28   20.20
  -3   3  10  189.38   20.50
   2  -3 -10   80.49   10.80
   2  -3 -10   79.69   11.90
   2  -3 -10   84.09   11.90
   2  -3 -10   67.69   17.30
  -2   3  10   98.89   13.80
  -2   3  10   77.89   12.50
   1  -3 -10 1025.40   41.30
   1  -3 -10 1089.09   41.80
   1  -3 -10 1101.09   46.80
   1  -3 -10 1114.69   42.30
  -1   3  10 1055.29   41.20
  -1   3  10 1107.89   40.60
  -1   3  10 1114.79   43.40
   0  -3 -10  663.13   29.80
   0  -3 -10  621.64   35.10
   0  -3 -10  623.04   28.60
   0  -3 -10  634.94   27.90
   0   3  10  569.84   27.40
   0   3  10  640.94   27.30
   0   3  10  666.83   30.60
  -1  -3 -10  319.57   18.80
  -1  -3 -10  310.87   25.70
  -1  -3 -10  357.26   20.00
  -1  -3 -10  352.76   22.00
   1   3  10  334.17   19.20
   1   3  10  317.57   21.70
   1   3  10  327.77   25.30
   1   3  10  344.27   18.90
  -2  -3 -10 1152.78   44.10
  -2  -3 -10 1173.78   40.90
   2   3  10 1165.68   45.00
   2   3  10 1189.48   43.90
   2   3  10 1113.39   40.50
   2   3  10 1172.38   42.70
   2   3  10 1089.19   47.10
  -3  -3 -10  111.29   19.90
  -3  -3 -10  115.19   11.20
   3   3  10  120.49   13.40
   3   3  10  100.79   17.00
   3   3  10  106.49   13.40
   3   3  10  104.39   11.10
   3   3  10  114.59   13.70
  -4  -3 -10  191.28   18.10
  -4  -3 -10  186.88   12.90
   4   3  10  159.58   19.50
   4   3  10  194.28   16.60
   4   3  10  178.28   19.50
   4   3  10  195.78   17.50
   4   3  10  194.98   15.70
  -5  -3 -10  505.45   27.50
  -5  -3 -10  543.75   21.30
   5   3  10  469.35   35.70
   5   3  10  538.55   28.40
   5   3  10  515.75   27.80
   5   3  10  505.55   23.90
   5   3  10  526.25   25.80
  -6  -3 -10   55.89   16.80
  -6  -3 -10   45.40   12.00
   6   3  10   45.10   12.50
   6   3  10   50.99   10.90
   6   3  10   54.19   12.40
  -7  -3 -10  164.68   20.30
   7   3  10  189.58   22.30
   7   3  10  130.89   18.00
   4  -4 -10  199.88   20.00
   4  -4 -10  163.58   17.10
   4  -4 -10  195.58   23.60
  -4   4  10  180.48   19.30
   3  -4 -10  125.49   15.70
   3  -4 -10  134.59   17.00
   3  -4 -10  155.98   16.70
  -3   4  10  175.88   19.00
  -3   4  10  125.99   16.30
   2  -4 -10    2.30    7.90
   2  -4 -10    5.30    7.20
   2  -4 -10    0.50   16.70
  -2   4  10    3.10    9.20
  -2   4  10    7.40    8.80
   1  -4 -10  607.34   28.50
   1  -4 -10  567.04   28.30
   1  -4 -10  614.84   29.00
   1  -4 -10  590.64   35.90
  -1   4  10  559.24   27.90
  -1   4  10  623.64   26.90
  -1   4  10  687.53   31.50
   0  -4 -10  335.57   20.60
   0  -4 -10  341.57   29.20
   0  -4 -10  338.57   20.00
   0  -4 -10  379.06   22.20
   0   4  10  313.17   18.30
   0   4  10  346.27   25.10
   0   4  10  303.97   20.00
  -1  -4 -10  338.97   22.00
  -1  -4 -10  363.46   20.80
  -1  -4 -10  356.26   19.40
  -1  -4 -10  322.27   28.40
   1   4  10  292.57   19.30
   1   4  10  337.07   26.50
   1   4  10  330.57   19.30
   1   4  10  371.66   22.80
  -2  -4 -10 1185.68   45.40
  -2  -4 -10 1177.88   41.60
  -2  -4 -10 1212.28   47.10
   2   4  10 1124.19   41.70
   2   4  10 1213.38   46.40
   2   4  10 1164.38   45.50
   2   4  10 1164.78   43.70
  -3  -4 -10  157.28   12.30
  -3  -4 -10  156.78   16.70
   3   4  10  154.68   16.90
   3   4  10  128.09   18.00
   3   4  10  144.89   20.00
   3   4  10  159.38   14.80
   3   4  10  155.98   15.60
  -4  -4 -10  334.47   16.60
  -4  -4 -10  326.77   22.90
   4   4  10  375.06   30.90
   4   4  10  362.46   22.00
   4   4  10  327.67   21.20
   4   4  10  350.76   23.10
   4   4  10  347.17   19.70
  -5  -4 -10  480.55   19.50
   5   4  10  535.75   28.60
   5   4  10  515.95   37.40
   5   4  10  507.45   24.00
   5   4  10  521.75   28.60
  -6  -4 -10   11.10   13.90
   6   4  10   32.20   12.50
   6   4  10   -4.50   10.80
   6   4  10    7.80    9.80
  -7  -4 -10  105.79   15.60
   7   4  10   82.19   12.80
   7   4  10   67.29   16.90
   4  -5 -10    8.40   13.60
   4  -5 -10   19.50   11.20
   4  -5 -10   25.70   11.60
   3  -5 -10   60.49   12.30
   3  -5 -10   88.39   12.30
   3  -5 -10   92.49   15.00
  -3   5  10   66.29   14.20
  -3   5  10   45.60   12.40
   2  -5 -10   13.10    8.80
   2  -5 -10    6.70    9.30
   2  -5 -10   43.10   10.10
   2  -5 -10   15.40   18.10
  -2   5  10   35.40   11.30
  -2   5  10   10.20    9.90
   1  -5 -10  165.68   16.80
   1  -5 -10  183.48   17.30
   1  -5 -10  192.58   17.40
   1  -5 -10  162.88   21.30
  -1   5  10  211.38   16.10
  -1   5  10  155.98   17.10
  -1   5  10  244.08   21.20
   0  -5 -10   25.00    8.60
   0  -5 -10    5.80   16.70
   0  -5 -10   15.20    8.70
   0  -5 -10   36.20    9.60
   0   5  10   21.20    9.40
   0   5  10   17.60    7.50
   0   5  10   10.00    9.20
  -1  -5 -10   24.80    9.80
  -1  -5 -10   44.50   10.30
   1   5  10   33.00    8.10
   1   5  10   36.20   14.00
   1   5  10   30.10   10.70
   1   5  10   35.40    9.90
  -2  -5 -10   89.89   13.10
  -2  -5 -10  100.99   12.30
  -2  -5 -10   63.19   10.60
   2   5  10   76.29   14.00
   2   5  10   66.89   11.00
   2   5  10   96.59   11.60
   2   5  10   88.89   13.00
  -3  -5 -10    0.90    5.40
  -3  -5 -10   10.60   10.20
  -3  -5 -10    1.40    8.80
   3   5  10    9.90    9.30
   3   5  10    6.30    7.80
   3   5  10   -0.20    8.50
  -4  -5 -10  179.98   12.20
  -4  -5 -10  199.98   19.80
   4   5  10  155.38   15.70
   4   5  10  121.99   15.30
   4   5  10  170.68   17.60
   4   5  10  121.69   24.50
  -5  -5 -10   12.20   11.00
   5   5  10   27.40    9.90
   5   5  10   -4.80   19.50
   5   5  10   23.00   12.30
   5   5  10   20.50   12.00
  -6  -5 -10   17.60   12.70
   6   5  10   -2.50   10.00
   6   5  10   -8.20   11.60
   6   5  10  -24.00   10.90
   4  -6 -10   36.60   13.60
   4  -6 -10   14.90   12.40
  -4   6  10   21.10    9.70
   3  -6 -10    4.40   11.20
   3  -6 -10    9.60   10.40
   3  -6 -10  -20.80   12.50
  -3   6  10   10.20   11.70
  -3   6  10   -0.90   11.20
   2  -6 -10   97.99   13.10
   2  -6 -10  110.29   15.80
   2  -6 -10   82.99   13.60
  -2   6  10   69.29   12.50
   1  -6 -10   94.89   13.20
   1  -6 -10   91.49   13.40
   1  -6 -10   85.59   12.80
   1  -6 -10   74.79   21.10
  -1   6  10   90.49   13.20
  -1   6  10   99.79   13.70
  -1   6  10  123.29   15.70
   0  -6 -10    5.00    9.40
   0  -6 -10   18.50    9.50
   0  -6 -10   31.30    9.20
   0   6  10   35.90   11.50
   0   6  10    2.60    8.90
   0   6  10   10.90    8.20
  -1  -6 -10   79.99   12.50
  -1  -6 -10   56.99   11.50
  -1  -6 -10   61.69   10.30
   1   6  10   83.49   11.30
   1   6  10   70.99   12.70
   1   6  10   73.49   12.10
  -2  -6 -10   39.30   11.00
  -2  -6 -10   20.30   10.80
   2   6  10   25.40    8.70
   2   6  10   38.60   10.90
   2   6  10   66.29   12.60
  -3  -6 -10   22.50    6.70
  -3  -6 -10    5.80   10.50
  -3  -6 -10   28.50   11.70
   3   6  10   23.80   11.40
   3   6  10   34.50   10.20
   3   6  10   18.20    9.20
  -4  -6 -10   39.10    6.50
  -4  -6 -10   32.80   12.20
   4   6  10   27.50   12.00
   4   6  10   46.50   10.60
   4   6  10   45.10   12.60
  -5  -6 -10   68.39   15.10
   5   6  10   66.09   14.20
   5   6  10   50.79   11.40
   5   6  10   42.40   13.70
  -6  -6 -10  -13.10   13.30
   6   6  10   -3.70   13.40
   6   6  10    9.30   13.40
   6   6  10   15.50   10.80
   3  -7 -10   73.69   13.80
   3  -7 -10   20.90   13.90
   3  -7 -10   28.10   15.30
  -3   7  10   58.99   11.50
   2  -7 -10  241.18   23.00
   2  -7 -10  166.68   20.60
   2  -7 -10  247.08   24.80
  -2   7  10  214.28   21.30
  -2   7  10  222.78   24.40
   1  -7 -10    9.70   10.80
   1  -7 -10   -3.70   10.20
   1  -7 -10   -6.40    9.90
  -1   7  10   -5.20    9.90
  -1   7  10  -17.20   11.50
  -1   7  10   10.80    7.80
   0  -7 -10  134.19   16.70
   0  -7 -10  136.49   18.90
   0  -7 -10  135.89   20.10
   0   7  10  133.69   16.80
   0   7  10   98.59   13.40
   0   7  10  149.39   15.80
  -1  -7 -10  295.07   23.30
  -1  -7 -10  275.47   20.40
  -1  -7 -10  274.87   23.40
   1   7  10  290.57   24.10
   1   7  10  282.37   21.00
   1   7  10  259.97   19.70
  -2  -7 -10   76.19   14.50
  -2  -7 -10   52.89   12.00
  -2  -7 -10   80.79   17.30
   2   7  10   70.09   12.00
   2   7  10   70.99   12.60
   2   7  10   65.79   12.60
  -3  -7 -10  147.69   17.40
  -3  -7 -10  102.09   16.30
  -3  -7 -10  118.69   13.60
   3   7  10  126.09   17.90
   3   7  10  114.49   13.40
   3   7  10  123.59   16.90
  -4  -7 -10   85.79   17.60
  -4  -7 -10   39.90   14.00
   4   7  10   81.29   15.20
   4   7  10   67.29   15.00
   4   7  10   79.49   13.10
  -5  -7 -10   45.30   16.60
   5   7  10   48.80   15.20
   5   7  10   61.39   13.10
   5   7  10   84.69   15.60
   2  -8 -10   92.99   16.90
   2  -8 -10   82.59   16.10
   2  -8 -10   63.09   15.20
  -2   8  10   89.49   18.30
  -2   8  10   60.69   11.30
   1  -8 -10   33.60   14.00
   1  -8 -10   31.20   13.80
   1  -8 -10   54.19   13.30
  -1   8  10   55.49   10.30
  -1   8  10   55.49   13.20
  -1   8  10   32.20   14.60
   0  -8 -10  -19.00   11.40
   0  -8 -10   11.60   10.60
   0  -8 -10  -18.70   10.80
   0   8  10   20.10   11.50
   0   8  10   12.80    9.20
   0   8  10    6.80   13.30
  -1  -8 -10    3.00   11.70
  -1  -8 -10   10.30   12.60
  -1  -8 -10    9.00   10.10
   1   8  10    1.20    9.70
   1   8  10    6.70   11.30
   1   8  10   14.80   13.60
  -2  -8 -10   67.99   14.40
  -2  -8 -10   61.59   15.50
  -2  -8 -10   69.59   11.70
   2   8  10   69.49   15.90
   2   8  10   67.09   12.80
   2   8  10   96.39   13.70
  -3  -8 -10    5.60   14.70
  -3  -8 -10   -6.40    7.40
  -3  -8 -10   19.10   14.00
   3   8  10   -8.10   13.80
   3   8  10    8.60   11.40
   3   8  10    9.40   10.80
  -4  -8 -10  137.39   19.30
  -4  -8 -10  132.29   21.20
   4   8  10  135.49   15.30
   4   8  10  114.19   17.40
   4   8  10  118.89   17.60
   0  -9 -10   -2.80   12.20
   0   9  10    8.70    9.80
   0   9  10  -11.10   15.30
   0   9  10   14.10    8.90
  -1  -9 -10    8.90   15.10
  -1  -9 -10  -12.60   14.00
  -1  -9 -10   31.00   12.60
   1   9  10   -3.70   10.70
   1   9  10  -16.60   15.20
   1   9  10   10.90    8.50
  -2  -9 -10   11.00   15.50
  -2  -9 -10   -2.60   10.40
  -2  -9 -10   -0.80   14.80
   2   9  10   -4.00    8.40
   2   9  10   -5.20   13.70
   2   9  10   21.00   12.20
   0   5 -11   14.50   15.20
   0  -5  11   28.80   17.40
   0  -5  11   29.30   15.10
  -1   5 -11   11.80   13.60
  -1   5 -11   -1.60   14.80
   1  -5  11   26.30   13.60
   1  -5  11   31.80   15.90
   1  -5  11   25.40   15.10
  -2   5 -11  -18.40   13.80
  -2   5 -11   13.40   15.50
   2  -5  11   -5.50   13.20
   2  -5  11    7.90   14.30
  -3   5 -11   -6.10   13.70
  -3   5 -11   28.20   16.10
  -2  -4  11   -5.20   13.60
  -2  -4  11  -17.00   14.50
   1   4 -11   12.30   13.10
   1   4 -11   32.60   13.60
  -1  -4  11    8.50   12.70
  -1  -4  11   33.80   15.30
   0   4 -11   -1.10   12.30
   0   4 -11   13.80   11.20
   0  -4  11    4.30   12.90
   0  -4  11    8.70   11.90
  -1   4 -11  -13.20   10.70
  -1   4 -11    2.80   11.20
   1  -4  11  -13.50   12.70
   1  -4  11   15.40   11.50
  -2   4 -11   11.10   11.30
  -2   4 -11   31.30   12.70
   2  -4  11    2.70   13.20
   2  -4  11   11.30   12.80
  -3   4 -11    3.70   12.40
  -3   4 -11   27.60   12.70
   3  -4  11    7.10   12.80
  -4   4 -11   21.30   13.50
   4  -4  11   -3.40   12.60
   2   3 -11  -11.90   11.60
   2   3 -11   -0.30   11.20
  -2  -3  11    0.30   13.20
  -2  -3  11    3.80   12.20
   1   3 -11   25.50   11.70
   1   3 -11   29.50   12.10
  -1  -3  11   22.40   13.80
  -1  -3  11   45.70   13.20
   0   3 -11  -10.00   10.20
   0  -3  11   16.00   14.10
   0  -3  11    9.90   11.10
   0  -3  11   14.50   11.60
  -1   3 -11   63.59   12.70
  -1   3 -11   40.10   11.20
   1  -3  11   57.99   12.00
   1  -3  11   42.60   13.50
  -2   3 -11   -9.70    9.90
  -2   3 -11   -9.20    9.30
   2  -3  11   -2.50   11.20
   2  -3  11    2.10   10.10
  -3   3 -11   78.09   13.70
  -3   3 -11   77.99   13.30
   3  -3  11   81.69   13.60
   3  -3  11   97.89   13.00
  -4   3 -11    6.70   10.40
  -4   3 -11   26.20   13.80
  -4   3 -11   32.90   13.10
   4  -3  11    4.70   12.20
   4  -3  11   -7.30    8.90
  -5   3 -11   38.50   13.50
  -5   3 -11   28.10   15.50
   5  -3  11   53.49   13.00
   5  -3  11   45.90   14.40
   3   2 -11    0.90   12.70
   3   2 -11   14.30   12.20
  -3  -2  11   34.80   13.60
  -3  -2  11   18.40   13.50
   2   2 -11   21.70   12.70
   2   2 -11    8.70   11.00
  -2  -2  11   -7.30   11.30
  -2  -2  11    8.50   12.20
   1   2 -11   89.89   13.60
   1   2 -11  106.49   15.00
  -1  -2  11   99.29   15.10
  -1  -2  11  109.19   14.80
   0   2 -11   -1.80    8.90
   0   2 -11   19.10   10.90
   0  -2  11    0.90   10.30
   0  -2  11    1.00   12.70
   0  -2  11    7.30    9.50
  -1   2 -11   26.90   10.50
  -1   2 -11   17.60    9.40
   1  -2  11   28.80   11.20
   1  -2  11   31.50   10.80
  -2   2 -11  -11.10    8.50
  -2   2 -11   -1.10   11.10
  -2   2 -11    0.80    8.20
   2  -2  11    6.40   10.00
   2  -2  11    7.90    8.10
   2  -2  11   -7.10    9.70
  -3   2 -11   22.40   12.30
  -3   2 -11  -15.20    8.60
  -3   2 -11    6.50    8.80
   3  -2  11   -5.80    8.80
   3  -2  11   -8.70    7.30
  -4   2 -11   28.50   12.30
  -4   2 -11   11.00   13.10
  -4   2 -11    8.90    9.50
   4  -2  11   -1.70   10.50
   4  -2  11   21.80    9.20
  -5   2 -11   -5.40   13.40
  -5   2 -11  -12.00   11.30
   5  -2  11   -2.30   12.00
   5  -2  11   -0.80    9.40
  -6   2 -11   -9.50   14.90
  -6   2 -11  -14.00   12.90
   6  -2  11   -5.20   12.30
   6  -2  11   -1.80   11.90
   3   1 -11  173.48   23.30
   3   1 -11  156.78   19.20
  -3  -1  11  173.08   22.20
  -3  -1  11  137.49   18.40
   2   1 -11   73.09   12.90
   2   1 -11   48.00   13.00
   2   1 -11   35.00   22.90
  -2  -1  11   48.30   13.50
  -2  -1  11   62.29   13.70
   1   1 -11   -3.20    9.00
   1   1 -11    2.70    8.70
  -1  -1  11    2.20    9.60
  -1  -1  11    7.30   10.70
  -1  -1  11    6.10   10.70
   0   1 -11  136.49   16.60
   0   1 -11  162.48   17.00
   0  -1  11  172.38   21.30
   0  -1  11  188.58   19.30
   0  -1  11  139.09   14.80
  -1   1 -11  165.38   18.00
  -1   1 -11  165.98   16.50
   1  -1  11  188.48   16.00
   1  -1  11  158.48   14.60
   1  -1  11  167.18   17.40
  -2   1 -11   84.99   12.50
  -2   1 -11   74.59   11.30
   2  -1  11   80.39   11.60
   2  -1  11   97.59   13.00
   2  -1  11   80.79   10.90
  -3   1 -11  341.37   21.70
  -3   1 -11  307.27   23.10
  -3   1 -11  325.87   23.00
   3  -1  11  340.57   21.30
   3  -1  11  351.56   20.80
   3  -1  11  372.46   24.00
  -4   1 -11   17.70   11.20
  -4   1 -11    3.50   12.30
  -4   1 -11    3.90    8.40
   4  -1  11   14.10    8.50
   4  -1  11   19.80   22.70
   4  -1  11   23.00   10.60
  -5   1 -11   17.10    8.90
  -5   1 -11    2.60   13.10
  -5   1 -11   27.10   12.50
   5  -1  11   18.90   12.60
   5  -1  11   -0.10    9.50
  -6   1 -11  125.09   16.60
  -6   1 -11   74.79   17.80
   6  -1  11   87.29   14.50
   6  -1  11  106.39   15.60
   4   0 -11   22.50   16.40
   4   0 -11   22.40   11.00
  -4   0  11   23.80   10.20
   3   0 -11   62.59   13.30
   3   0 -11   80.59   12.90
  -3   0  11   90.89   15.00
  -3   0  11   84.39   15.80
   2   0 -11  281.47   35.80
   2   0 -11  210.88   19.40
   2   0 -11  203.88   20.70
  -2   0  11  262.37   24.10
  -2   0  11  219.18   21.70
  -2   0  11  209.38   21.70
   1   0 -11   17.40    8.60
   1   0 -11   16.00    8.90
   1   0 -11   -5.90   18.90
  -1   0  11    2.00    9.90
  -1   0  11   14.70   10.60
  -1   0  11   20.30   11.10
   0   0 -11  136.79   15.70
   0   0 -11  108.49   15.00
   0   0  11  114.19   13.50
   0   0  11  133.29   15.70
   0   0  11   88.29   14.70
  -1   0 -11  410.16   23.20
  -1   0 -11  373.16   22.20
   1   0  11  382.56   21.20
   1   0  11  356.56   22.20
   1   0  11  409.26   25.30
  -2   0 -11    3.60    7.40
  -2   0 -11   20.00    9.40
   2   0  11    4.20    9.10
   2   0  11   15.50    9.20
   2   0  11    0.30    6.90
  -3   0 -11  166.58   16.40
  -3   0 -11  189.98   18.80
   3   0  11  157.98   15.80
   3   0  11  187.28   18.00
   3   0  11  166.88   17.00
  -4   0 -11   22.70    8.70
  -4   0 -11    5.70    9.00
  -4   0 -11   15.40   12.20
   4   0  11   26.00   10.20
   4   0  11    8.10   18.30
   4   0  11   20.00    8.90
   4   0  11   10.60    9.80
  -5   0 -11   22.40   11.50
  -5   0 -11   -1.70   12.80
  -5   0 -11   11.60    8.40
   5   0  11   30.80   11.40
   5   0  11    9.70    9.70
   5   0  11    6.60   18.70
  -6   0 -11  -19.70   11.40
  -6   0 -11    3.60   14.00
   6   0  11   -2.20   11.00
   6   0  11    0.40   11.00
   4  -1 -11    0.90   10.30
   4  -1 -11   14.10   13.90
  -4   1  11    5.00    8.50
   3  -1 -11   61.29   14.00
   3  -1 -11   57.09   11.50
  -3   1  11   59.99   13.70
  -3   1  11   58.69   14.50
   2  -1 -11   68.69   12.20
   2  -1 -11  102.59   13.10
   2  -1 -11   44.70   19.40
  -2   1  11   50.39   12.70
  -2   1  11   69.39   12.80
  -2   1  11  110.29   17.20
   1  -1 -11   15.80   17.90
   1  -1 -11   25.10    9.00
   1  -1 -11   12.50    8.30
  -1   1  11    1.30   10.60
  -1   1  11   33.10   11.80
  -1   1  11   20.70   10.50
   0  -1 -11  406.96   36.60
   0  -1 -11  507.15   25.60
   0  -1 -11  528.45   26.20
   0   1  11  475.25   25.60
   0   1  11  488.85   28.00
   0   1  11  492.85   24.30
  -1  -1 -11   -6.80    6.90
  -1  -1 -11    0.70    7.30
   1   1  11    8.50    7.20
   1   1  11   12.60    8.90
   1   1  11   -2.00    9.00
  -2  -1 -11  247.68   19.40
  -2  -1 -11  214.08   16.70
   2   1  11  208.28   16.00
   2   1  11  206.18   19.20
   2   1  11  222.28   17.40
  -3  -1 -11   12.40    7.60
  -3  -1 -11   17.00    9.10
   3   1  11   15.50   13.20
   3   1  11   14.40    8.20
   3   1  11   10.60    8.60
   3   1  11   26.50    9.60
  -4  -1 -11    3.80    7.60
  -4  -1 -11   -3.80    9.50
   4   1  11   -6.20   17.30
   4   1  11   -3.80    9.10
   4   1  11  -16.70    7.40
   4   1  11  -13.10   12.30
   4   1  11   -7.10    8.90
  -5  -1 -11    9.60   10.20
  -5  -1 -11    8.20   12.50
  -5  -1 -11   14.80    7.50
   5   1  11  -16.00   18.30
   5   1  11   -3.30    8.70
   5   1  11    6.30   10.20
   5   1  11   -6.20   13.00
  -6  -1 -11  -14.90   13.60
  -6  -1 -11   -9.60   12.50
   6   1  11   24.80   11.90
   6   1  11   11.90   11.40
  -7  -1 -11   21.00   11.90
   7   1  11   19.90   14.00
   7   1  11   -5.20   13.50
   4  -2 -11   15.80   11.60
   4  -2 -11   15.30   14.90
   4  -2 -11   16.20   10.80
  -4   2  11   12.90    9.50
   3  -2 -11  182.18   19.70
   3  -2 -11  158.08   19.00
   3  -2 -11  168.78   22.00
  -3   2  11  160.38   18.20
  -3   2  11  187.68   22.30
   2  -2 -11   45.30   19.60
   2  -2 -11   43.90   11.90
   2  -2 -11   63.49   12.40
   2  -2 -11   58.89   11.20
  -2   2  11   49.30   13.50
  -2   2  11   66.09   13.80
   1  -2 -11  133.49   21.60
   1  -2 -11  133.39   16.10
   1  -2 -11  146.89   16.50
  -1   2  11  119.29   15.10
  -1   2  11  138.99   16.70
   0  -2 -11  131.09   15.00
   0  -2 -11   86.99   11.40
   0  -2 -11   91.69   19.00
   0   2  11  134.09   16.00
   0   2  11  132.49   13.70
   0   2  11  130.19   14.20
  -1  -2 -11   41.40    8.80
  -1  -2 -11   21.60    9.30
   1   2  11   24.90    7.60
   1   2  11   32.20    9.60
   1   2  11   27.90   10.30
  -2  -2 -11   17.70    7.90
  -2  -2 -11   47.10   11.20
   2   2  11    6.30    8.70
   2   2  11   22.90    8.20
   2   2  11   26.70    9.90
  -3  -2 -11  163.08   14.90
  -3  -2 -11  111.39   14.70
   3   2  11  112.49   15.40
   3   2  11  121.99   14.90
   3   2  11  127.09   12.40
   3   2  11   97.49   15.80
  -4  -2 -11    5.90   10.20
  -4  -2 -11   19.00    7.20
   4   2  11   20.50   17.10
   4   2  11   22.00    9.30
   4   2  11   15.50    9.00
   4   2  11   31.50   10.20
   4   2  11   25.40   13.50
  -5  -2 -11   21.40    7.20
  -5  -2 -11   29.40   12.00
   5   2  11    9.00    9.50
   5   2  11   13.90   13.90
   5   2  11   17.00   11.60
   5   2  11    7.20   10.00
   5   2  11   23.10   19.70
  -6  -2 -11   98.79   15.20
  -6  -2 -11   59.69   18.10
   6   2  11   94.89   15.20
   6   2  11   80.39   15.10
  -7  -2 -11   20.40   11.90
   7   2  11   -2.00   14.10
   7   2  11  -16.20   12.60
   4  -3 -11   22.10   24.40
   4  -3 -11   27.90   11.90
   4  -3 -11   19.90   12.50
  -4   3  11   11.10   10.30
   3  -3 -11  256.57   21.90
   3  -3 -11  186.78   22.90
   3  -3 -11  201.88   19.20
  -3   3  11  204.88   20.60
  -3   3  11  274.37   23.30
   2  -3 -11   89.89   14.00
   2  -3 -11  125.59   16.90
   2  -3 -11   99.79   20.90
   2  -3 -11  112.59   14.90
  -2   3  11   77.09   13.90
  -2   3  11  102.89   14.90
   1  -3 -11   74.19   11.60
   1  -3 -11   69.89   12.60
   1  -3 -11   80.39   11.40
   1  -3 -11   84.49   20.00
  -1   3  11   74.99   14.00
  -1   3  11   48.70   11.50
  -1   3  11   79.39   10.40
   0  -3 -11  620.74   30.90
   0  -3 -11  607.84   28.10
   0  -3 -11  560.74   28.60
   0  -3 -11  597.24   38.50
   0   3  11  579.84   31.00
   0   3  11  559.94   27.80
   0   3  11  573.54   26.90
  -1  -3 -11  312.87   19.90
  -1  -3 -11  310.17   20.00
   1   3  11  322.47   19.10
   1   3  11  308.27   20.10
   1   3  11  336.17   23.20
  -2  -3 -11  109.69   14.50
  -2  -3 -11  136.89   16.90
   2   3  11  146.69   15.20
   2   3  11  137.49   15.90
   2   3  11  125.09   17.20
   2   3  11  122.59   13.00
  -3  -3 -11  848.32   32.40
  -3  -3 -11  791.02   36.80
   3   3  11  833.82   32.90
   3   3  11  844.82   35.20
   3   3  11  781.22   37.60
   3   3  11  856.01   37.70
  -4  -3 -11   -3.30    5.80
  -4  -3 -11    8.90   10.10
   4   3  11    8.20   13.30
   4   3  11   11.00    9.70
   4   3  11    6.20    9.20
   4   3  11   -1.00    8.90
  -5  -3 -11  346.77   17.30
  -5  -3 -11  366.56   25.20
   5   3  11  306.67   22.70
   5   3  11  271.77   24.20
   5   3  11  289.57   20.80
   5   3  11  254.67   33.10
  -6  -3 -11   83.49   14.00
  -6  -3 -11  100.19   15.30
   6   3  11  121.49   16.50
   6   3  11   99.19   13.10
   6   3  11   73.39   15.30
   3  -4 -11  294.37   26.90
   3  -4 -11  342.17   23.80
   3  -4 -11  316.07   24.40
  -3   4  11  347.77   25.80
  -3   4  11  268.97   24.60
   2  -4 -11  277.67   24.00
   2  -4 -11  334.77   22.10
   2  -4 -11  319.17   23.60
  -2   4  11  278.37   22.60
   1  -4 -11  139.29   17.40
   1  -4 -11  131.89   17.70
   1  -4 -11  136.19   23.40
   1  -4 -11  146.19   17.90
  -1   4  11  107.89   13.70
  -1   4  11  143.09   15.70
  -1   4  11  125.69   16.00
   0  -4 -11  640.74   30.60
   0  -4 -11  698.33   33.30
   0  -4 -11  706.03   32.60
   0   4  11  709.73   30.30
   0   4  11  708.73   31.50
   0   4  11  683.33   34.70
  -1  -4 -11  331.17   21.30
  -1  -4 -11  288.37   19.90
  -1  -4 -11  363.06   23.80
   1   4  11  254.27   19.40
   1   4  11  270.67   19.20
   1   4  11  281.47   22.40
  -2  -4 -11  377.06   24.00
   2   4  11  361.46   29.80
   2   4  11  390.76   22.00
   2   4  11  399.66   25.30
   2   4  11  401.46   22.40
  -3  -4 -11  680.63   32.60
  -3  -4 -11  662.03   27.80
   3   4  11  658.83   29.00
   3   4  11  659.53   31.10
   3   4  11  664.73   35.10
   3   4  11  649.43   33.30
  -4  -4 -11   11.20    9.80
  -4  -4 -11   33.70    7.60
   4   4  11    2.50    9.50
   4   4  11   55.59   12.90
   4   4  11   29.70   13.90
   4   4  11   16.50   10.10
  -5  -4 -11  194.68   22.10
   5   4  11  169.58   21.50
   5   4  11  198.08   19.20
   5   4  11  191.28   21.20
  -6  -4 -11  163.58   22.60
   6   4  11  152.18   19.50
   6   4  11  192.58   24.10
   6   4  11  129.89   14.60
   3  -5 -11  268.77   27.10
   3  -5 -11  319.77   25.40
   3  -5 -11  262.37   22.80
   2  -5 -11  127.89   15.50
   2  -5 -11  122.89   15.70
   2  -5 -11  107.39   15.70
  -2   5  11  173.98   22.20
  -2   5  11  133.79   16.80
   1  -5 -11   14.50   10.70
   1  -5 -11   10.60   19.80
   1  -5 -11   20.80   10.20
   1  -5 -11   31.40   10.60
  -1   5  11   17.50   11.10
  -1   5  11   37.20   13.20
  -1   5  11   26.60    9.10
   0  -5 -11  443.36   25.00
   0  -5 -11  463.15   26.30
   0  -5 -11  469.65   27.70
   0   5  11  458.75   23.90
   0   5  11  471.75   28.60
   0   5  11  445.36   25.30
  -1  -5 -11   32.10   10.60
  -1  -5 -11    6.50   10.80
  -1  -5 -11    5.00    8.00
   1   5  11   19.00   11.60
   1   5  11   17.20   10.10
   1   5  11   11.70    8.60
  -2  -5 -11  269.27   24.50
  -2  -5 -11  247.28   18.50
  -2  -5 -11  251.27   22.00
   2   5  11  272.97   19.80
   2   5  11  311.27   20.40
   2   5  11  240.58   23.00
   2   5  11  281.87   27.90
  -3  -5 -11  157.38   13.90
  -3  -5 -11  157.68   19.20
   3   5  11   99.39   13.00
   3   5  11  158.28   17.90
   3   5  11  150.08   17.50
   3   5  11  171.18   18.60
  -4  -5 -11    1.40    6.40
  -4  -5 -11   13.00   11.50
   4   5  11   -3.20    9.80
   4   5  11   19.80   12.10
   4   5  11  -17.50   10.10
  -5  -5 -11  149.59   18.40
   5   5  11   83.59   15.60
   5   5  11   87.49   15.40
   5   5  11  126.79   14.20
  -6  -5 -11   13.00   15.00
   6   5  11   33.50   12.10
   6   5  11   19.40   21.90
   6   5  11   40.70   16.00
   3  -6 -11   52.69   15.50
   3  -6 -11   56.09   13.80
  -3   6  11   64.19   11.50
   2  -6 -11    3.20   12.80
   2  -6 -11   -0.70   12.40
   2  -6 -11    9.50   11.70
  -2   6  11   21.30   11.80
  -2   6  11    1.30   12.30
   1  -6 -11   99.69   15.70
   1  -6 -11   85.49   15.00
   1  -6 -11  157.38   21.10
  -1   6  11   97.09   13.90
  -1   6  11  125.49   16.10
  -1   6  11   93.39   16.50
   0  -6 -11  125.39   15.70
   0  -6 -11  137.29   18.70
   0  -6 -11  150.78   21.10
   0   6  11  121.69   16.80
   0   6  11  150.08   16.00
   0   6  11  127.19   15.30
  -1  -6 -11    2.50    8.50
  -1  -6 -11   -0.90   10.90
  -1  -6 -11  -22.90    8.90
   1   6  11    5.90   10.60
   1   6  11  -11.90    7.90
   1   6  11   18.90   12.10
  -2  -6 -11  112.99   15.60
  -2  -6 -11   73.89   15.30
  -2  -6 -11  137.79   16.50
   2   6  11  124.39   17.20
   2   6  11  111.59   14.40
   2   6  11   97.39   13.30
  -3  -6 -11   57.29   15.90
  -3  -6 -11   44.60   12.30
  -3  -6 -11   85.89   10.30
   3   6  11   48.10   14.20
   3   6  11   70.19   13.20
   3   6  11   69.19   12.80
  -4  -6 -11   27.40   12.80
   4   6  11   26.50   12.40
   4   6  11   16.10   11.00
   4   6  11   18.10   13.30
  -5  -6 -11   66.79   15.70
   5   6  11   78.49   16.40
   5   6  11   58.29   15.80
   5   6  11   69.79   13.30
   2  -7 -11   -0.70   14.00
   2  -7 -11   -4.70   13.70
   2  -7 -11  -11.40   13.40
  -2   7  11    2.00    8.50
  -2   7  11    8.30   14.40
   1  -7 -11  223.18   23.90
   1  -7 -11  237.38   24.70
   1  -7 -11  168.18   23.60
  -1   7  11  159.78   18.40
  -1   7  11  220.28   19.00
  -1   7  11  256.67   26.10
   0  -7 -11  254.07   25.30
   0  -7 -11  318.97   24.40
   0  -7 -11  334.57   26.90
   0   7  11  331.17   21.80
   0   7  11  269.77   23.20
   0   7  11  304.27   27.60
  -1  -7 -11   16.00   10.30
  -1  -7 -11   15.70   13.60
  -1  -7 -11    5.80   13.00
   1   7  11   -8.50    9.20
   1   7  11    7.10   10.40
   1   7  11    8.40   11.40
  -2  -7 -11  480.25   33.10
  -2  -7 -11  522.55   26.40
  -2  -7 -11  524.45   33.00
   2   7  11  484.95   28.10
   2   7  11  491.65   31.40
   2   7  11  467.65   27.90
  -3  -7 -11  542.15   33.60
  -3  -7 -11  482.75   34.70
  -3  -7 -11  552.74   25.10
   3   7  11  505.55   34.20
   3   7  11  519.55   28.00
   3   7  11  505.95   30.70
  -4  -7 -11   55.19   15.80
   4   7  11   51.09   13.30
   4   7  11   75.29   16.00
   4   7  11   34.90   16.50
   0  -8 -11  260.27   27.40
   0  -8 -11  235.28   27.00
   0  -8 -11  304.17   26.80
   0   8  11  233.28   19.70
   0   8  11  239.78   21.50
   0   8  11  242.78   26.90
  -1  -8 -11   16.60   11.30
  -1  -8 -11    4.50   14.90
  -1  -8 -11  -21.80   14.00
   1   8  11   17.30   15.30
   1   8  11   -2.00   10.50
  -2  -8 -11  211.78   28.20
  -2  -8 -11  217.68   21.60
  -2  -8 -11  235.98   27.90
   2   8  11  273.67   29.60
   2   8  11  240.48   23.90
   2   8  11  264.57   26.00
  -3  -8 -11   72.59   17.00
  -3  -8 -11   58.09   20.40
   3   8  11   79.09   15.90
   3   8  11  129.69   17.50
   3   8  11   97.29   19.90
  -1   4 -12   13.60   13.60
   1  -4  12   12.70   16.00
   1  -4  12    1.10   12.70
  -2   4 -12   26.80   14.70
  -2   4 -12   11.80   15.70
   2  -4  12    8.40   17.50
   2  -4  12   40.90   15.60
  -1  -3  12  -13.70   13.10
  -1  -3  12    1.70   13.70
   0   3 -12    9.00   13.20
   0   3 -12    1.80   12.30
   0  -3  12    2.90   12.70
   0  -3  12    8.60   14.20
  -1   3 -12  -15.80   12.90
  -1   3 -12   -9.50   11.60
   1  -3  12   -4.90   11.50
   1  -3  12   24.70   15.40
  -2   3 -12  -26.80   10.90
  -2   3 -12   11.20   13.20
   2  -3  12    6.10   14.10
   2  -3  12   -3.90   11.50
  -3   3 -12    3.60   13.80
  -3   3 -12  -17.90   12.00
   3  -3  12   -6.10   13.00
  -4   3 -12   37.80   15.90
  -4   3 -12  -14.90   12.00
   4  -3  12  -26.70   10.20
  -2  -2  12  -11.90   12.70
  -2  -2  12   30.60   15.30
   1   2 -12   66.59   14.80
   1   2 -12   62.19   15.00
  -1  -2  12   51.49   15.50
  -1  -2  12   53.59   14.10
   0   2 -12   63.09   13.70
   0   2 -12   52.59   12.80
   0  -2  12   41.00   13.10
   0  -2  12   12.10   12.60
  -1   2 -12    5.40   10.60
  -1   2 -12    3.50   12.10
   1  -2  12   11.10   11.80
   1  -2  12   33.20   13.60
  -2   2 -12   68.99   14.60
  -2   2 -12   38.90   12.50
   2  -2  12   19.60   14.10
   2  -2  12   38.60   12.50
  -3   2 -12   33.60   11.70
  -3   2 -12   -0.10   13.30
  -3   2 -12   11.60   12.70
   3  -2  12   42.60   11.90
   3  -2  12    1.30   12.90
   3  -2  12   20.80   11.70
  -4   2 -12   -5.50   11.10
  -4   2 -12   17.00   14.80
  -4   2 -12  -21.80   10.60
   4  -2  12   -1.90   10.30
   4  -2  12  -10.10   12.60
  -5   2 -12   22.10   16.00
  -5   2 -12   -0.50   13.20
   5  -2  12   -1.80   12.00
   2   1 -12   13.80   14.00
   2   1 -12   14.10   12.30
  -2  -1  12   34.70   14.30
  -2  -1  12   19.30   13.70
   1   1 -12    7.30   10.80
   1   1 -12   14.40   11.60
  -1  -1  12    7.70   12.00
  -1  -1  12    2.80   12.10
   0   1 -12   69.99   13.00
   0   1 -12   64.49   13.80
   0  -1  12   30.80   13.30
   0  -1  12   79.49   13.80
  -1   1 -12   10.20   10.30
  -1   1 -12   15.80   10.90
   1  -1  12    6.70   11.00
   1  -1  12   -6.90    9.70
  -2   1 -12   -5.00    8.60
  -2   1 -12   26.00   12.00
   2  -1  12    3.20    9.60
   2  -1  12   13.70   11.10
   2  -1  12    8.90   11.40
  -3   1 -12   -1.80   12.80
  -3   1 -12   12.60    9.70
  -3   1 -12   22.40   12.10
   3  -1  12    6.50   10.90
   3  -1  12    8.80    9.90
   3  -1  12    6.70   11.70
  -4   1 -12   22.40   11.30
  -4   1 -12   18.20   14.60
  -4   1 -12   27.70   13.60
   4  -1  12   10.90   12.40
   4  -1  12   47.20   12.20
  -5   1 -12   23.10   15.50
  -5   1 -12    0.80   13.80
  -5   1 -12   10.60   10.40
   5  -1  12   30.00   14.40
   5  -1  12   -1.40   11.60
   3   0 -12   19.90   12.60
  -3   0  12   47.90   12.30
   2   0 -12   28.30   12.60
   2   0 -12   52.69   13.00
  -2   0  12   33.90   13.10
  -2   0  12   43.00   14.00
   1   0 -12  -15.70   10.60
   1   0 -12   14.00   10.40
  -1   0  12   -4.60   11.80
  -1   0  12    2.40   11.70
   0   0 -12   17.20   10.70
   0   0 -12   14.40   10.20
   0   0  12   30.00   11.60
   0   0  12   37.20   13.30
  -1   0 -12   13.80    9.70
  -1   0 -12   -9.50   10.30
   1   0  12   -1.10    7.80
   1   0  12   13.10   11.80
   1   0  12    3.70   10.50
  -2   0 -12   11.60    8.80
  -2   0 -12   30.70   10.60
   2   0  12   29.10   11.70
   2   0  12   18.00   10.90
   2   0  12   22.30    9.70
  -3   0 -12   33.50    9.50
  -3   0 -12   26.10   11.50
   3   0  12   20.00   12.40
   3   0  12   17.00   10.00
   3   0  12   26.10   11.10
  -4   0 -12    8.80   13.50
  -4   0 -12    3.40    9.30
  -4   0 -12   20.10   12.70
   4   0  12   -0.50   10.40
   4   0  12    3.70   12.50
   4   0  12   15.20   11.60
  -5   0 -12   50.29   16.60
  -5   0 -12   62.99   14.40
  -5   0 -12   63.59   12.10
   5   0  12   48.10   14.40
   5   0  12   44.30   13.30
  -6   0 -12  -16.10   13.50
   6   0  12   27.70   16.00
   6   0  12    5.20   13.00
   3  -1 -12   16.10   12.30
  -3   1  12   -4.70    8.70
   2  -1 -12    7.80   11.40
   2  -1 -12  -17.70    9.90
  -2   1  12  -11.70   11.50
  -2   1  12   -0.20   13.10
   1  -1 -12   52.89   12.30
   1  -1 -12   44.70   12.90
  -1   1  12   66.49   13.90
  -1   1  12  107.59   16.30
   0  -1 -12   22.10   10.40
   0  -1 -12   -0.30    9.40
   0   1  12    7.70   10.70
   0   1  12   -0.10    9.80
   0   1  12    8.80    8.60
  -1  -1 -12    1.90    8.40
  -1  -1 -12    8.30    9.90
   1   1  12   -0.70    9.60
   1   1  12   -8.60    7.60
   1   1  12    6.70   10.70
  -2  -1 -12   39.80   10.40
  -2  -1 -12   13.80   11.20
   2   1  12   40.60   11.40
   2   1  12   23.50   12.10
   2   1  12   51.09   10.70
  -3  -1 -12  -11.60    7.90
  -3  -1 -12    5.00   11.60
   3   1  12   11.90   10.30
   3   1  12    8.70   10.30
   3   1  12  -10.00    8.50
  -4  -1 -12   19.60   11.10
  -4  -1 -12   17.80    9.40
   4   1  12   -5.10    9.90
   4   1  12    7.60   11.20
   4   1  12   -1.00   10.50
  -5  -1 -12   11.10    9.20
  -5  -1 -12    8.10   14.30
  -5  -1 -12   -6.40   11.40
   5   1  12   -6.40   10.80
   5   1  12   -1.80   12.00
  -6  -1 -12    3.00   14.00
  -6  -1 -12    5.60   11.40
   6   1  12    5.90   12.80
   6   1  12   23.20   14.60
   3  -2 -12   66.49   14.20
   3  -2 -12   32.50   21.40
  -3   2  12   73.69   13.10
   2  -2 -12  -17.20   10.60
   2  -2 -12  -11.90   11.10
  -2   2  12    1.90   13.30
  -2   2  12    9.30   13.30
   1  -2 -12    6.90   10.60
   1  -2 -12   22.60   11.30
  -1   2  12    1.70   12.90
  -1   2  12   18.50   12.10
   0  -2 -12   35.70   10.30
   0  -2 -12   27.00   10.00
   0   2  12   26.00   10.20
   0   2  12   15.30   11.10
   0   2  12   30.10   11.80
  -1  -2 -12   -6.50    8.60
  -1  -2 -12  -11.30    9.20
   1   2  12    6.20   10.30
   1   2  12    7.40    8.30
   1   2  12   -2.30    9.10
  -2  -2 -12   63.99   12.10
  -2  -2 -12   81.19   11.50
   2   2  12   42.20    9.70
   2   2  12   54.99   11.50
   2   2  12   72.19   14.00
  -3  -2 -12   13.80   10.80
  -3  -2 -12   38.60    9.90
   3   2  12   16.60   10.20
   3   2  12   25.50   10.50
   3   2  12   25.20   12.30
  -4  -2 -12   17.50   12.10
  -4  -2 -12   20.40    8.60
   4   2  12    2.60    9.90
   4   2  12   43.30   13.60
   4   2  12   13.40   10.60
  -5  -2 -12   14.70    8.20
  -5  -2 -12  -11.50   11.90
   5   2  12    9.40   12.10
   5   2  12   -5.60   11.40
   5   2  12    2.00   11.10
  -6  -2 -12   18.50   11.70
  -6  -2 -12   -0.40   13.70
   6   2  12  -21.10   13.10
   6   2  12   -4.10   13.70
   3  -3 -12  108.79   16.20
   3  -3 -12  140.19   18.40
  -3   3  12  120.29   15.40
   2  -3 -12   65.99   14.30
   2  -3 -12   48.60   13.40
   2  -3 -12   95.99   15.40
  -2   3  12   93.69   16.60
  -2   3  12   88.19   16.40
   1  -3 -12   11.10   12.20
   1  -3 -12   16.90   11.20
   1  -3 -12   -6.80   10.70
  -1   3  12    3.80   12.00
  -1   3  12   22.70   12.30
   0  -3 -12  230.08   19.50
   0  -3 -12  172.08   19.90
   0   3  12  153.78   17.20
   0   3  12  181.58   22.80
   0   3  12  161.68   16.80
  -1  -3 -12   31.70    9.90
  -1  -3 -12   25.50   11.80
   1   3  12    8.20   11.70
   1   3  12   54.79   10.40
   1   3  12   18.70   10.40
  -2  -3 -12   16.30   10.90
  -2  -3 -12   13.30    9.00
   2   3  12   18.10   10.20
   2   3  12    5.40    9.50
   2   3  12   14.70   10.80
  -3  -3 -12   21.90    9.40
  -3  -3 -12   50.19   12.90
   3   3  12   33.10   12.90
   3   3  12   31.70   10.70
   3   3  12   36.30   11.30
  -4  -3 -12   18.40   11.60
  -4  -3 -12   42.10   10.20
   4   3  12   38.30   11.90
   4   3  12   22.60   10.70
   4   3  12   19.50   17.40
   4   3  12   27.70   12.10
  -5  -3 -12   16.30   11.50
   5   3  12   -7.90   11.10
   5   3  12    1.00   11.40
   5   3  12    6.00   12.80
  -6  -3 -12   56.99   16.30
  -6  -3 -12   27.60   12.30
   6   3  12   37.60   18.10
   2  -4 -12   46.60   12.70
   2  -4 -12   49.10   13.80
   2  -4 -12   49.10   14.60
  -2   4  12   39.30   13.70
  -2   4  12   46.20   15.30
   1  -4 -12   28.20   12.90
   1  -4 -12   62.09   14.30
   1  -4 -12   23.80   12.30
  -1   4  12   35.70   10.40
  -1   4  12   35.20   12.30
  -1   4  12   54.99   14.00
   0  -4 -12   62.29   11.80
   0  -4 -12   52.79   13.40
   0  -4 -12   56.19   13.60
   0   4  12   45.90   12.50
   0   4  12   46.00   10.70
   0   4  12   56.99   14.40
  -1  -4 -12  187.38   18.00
  -1  -4 -12  201.58   21.20
  -1  -4 -12  178.18   23.40
   1   4  12  202.58   22.90
   1   4  12  184.18   17.30
   1   4  12  199.38   19.80
  -2  -4 -12   15.20    9.00
  -2  -4 -12    2.10   11.70
   2   4  12    7.00    9.90
   2   4  12   18.20   10.30
   2   4  12    3.70   11.70
  -3  -4 -12   16.00   11.80
  -3  -4 -12   16.90    8.90
   3   4  12    4.80   10.80
   3   4  12    7.40   10.70
   3   4  12   15.10   12.70
  -4  -4 -12   42.40   13.70
  -4  -4 -12   53.39    9.40
   4   4  12   34.70   13.20
   4   4  12   49.80   12.20
   4   4  12   52.59   14.10
  -5  -4 -12  -23.30   13.00
   5   4  12   11.10   13.50
   5   4  12  -14.60   11.40
   5   4  12   -6.30   11.40
   2  -5 -12   55.29   15.00
   2  -5 -12  104.39   17.70
   2  -5 -12  108.09   18.40
  -2   5  12   87.19   12.80
  -2   5  12   87.09   18.30
   1  -5 -12   52.19   14.70
   1  -5 -12   83.69   15.10
   1  -5 -12   85.69   15.20
  -1   5  12   45.80   14.90
  -1   5  12   63.99   11.70
  -1   5  12   48.50   14.00
   0  -5 -12   -1.80   12.80
   0  -5 -12   -7.70    9.70
   0  -5 -12   27.10   13.10
   0   5  12    8.00    9.20
   0   5  12    6.00   12.60
   0   5  12   16.70   11.70
  -1  -5 -12   85.69   12.60
  -1  -5 -12   66.69   16.50
  -1  -5 -12   67.99   15.20
   1   5  12   49.90   11.80
   1   5  12   62.19   13.70
   1   5  12   62.79   12.10
  -2  -5 -12   43.80   15.70
  -2  -5 -12   30.00   12.60
  -2  -5 -12   28.60    9.70
   2   5  12   37.20   11.30
   2   5  12    7.80   10.80
   2   5  12   52.29   14.50
  -3  -5 -12   57.59   13.70
  -3  -5 -12   78.49   11.30
   3   5  12   50.39   13.10
   3   5  12   71.69   15.20
   3   5  12   51.39   12.40
  -4  -5 -12   20.90   14.20
  -4  -5 -12    2.90    7.70
   4   5  12    0.30   11.20
   4   5  12   12.20   13.70
   4   5  12   36.00   13.80
  -5  -5 -12   -5.60   13.70
   5   5  12    2.30   11.70
   5   5  12  -13.80   14.40
   5   5  12  -16.40   14.90
   1  -6 -12    7.20   13.80
   1  -6 -12    0.10   12.70
   1  -6 -12    4.20   14.10
  -1   6  12  -27.30   10.00
  -1   6  12  -14.90   13.10
  -1   6  12    4.80   10.00
   0  -6 -12  174.98   25.70
   0  -6 -12  274.77   23.70
   0  -6 -12  230.98   24.10
   0   6  12  280.17   25.60
   0   6  12  274.17   21.10
   0   6  12  268.87   22.50
  -1  -6 -12   31.30   13.30
  -1  -6 -12   -0.10   10.10
  -1  -6 -12   29.30   15.00
   1   6  12   32.00   11.80
   1   6  12   19.00   12.30
   1   6  12   33.60   14.70
  -2  -6 -12   80.19   17.60
  -2  -6 -12  109.29   18.00
  -2  -6 -12   71.69   12.20
   2   6  12   92.69   14.80
   2   6  12   84.19   15.10
   2   6  12   92.59   16.80
  -3  -6 -12  116.49   18.10
  -3  -6 -12  144.19   16.80
   3   6  12  119.29   17.20
   3   6  12  141.99   19.90
   3   6  12  113.19   15.00
  -4  -6 -12    1.70   15.50
   4   6  12    2.90   11.60
   4   6  12  -10.60   12.90
   4   6  12    0.90   13.10
   0  -7 -12  121.99   21.30
   0  -7 -12  201.78   24.00
   0   7  12  167.78   20.10
   0   7  12  158.68   16.60
   0   7  12  114.79   21.00
  -1  -7 -12   81.79   17.90
  -1  -7 -12  108.19   15.20
  -1  -7 -12   85.29   19.40
   1   7  12  152.68   25.40
   1   7  12   87.89   18.10
   1   7  12  116.99   15.90
  -2  -7 -12   16.80   15.70
  -2  -7 -12   15.50   10.80
  -2  -7 -12   15.40   17.00
   2   7  12    8.00   15.60
   2   7  12   19.60   13.20
   2   7  12   31.40   13.50
  -3  -7 -12   80.79   18.40
   3   7  12   64.89   14.90
   3   7  12   44.30   16.30
   3   7  12   51.49   15.50
  -1   2 -13   65.09   17.20
  -1   2 -13   27.70   14.10
   1  -2  13   50.69   14.70
   1  -2  13   56.49   16.50
  -2   2 -13  116.09   16.90
  -2   2 -13   93.59   18.60
   2  -2  13  132.99   16.20
   2  -2  13  135.89   20.70
  -3   2 -13   32.30   17.20
  -3   2 -13  -10.10   13.50
   3  -2  13    3.80   12.40
   0   1 -13    1.30   13.90
   0   1 -13   -9.40   12.10
   0  -1  13   20.90   13.60
   0  -1  13   25.70   15.60
  -1   1 -13   23.00   14.50
  -1   1 -13   22.10   13.40
   1  -1  13   20.10   15.90
   1  -1  13   12.30   12.50
  -2   1 -13  211.48   23.70
  -2   1 -13  147.19   19.00
   2  -1  13  178.08   17.50
   2  -1  13  156.68   21.10
   2  -1  13  121.49   18.20
  -3   1 -13   10.10   12.50
  -3   1 -13   49.80   15.70
  -3   1 -13   11.40   15.50
   3  -1  13    6.30   11.30
   3  -1  13   -0.70   13.40
   3  -1  13    8.50   12.30
  -4   1 -13  -14.60   12.20
  -4   1 -13  -13.20   14.50
  -4   1 -13   -8.80   15.70
   1   0 -13   33.70   14.40
   1   0 -13   77.09   16.40
  -1   0  13   57.39   15.70
  -1   0  13   61.69   14.80
   0   0 -13   55.89   14.90
   0   0 -13   62.29   14.50
   0   0  13   60.59   16.80
   0   0  13   85.49   15.10
  -1   0 -13   -4.40   11.60
  -1   0 -13   40.20   12.80
   1   0  13   12.20   10.50
   1   0  13   -3.30   14.30
   1   0  13    8.10   12.00
  -2   0 -13  221.88   25.30
  -2   0 -13  171.58   21.60
   2   0  13  180.58   20.90
   2   0  13  153.38   16.80
   2   0  13  216.78   26.60
  -3   0 -13    0.10   14.80
  -3   0 -13   16.00   11.30
   3   0  13   28.30   14.60
   3   0  13    9.00   12.70
   3   0  13   29.50   12.20
  -4   0 -13   59.19   13.80
  -4   0 -13   69.99   17.80
  -4   0 -13   72.09   17.50
   4   0  13   56.99   17.40
   4   0  13   78.99   14.90
   1  -1 -13    8.00   12.70
   1  -1 -13   -1.20   13.00
  -1   1  13    2.70   12.50
  -1   1  13   18.70   14.90
   0  -1 -13   -4.90   12.90
   0  -1 -13    3.70   11.10
   0   1  13   14.40   13.00
   0   1  13    4.70   12.50
  -1  -1 -13    2.60   11.70
  -1  -1 -13   43.70   13.80
   1   1  13   37.50   13.40
   1   1  13   18.90   11.30
   1   1  13   22.00   12.40
  -2  -1 -13   45.60   13.90
  -2  -1 -13   73.79   13.10
   2   1  13   90.39   17.30
   2   1  13   77.89   14.00
   2   1  13   57.29   12.70
  -3  -1 -13  -10.90    9.80
  -3  -1 -13   14.20   12.00
   3   1  13    5.20   11.80
   3   1  13  -15.20   10.10
   3   1  13  -18.40   12.90
  -4  -1 -13   10.10   10.70
  -4  -1 -13    4.00   14.60
   4   1  13   16.20   12.60
   4   1  13  -12.30   12.50
   4   1  13    3.40   12.20
  -5  -1 -13  -11.10   14.10
  -5  -1 -13   13.60   11.10
   5   1  13   10.00   19.40
   1  -2 -13   -0.80   12.40
   1  -2 -13   26.80   13.60
  -1   2  13    2.40   12.70
  -1   2  13   -1.40   15.10
   0  -2 -13  194.68   23.50
   0  -2 -13  166.98   21.90
   0   2  13  202.88   25.70
   0   2  13  144.09   17.30
   0   2  13  159.68   18.80
  -1  -2 -13   11.40   11.10
  -1  -2 -13   15.10   12.90
   1   2  13    8.30   10.20
   1   2  13    7.50   11.80
   1   2  13   -1.80   12.90
  -2  -2 -13    9.90   10.30
  -2  -2 -13   -9.00   11.20
   2   2  13   10.30   14.90
   2   2  13   -6.70   11.10
   2   2  13  -14.30    9.10
  -3  -2 -13    6.50   12.20
  -3  -2 -13  -18.40    9.30
   3   2  13   -3.80   13.60
   3   2  13   -0.90   10.90
   3   2  13   10.00   11.70
  -4  -2 -13   -3.00    9.60
  -4  -2 -13   -6.20   13.90
   4   2  13    2.00   13.70
   4   2  13    7.10   11.80
   4   2  13   -1.90   11.80
  -5  -2 -13  -19.90   13.60
   1  -3 -13   31.30   14.60
   1  -3 -13   39.30   15.00
  -1   3  13   19.80   14.20
  -1   3  13   40.90   16.60
   0  -3 -13   37.60   12.70
   0  -3 -13   61.59   14.60
   0   3  13   33.60   14.10
   0   3  13   30.70   11.70
   0   3  13   47.20   14.30
  -1  -3 -13   75.79   13.90
  -1  -3 -13   40.90   15.00
   1   3  13   74.79   13.70
   1   3  13   73.69   15.50
   1   3  13   98.09   14.00
  -2  -3 -13  -13.60    9.70
  -2  -3 -13   10.80   13.80
   2   3  13   14.90   11.10
   2   3  13    9.60   11.10
   2   3  13   16.50   14.50
  -3  -3 -13    8.20   10.40
  -3  -3 -13   34.50   15.40
   3   3  13   12.10   15.30
   3   3  13   11.00   11.50
   3   3  13   46.70   13.60
  -4  -3 -13   -6.80   14.80
  -4  -3 -13   32.40   10.60
   4   3  13   18.60   12.50
   4   3  13   11.50   13.90
   4   3  13    5.20   12.80
   1  -4 -13  -28.50   12.60
   1  -4 -13   28.90   16.80
   1  -4 -13   -1.30   15.30
  -1   4  13    1.10   15.80
   0  -4 -13   -2.60   12.50
   0  -4 -13   21.50   12.70
   0  -4 -13    9.20   15.90
   0   4  13   -2.70   13.40
   0   4  13   22.00   11.50
   0   4  13  -10.60   11.60
  -1  -4 -13  -14.70   12.90
  -1  -4 -13  -17.40   10.70
   1   4  13   -6.60    9.90
   1   4  13   -2.60   11.70
   1   4  13   -8.60   12.80
  -2  -4 -13    4.30   12.60
  -2  -4 -13  -14.90    9.60
   2   4  13  -10.20   10.60
   2   4  13  -17.80   10.80
   2   4  13   21.00   15.40
  -3  -4 -13    1.90    9.40
  -3  -4 -13   17.90   14.20
   3   4  13   -8.80   11.40
   3   4  13   23.30   15.70
   3   4  13    8.20   11.00
  -4  -4 -13   -1.30    8.90
  -4  -4 -13    2.00   13.80
   4   4  13   -4.10   14.30
   4   4  13    1.30   12.60
   4   4  13   14.30   12.40
   0  -5 -13   -2.80   12.50
   0  -5 -13   -4.90   14.20
   0  -5 -13    2.40   15.70
   0   5  13   -4.10   11.20
   0   5  13   33.70   14.00
   0   5  13   -9.00   14.90
  -1  -5 -13    9.00   12.00
  -1  -5 -13   -5.80   13.80
  -1  -5 -13   31.50   16.40
   1   5  13    7.80   15.10
   1   5  13   -2.10   11.30
   1   5  13    6.90   12.30
  -2  -5 -13   50.59   15.00
  -2  -5 -13   45.40   12.20
   2   5  13   38.90   14.50
   2   5  13   38.10   12.80
   2   5  13   67.09   17.80
  -3  -5 -13    0.10   14.20
  -3  -5 -13  -10.30    9.90
   3   5  13    3.20   11.90
   3   5  13   -0.20   12.40
   3   5  13   -5.20   15.50
  -1  -6 -13   -7.10   27.40
  -1  -6 -13   -5.70   12.40
   1   6  13   -4.80   11.20
   1   6  13   -3.20   17.20
  -2  -6 -13   -0.30   14.00
  -2  -6 -13   13.40   11.60
   2   6  13    7.10   12.90
   2   6  13    8.80   13.20
   2   6  13  -17.30   15.80
  -2  -1 -14   98.19   19.50
  -2  -1 -14   40.30   14.60
   2   1  14   96.39   20.10
   2   1  14   90.69   16.10
  -1  -2 -14   -1.70   13.70
   1   2  14   23.00   18.40
   1   2  14   -4.70   13.70
  -2  -2 -14   42.60   15.00
  -2  -2 -14   37.60   16.80
   2   2  14   35.80   17.70
   2   2  14   86.79   15.60
  -2  -3 -14  177.08   23.80
  -2  -3 -14  156.88   22.20
   2   3  14  142.99   17.40
   2   3  14  132.89   21.60
   0   0   0    0.00    0.00

_computing_structure_solution     'SHELXT 2014/5 (Sheldrick, 2014)'
;
_shelx_hkl_checksum              44262
loop_
_space_group_symop_operation_xyz
'x, y, z'
'-x, -y, -z'
loop_
_atom_site_label
_atom_site_type_symbol
_atom_site_fract_x
_atom_site_fract_y
_atom_site_fract_z
_atom_site_U_iso_or_equiv
_atom_site_adp_type
_atom_site_occupancy
_atom_site_site_symmetry_order
_atom_site_calc_flag
_atom_site_refinement_flags_posn
_atom_site_refinement_flags_adp
Cu01 Cu 0.82874(7) 0.98029(5) 0.13866(4) 0.03200(16) Uani 1 1 d . .
S002 S 0.81800(16) 0.93662(11) 0.35062(9) 0.0329(2) Uani 1 1 d . .
Cl03 Cl 0.83237(17) 1.22378(12) 0.15633(10) 0.0412(3) Uani 1 1 d . .
Cl04 Cl 0.79537(16) 1.03662(13) -0.06115(9) 0.0409(3) Uani 1 1 d . .
O2 O 0.7482(4) 0.7701(3) 0.1391(3) 0.0359(7) Uani 1 1 d . .
N006 N 0.6932(4) 0.7041(3) 0.5301(3) 0.0220(6) Uani 1 1 d . .
N007 N 0.8523(4) 0.6343(3) 0.3646(3) 0.0237(7) Uani 1 1 d . .
O1 O 0.7683(5) 0.7211(4) 0.7761(3) 0.0448(8) Uani 1 1 d . .
H3 H 0.8548 0.7435 0.8056 0.067 Uiso 1 1 calc R U
C009 C 0.6960(5) 0.5492(4) 0.5531(3) 0.0225(7) Uani 1 1 d . .
C00A C 0.7961(5) 0.5048(4) 0.4483(3) 0.0233(7) Uani 1 1 d . .
C00B C 0.6192(5) 0.4456(4) 0.6549(4) 0.0281(8) Uani 1 1 d . .
H00B H 0.5523 0.4746 0.7254 0.034 Uiso 1 1 calc R U
O3 O 0.5144(7) 0.6899(6) 1.0153(5) 0.0716(12) Uani 1 1 d D .
C00D C 0.7874(5) 0.7540(4) 0.4152(3) 0.0245(8) Uani 1 1 d . .
C00E C 0.5995(5) 0.7976(4) 0.6158(3) 0.0281(8) Uani 1 1 d . .
H00A H 0.4955 0.7422 0.6688 0.034 Uiso 1 1 calc R U
H00C H 0.5521 0.8850 0.5694 0.034 Uiso 1 1 calc R U
C00F C 0.9709(5) 0.6395(5) 0.2452(3) 0.0293(8) Uani 1 1 d . .
H00D H 1.0498 0.5530 0.2480 0.035 Uiso 1 1 calc R U
H00E H 1.0489 0.7277 0.2272 0.035 Uiso 1 1 calc R U
C00G C 0.8248(5) 0.3562(4) 0.4411(4) 0.0296(9) Uani 1 1 d . .
H00G H 0.8931 0.3267 0.3713 0.036 Uiso 1 1 calc R U
C00H C 0.6472(6) 0.2973(5) 0.6460(4) 0.0347(9) Uani 1 1 d . .
H00H H 0.5968 0.2245 0.7121 0.042 Uiso 1 1 calc R U
C00I C 0.7484(6) 0.2540(5) 0.5414(4) 0.0356(10) Uani 1 1 d . .
H00I H 0.7647 0.1530 0.5393 0.043 Uiso 1 1 calc R U
C00J C 0.8641(6) 0.6422(5) 0.1444(3) 0.0328(9) Uani 1 1 d . .
H00F H 0.9480 0.6460 0.0665 0.039 Uiso 1 1 calc R U
H00J H 0.7898 0.5521 0.1596 0.039 Uiso 1 1 calc R U
C00K C 0.7203(6) 0.8467(5) 0.6935(4) 0.0367(10) Uani 1 1 d . .
H00K H 0.8308 0.8938 0.6417 0.044 Uiso 1 1 calc R U
H00L H 0.6567 0.9192 0.7395 0.044 Uiso 1 1 calc R U
H7 H 0.524(8) 0.635(7) 0.963(6) 0.056(19) Uiso 1 1 d . .
H6 H 0.410(9) 0.718(18) 1.011(15) 0.28(9) Uiso 1 1 d D .
loop_
_atom_site_aniso_label
_atom_site_aniso_U_11
_atom_site_aniso_U_22
_atom_site_aniso_U_33
_atom_site_aniso_U_23
_atom_site_aniso_U_13
_atom_site_aniso_U_12
Cu01 0.0428(3) 0.0286(3) 0.0232(3) -0.00362(19) -0.0038(2) 0.0010(2)
S002 0.0502(6) 0.0248(5) 0.0233(5) -0.0043(4) -0.0054(4) -0.0008(4)
Cl03 0.0573(7) 0.0309(5) 0.0332(6) -0.0071(4) -0.0023(5) 0.0020(5)
Cl04 0.0531(7) 0.0423(6) 0.0271(5) -0.0021(4) -0.0105(5) 0.0001(5)
O2 0.0473(18) 0.0285(15) 0.0316(15) -0.0018(12) -0.0094(13) 0.0000(13)
N006 0.0247(16) 0.0240(16) 0.0172(15) -0.0035(12) -0.0039(12) 0.0015(12)
N007 0.0240(16) 0.0280(17) 0.0186(15) -0.0039(13) -0.0028(12) 0.0013(13)
O1 0.055(2) 0.049(2) 0.0360(18) -0.0091(15) -0.0217(15) 0.0037(16)
C009 0.0205(17) 0.0273(19) 0.0208(18) -0.0030(15) -0.0076(14) 0.0008(14)
C00A 0.0211(18) 0.0282(19) 0.0216(18) -0.0034(15) -0.0073(14) -0.0005(14)
C00B 0.026(2) 0.033(2) 0.0234(19) -0.0020(16) -0.0045(15) -0.0026(16)
O3 0.068(3) 0.084(3) 0.069(3) -0.005(3) -0.036(2) 0.003(2)
C00D 0.0249(19) 0.029(2) 0.0193(18) -0.0015(15) -0.0066(14) -0.0022(15)
C00E 0.030(2) 0.031(2) 0.0236(19) -0.0077(16) -0.0029(15) 0.0066(16)
C00F 0.025(2) 0.035(2) 0.025(2) -0.0056(16) 0.0012(15) 0.0007(16)
C00G 0.030(2) 0.031(2) 0.030(2) -0.0109(17) -0.0090(16) 0.0041(16)
C00H 0.036(2) 0.031(2) 0.036(2) 0.0044(18) -0.0096(18) -0.0084(17)
C00I 0.041(2) 0.025(2) 0.044(3) -0.0056(18) -0.016(2) -0.0010(17)
C00J 0.045(2) 0.034(2) 0.0186(19) -0.0058(16) -0.0013(17) 0.0018(18)
C00K 0.050(3) 0.034(2) 0.031(2) -0.0140(18) -0.0107(19) 0.0025(19)
loop_
_atom_type_symbol
_atom_type_description
_atom_type_scat_dispersion_real
_atom_type_scat_dispersion_imag
_atom_type_scat_source
C C 0.0033 0.0016 'International Tables Vol C Tables 4.2.6.8 and 6.1.1.4'
H H 0.0000 0.0000 'International Tables Vol C Tables 4.2.6.8 and 6.1.1.4'
Cl Cl 0.1484 0.1585 'International Tables Vol C Tables 4.2.6.8 and 6.1.1.4'
Cu Cu 0.3201 1.2651 'International Tables Vol C Tables 4.2.6.8 and 6.1.1.4'
N N 0.0061 0.0033 'International Tables Vol C Tables 4.2.6.8 and 6.1.1.4'
O O 0.0106 0.0060 'International Tables Vol C Tables 4.2.6.8 and 6.1.1.4'
S S 0.1246 0.1234 'International Tables Vol C Tables 4.2.6.8 and 6.1.1.4'
loop_
_geom_angle_atom_site_label_1
_geom_angle_atom_site_label_2
_geom_angle_atom_site_label_3
_geom_angle
O2 Cu01 Cl03 163.67(10)
O2 Cu01 Cl04 87.86(9)
Cl03 Cu01 Cl04 92.34(4)
O2 Cu01 S002 92.99(9)
Cl03 Cu01 S002 84.42(4)
Cl04 Cu01 S002 171.30(5)
C00D S002 Cu01 113.13(13)
C00J O2 Cu01 125.3(3)
C00D N006 C009 109.0(3)
C00D N006 C00E 125.8(3)
C009 N006 C00E 125.2(3)
C00D N007 C00A 109.1(3)
C00D N007 C00F 125.8(3)
C00A N007 C00F 125.1(3)
C00K O1 H3 109.5
C00B C009 N006 131.7(3)
C00B C009 C00A 121.3(4)
N006 C009 C00A 107.0(3)
C00G C00A C009 121.6(3)
C00G C00A N007 131.7(3)
C009 C00A N007 106.7(3)
C00H C00B C009 116.5(4)
C00H C00B H00B 121.7
C009 C00B H00B 121.7
H7 O3 H6 96(10)
N006 C00D N007 108.2(3)
N006 C00D S002 124.3(3)
N007 C00D S002 127.4(3)
N006 C00E C00K 113.5(3)
N006 C00E H00A 108.9
C00K C00E H00A 108.9
N006 C00E H00C 108.9
C00K C00E H00C 108.9
H00A C00E H00C 107.7
N007 C00F C00J 112.4(3)
N007 C00F H00D 109.1
C00J C00F H00D 109.1
N007 C00F H00E 109.1
C00J C00F H00E 109.1
H00D C00F H00E 107.9
C00I C00G C00A 117.1(4)
C00I C00G H00G 121.5
C00A C00G H00G 121.5
C00B C00H C00I 121.8(4)
C00B C00H H00H 119.1
C00I C00H H00H 119.1
C00G C00I C00H 121.7(4)
C00G C00I H00I 119.1
C00H C00I H00I 119.1
O2 C00J C00F 109.5(3)
O2 C00J H00F 109.8
C00F C00J H00F 109.8
O2 C00J H00J 109.8
C00F C00J H00J 109.8
H00F C00J H00J 108.2
O1 C00K C00E 109.7(3)
O1 C00K H00K 109.7
C00E C00K H00K 109.7
O1 C00K H00L 109.7
C00E C00K H00L 109.7
H00K C00K H00L 108.2
loop_
_geom_bond_atom_site_label_1
_geom_bond_atom_site_label_2
_geom_bond_distance
Cu01 O2 2.018(3)
Cu01 Cl03 2.2632(12)
Cu01 Cl04 2.2779(12)
Cu01 S002 2.3366(11)
S002 C00D 1.696(4)
O2 C00J 1.432(5)
N006 C00D 1.354(5)
N006 C009 1.389(5)
N006 C00E 1.466(5)
N007 C00D 1.355(5)
N007 C00A 1.391(5)
N007 C00F 1.455(5)
O1 C00K 1.427(5)
O1 H3 0.8200
C009 C00B 1.388(5)
C009 C00A 1.390(5)
C00A C00G 1.380(5)
C00B C00H 1.380(6)
C00B H00B 0.9300
O3 H7 0.83(6)
O3 H6 0.82(2)
C00E C00K 1.491(6)
C00E H00A 0.9700
C00E H00C 0.9700
C00F C00J 1.499(6)
C00F H00D 0.9700
C00F H00E 0.9700
C00G C00I 1.369(6)
C00G H00G 0.9300
C00H C00I 1.386(6)
C00H H00H 0.9300
C00I H00I 0.9300
C00J H00F 0.9700
C00J H00J 0.9700
C00K H00K 0.9700
C00K H00L 0.9700
