#------------------------------------------------------------------------------
#$Date: 2019-10-28 05:06:20 +0200 (Mon, 28 Oct 2019) $
#$Revision: 219655 $
#$URL: file:///home/coder/svn-repositories/cod/cif/4/51/44/4514466.cif $
#------------------------------------------------------------------------------
#
# This file is available in the Crystallography Open Database (COD),
# http://www.crystallography.net/
#
# All data on this site have been placed in the public domain by the
# contributors.
#
data_4514466
loop_
_publ_author_name
'Wang, Chun-Yun'
'Takeda, Takashi'
'Melvin Ten Kate, Otmar'
'Funahashi, Shiro'
'Xie, Rong-Jun'
'Takahashi, Kohsei'
'Hirosaki, Naoto'
_publ_section_title
;
 New Deep-Blue-Emitting Ce-Doped A<sub>4-<i>m</i></sub>B<sub> <i>n</i>
 </sub>C<sub>19+2<i>m</i></sub>X<sub>29+<i>m</i></sub> (A = Sr, La; B =
 Li; C = Si, Al; X = O, N; 0 &#x2264; <i>m</i> &#x2264; 1; 0 &#x2264;
 <i>n</i> &#x2264; 1) Phosphors for High-Color-Rendering Warm White
 Light-Emitting Diodes.
;
_journal_issue                   32
_journal_name_full               'ACS applied materials &amp; interfaces'
_journal_page_first              29047
_journal_page_last               29055
_journal_paper_doi               10.1021/acsami.9b09982
_journal_volume                  11
_journal_year                    2019
_chemical_absolute_configuration unk
_chemical_formula_sum            'Al5.56 Eu0.15 Li N23.1 O6.32 Si14.27 Sr3.43'
_chemical_formula_weight         1306.44
_space_group_IT_number           156
_space_group_name_Hall           'P 3 -2"'
_space_group_name_H-M_alt        'P 3 m 1'
_symmetry_cell_setting           trigonal
_symmetry_space_group_name_Hall  'P 3 -2"'
_symmetry_space_group_name_H-M   'P 3 m 1'
_audit_creation_date             2019-03-29T14:51:02-00:00
_audit_creation_method           'WinGX routine CIF_UPDATE'
_cell_angle_alpha                90
_cell_angle_beta                 90
_cell_angle_gamma                120
_cell_formula_units_Z            1
_cell_length_a                   12.1029(2)
_cell_length_b                   12.1029(2)
_cell_length_c                   4.88250(10)
_cell_measurement_reflns_used    4534
_cell_measurement_temperature    293(2)
_cell_measurement_theta_max      45.261
_cell_measurement_theta_min      3.366
_cell_volume                     619.372(19)
_computing_cell_refinement       'APEX2 (Bruker AXS, 2009)'
_computing_data_collection       'APEX2 (Bruker AXS, 2009)'
_computing_data_reduction        'SAINT (Bruker AXS, 2009)'
_computing_molecular_graphics    'VESTA (Momma and Izumi, 2011)'
_computing_structure_refinement  'SHELXL-2013 (Sheldrick, 2013)'
_computing_structure_solution    'SHELXS-97 (Sheldrick, 2008)'
_diffrn_ambient_temperature      293(2)
_diffrn_detector_area_resol_mean 8.333
_diffrn_measured_fraction_theta_full 0.995
_diffrn_measured_fraction_theta_max 0.997
_diffrn_measurement_device_type  'Bruker APEXII CCD area detector'
_diffrn_measurement_method       'omega scans'
_diffrn_radiation_monochromator  'Bruker Helios multilayer confocal mirror'
_diffrn_radiation_source         'Bruker TXS fine-focus rotating anode'
_diffrn_radiation_type           MoK\a
_diffrn_radiation_wavelength     0.71073
_diffrn_reflns_av_R_equivalents  0.0327
_diffrn_reflns_Laue_measured_fraction_full 0.995
_diffrn_reflns_Laue_measured_fraction_max 0.997
_diffrn_reflns_limit_h_max       24
_diffrn_reflns_limit_h_min       -24
_diffrn_reflns_limit_k_max       23
_diffrn_reflns_limit_k_min       -22
_diffrn_reflns_limit_l_max       9
_diffrn_reflns_limit_l_min       -9
_diffrn_reflns_number            12211
_diffrn_reflns_point_group_measured_fraction_full 0.978
_diffrn_reflns_point_group_measured_fraction_max 0.963
_diffrn_reflns_theta_full        25.242
_diffrn_reflns_theta_max         45.294
_diffrn_reflns_theta_min         1.943
_exptl_absorpt_coefficient_mu    8.723
_exptl_absorpt_correction_T_max  0.901
_exptl_absorpt_correction_T_min  0.882
_exptl_absorpt_correction_type   multi-scan
_exptl_absorpt_process_details
;
SADABS Sheldrick 2001
;
_exptl_crystal_colour            clear
_exptl_crystal_density_diffrn    3.503
_exptl_crystal_description       columnar
_exptl_crystal_F_000             627.3
_exptl_crystal_size_max          0.084
_exptl_crystal_size_mid          0.020
_exptl_crystal_size_min          0.016
_refine_diff_density_max         2.266
_refine_diff_density_min         -0.836
_refine_diff_density_rms         0.158
_refine_ls_abs_structure_details
;
 Flack x determined using 1099 quotients [(I+)-(I-)]/[(I+)+(I-)]
 (Parsons and Flack (2004), Acta Cryst. A60, s61).
;
_refine_ls_abs_structure_Flack   0.018(4)
_refine_ls_extinction_method     none
_refine_ls_goodness_of_fit_ref   0.983
_refine_ls_hydrogen_treatment    undef
_refine_ls_matrix_type           full
_refine_ls_number_parameters     112
_refine_ls_number_reflns         3414
_refine_ls_number_restraints     2
_refine_ls_restrained_S_all      0.983
_refine_ls_R_factor_all          0.0388
_refine_ls_R_factor_gt           0.0301
_refine_ls_shift/su_max          0.001
_refine_ls_shift/su_mean         0
_refine_ls_structure_factor_coef Fsqd
_refine_ls_weighting_details
;
 w=1/[\s^2^(Fo^2^)+(0.0155P)^2^]
 where P=(Fo^2^+2Fc^2^)/3
;
_refine_ls_weighting_scheme      calc
_refine_ls_wR_factor_ref         0.0656
_reflns_number_gt                2913
_reflns_number_total             3414
_reflns_threshold_expression     'I > 2\s(I)'
_iucr_refine_instructions_details
;
TITL 7278020301_p3m1 in P 3 m 1
CELL  0.71073  12.1029  12.1029   4.8825   90.000   90.000  120.000
ZERR     1.00   0.0002   0.0002   0.0001    0.000    0.000    0.000
LATT  -1
SYMM  - Y,   X - Y,   Z
SYMM  - X + Y, - X,   Z
SYMM  - X + Y,   Y,   Z
SYMM    X,   X - Y,   Z
SYMM  - Y, - X,   Z
SFAC  N    SI   Sr   LI   O    AL   Eu
UNIT  24   15    3    0    0    0    0
MERG   2
TWIN   -1.00 0.00 0.00 0.00 -1.00 0.00 0.00 0.00 1.00
EXYZ Si6 al6
EXYZ Si7 Al7
EADP Si6 Si7 Al6 Al7
EXYZ Sr1 Eu1
EADP Sr1 Eu1
EXYZ Sr2 Eu2
EADP Sr2 Eu2
EXYZ Sr3 Eu3 O10 N10
EADP Sr3 Eu3 O10 N10
EXYZ si1 al1
EADP si1 al1
EXYZ si2 al2
EADP si2 al2
EXYZ si3 al3
EADP si3 al3
EXYZ si4 al4
EADP si4 al4
EXYZ si5 al5
EADP si5 al5
EXYZ N1 O1
EADP N1 O1
EXYZ N2 O2
EADP N2 O2
EXYZ N3 O3
EADP N3 O3
EXYZ N4 O4
EADP N4 O4
EXYZ N5 O5
EADP N5 O5
EXYZ N6 O6
EADP N6 O6
EXYZ N7 O7
EADP N7 O7
EXYZ N8 O8
EADP N8 O8
EXYZ N9 O9
EADP N9 O9
SUMP 1.0 0.00001 1.0 2 1.0 3 1.0 4
FMAP   2
PLAN   25
ACTA
BOND
L.S.  50
WGHT    0.015500
BASF   0.02712
FVAR       0.11612   0.49055   0.41387   0.09558   0.97458
SR1   3    0.445641    0.891282    0.675940    10.47870    0.01105    0.01111 =
         0.02516   -0.00030   -0.00015    0.00555
EU1   7    0.445641    0.891282    0.675940    10.02130    0.01105    0.01111 =
         0.02516   -0.00030   -0.00015    0.00555
SR2   3    0.000000    1.000000    0.333851    10.01525    0.02190    0.02190 =
         0.02393    0.00000    0.00000    0.01095
EU2   7    0.000000    1.000000    0.333851    10.00068    0.02190    0.02190 =
         0.02393    0.00000    0.00000    0.01095
SR3   3    0.000000    1.000000    0.200881    10.07828    0.10119    0.10119 =
         0.02857    0.00000    0.00000    0.05059
EU3   7    0.000000    1.000000    0.200881    10.00348    0.10119    0.10119 =
         0.02857    0.00000    0.00000    0.05059
LI1   4    0.666667    0.333333    0.161898    10.16667    0.01452    0.01452 =
         0.02204    0.00000    0.00000    0.00726
SI1   2    0.410406    0.079927    0.191918    10.71958    0.00458    0.00450 =
         0.00381   -0.00008   -0.00022    0.00184
AL1   6    0.410406    0.079927    0.191918    10.28042    0.00458    0.00450 =
         0.00381   -0.00008   -0.00022    0.00184
SI2   2    0.492619    0.246309    0.680748    10.35979    0.00714    0.00805 =
         0.00754   -0.00003   -0.00006    0.00357
AL2   6    0.492619    0.246309    0.680748    10.14021    0.00714    0.00805 =
         0.00754   -0.00003   -0.00006    0.00357
SI3   2    0.243640    0.997902    0.702545    10.71958    0.00415    0.00416 =
         0.00429    0.00019    0.00013    0.00165
AL3   6    0.243640    0.997902    0.702545    10.28042    0.00415    0.00416 =
         0.00429    0.00019    0.00013    0.00165
SI4   2    0.180133    0.819867    0.212268    10.35979    0.00498    0.00498 =
         0.00596   -0.00004    0.00004    0.00176
AL4   6    0.180133    0.819867    0.212268    10.14021    0.00498    0.00498 =
         0.00596   -0.00004    0.00004    0.00176
SI5   2    0.333333    0.666667    0.172206    10.11993    0.00725    0.00725 =
         0.01435    0.00000    0.00000    0.00363
AL5   6    0.333333    0.666667    0.172206    10.04674    0.00725    0.00725 =
         0.01435    0.00000    0.00000    0.00363
SI6   2    0.000000    1.000000    0.856723    10.04964    0.00608    0.00608 =
         0.00833    0.00000    0.00000    0.00304
AL6   6    0.000000    1.000000    0.856723    10.01934    0.00608    0.00608 =
         0.00833    0.00000    0.00000    0.00304
SI7   2    0.000000    1.000000    0.543585    10.04964    0.00608    0.00608 =
         0.00833    0.00000    0.00000    0.00304
AL7   6    0.000000    1.000000    0.543585    10.01934    0.00608    0.00608 =
         0.00833    0.00000    0.00000    0.00304
N1    1    0.146039    0.853961    0.542670    10.39259    0.01039    0.01039 =
         0.01144   -0.00274    0.00274   -0.00024
O1    5    0.146039    0.853961    0.542670    10.10741    0.01039    0.01039 =
         0.01144   -0.00274    0.00274   -0.00024
N2    1    0.393065    0.078166    0.544044    10.78519    0.00918    0.00816 =
         0.00712    0.00095    0.00120    0.00370
O2    5    0.393065    0.078166    0.544044    10.21481    0.00918    0.00816 =
         0.00712    0.00095    0.00120    0.00370
N3    1    0.161918    0.080959    0.703061    10.39259    0.01106    0.00846 =
         0.01570    0.00065    0.00130    0.00553
O3    5    0.161918    0.080959    0.703061    10.10741    0.01106    0.00846 =
         0.01570    0.00065    0.00130    0.00553
N4    1    0.666667    0.333333    0.605491    10.13086    0.01114    0.01114 =
         0.00879    0.00000    0.00000    0.00557
O4    5    0.666667    0.333333    0.605491    10.03580    0.01114    0.01114 =
         0.00879    0.00000    0.00000    0.00557
N5    1    0.462590    0.231295    0.057104    10.39259    0.01159    0.00888 =
         0.00801    0.00106    0.00213    0.00580
O5    5    0.462590    0.231295    0.057104    10.10741    0.01159    0.00888 =
         0.00801    0.00106    0.00213    0.00580
N6    1    0.519210    0.038421    0.120731    10.39259    0.00694    0.01232 =
         0.00799   -0.00185   -0.00093    0.00616
O6    5    0.519210    0.038421    0.120731    10.10741    0.00694    0.01232 =
         0.00799   -0.00185   -0.00093    0.00616
N7    1    0.272727    0.963571    0.034604    10.78519    0.01105    0.01140 =
         0.00864    0.00181   -0.00264    0.00007
O7    5    0.272727    0.963571    0.034604    10.21481    0.01105    0.01140 =
         0.00864    0.00181   -0.00264    0.00007
N8    1    0.333333    0.666667    0.840489    10.13086    0.01910    0.01910 =
         0.00825    0.00000    0.00000    0.00955
O8    5    0.333333    0.666667    0.840489    10.03580    0.01910    0.01910 =
         0.00825    0.00000    0.00000    0.00955
N9    1    0.259455    0.740545    0.292329    10.39259    0.01434    0.01434 =
         0.02101   -0.00012    0.00012    0.00929
O9    5    0.259455    0.740545    0.292329    10.10741    0.01434    0.01434 =
         0.02101   -0.00012    0.00012    0.00929
N10   1    0.000000    1.000000    0.200881    10.05416    0.10119    0.10119 =
         0.02857    0.00000    0.00000    0.05059
O10   5    0.000000    1.000000    0.200881    10.01482    0.10119    0.10119 =
         0.02857    0.00000    0.00000    0.05059
HKLF    4
 
REM  7278020301_p3m1 in P 3 m 1
REM R1 =  0.0301 for    2913 Fo > 4sig(Fo)  and  0.0388 for all    3414 data
REM    112 parameters refined using      2 restraints
 
END
 
WGHT      0.0155      0.0000
 
REM Highest difference peak  2.266,  deepest hole -0.836,  1-sigma level  0.158
Q1    1   0.4402  0.8805  0.8028  10.50000  0.05    2.27
Q2    1   0.4485  0.8969  0.5219  10.50000  0.05    1.36
Q3    1  -0.0531  0.9735  0.1982  10.50000  0.05    1.14
Q4    1   0.3333  0.6667  0.3061  10.16667  0.05    1.03
Q5    1   0.4176  0.8353  0.7311  10.50000  0.05    0.81
Q6    1   0.6667  0.3333 -0.0020  10.16667  0.05    0.74
Q7    1   0.3333  0.6667  0.0163  10.16667  0.05    0.71
Q8    1   0.2768  0.7232  0.1851  10.50000  0.05    0.71
Q9    1   0.4831  0.2415  0.5483  10.50000  0.05    0.70
Q10   1   0.4180  0.0832  0.0640  11.00000  0.05    0.68
Q11   1   0.3333  0.6667  0.5972  10.16667  0.05    0.67
Q12   1   0.4959  0.2480  0.8201  10.50000  0.05    0.66
Q13   1   0.1601  0.8399  0.4266  10.50000  0.05    0.66
Q14   1   0.2399  0.9870  0.8562  11.00000  0.05    0.65
Q15   1   0.1804  0.8196  0.5373  10.50000  0.05    0.65
Q16   1   0.1836  0.8164  0.0789  10.50000  0.05    0.65
Q17   1   0.0286  1.0571  0.3148  10.50000  0.05    0.64
Q18   1  -0.0890  0.8220  0.1669  10.50000  0.05    0.64
Q19   1   0.6992  0.3984  0.6521  10.50000  0.05    0.62
Q20   1   0.2558  1.0097 -0.0036  11.00000  0.05    0.62
Q21   1   0.2467  0.9982  0.5687  11.00000  0.05    0.59
Q22   1   0.2920  0.7080  0.3083  10.50000  0.05    0.58
Q23   1   0.2429  0.9044  0.0673  11.00000  0.05    0.58
Q24   1   0.5012  0.8910  0.6724  11.00000  0.05    0.57
Q25   1   0.4761  0.9522  0.5994  10.50000  0.05    0.56
;
_cod_data_source_file            am9b09982_si_002.cif
_cod_data_source_block           7278020301_p3m1
_cod_original_cell_volume        619.37(2)
_cod_original_formula_sum
'Al5.56 Eu0.15 Li N23.10 O6.32 Si14.27 Sr3.43'
_cod_database_code               4514466
_iucr_refine_reflections_details
;
  -1   1   0    8.30    0.67
   0   1   0    8.32    0.67
   1  -1   0    8.42    0.67
   0   1   0    8.49    0.59
   1   1   0    4.26    0.37
   2  -1   0    4.72    0.38
  -1   2   0    4.13    0.35
   0  -2   0   12.40    0.97
   0  -2   0   11.45    1.10
  -2   2   0   11.65    1.10
   2   0   0   11.99    1.11
   0   2   0   15.59    1.10
   2  -2   0   15.60    1.11
  -3   3   0  125.60   11.11
   0  -3   0  123.97   11.10
   3   0   0  129.13   11.10
   0  -3   0  133.82    9.77
   0   3   0  161.69    9.78
   0   3   0  150.39   11.12
   3  -3   0  153.41   11.12
  -4   1   0   53.73    4.36
   3  -4   0   54.41    4.34
   1   3   0   53.51    4.35
   1   3   0   56.52    3.83
  -4   2   0    8.46    0.76
   2  -4   0    7.98    0.74
   2   2   0    8.66    0.75
   4  -2   0    8.49    0.76
  -2  -2   0    8.25    0.76
   1  -4   0   46.19    3.42
   3   1   0   46.72    3.89
  -4   3   0   46.27    3.89
   1  -4   0   44.70    3.88
   4  -3   0   53.70    3.89
  -1   4   0   54.95    3.88
   0  -4   0  419.60   27.85
   4   0   0  411.57   31.70
  -4   4   0  412.79   31.64
   0  -4   0  389.44   31.62
  -4   0   0  377.09   31.66
   0   4   0  393.70   27.82
   0   4   0  392.78   31.63
   4  -4   0  385.95   31.63
  -5   1   0   26.66    2.19
   1   4   0   27.09    2.17
   4  -5   0   27.06    2.17
  -1  -4   0   26.65    2.17
   5  -1   0   27.90    2.19
   3  -5   0   56.78    4.44
  -5   2   0   54.35    4.46
   2   3   0   55.09    4.45
   3  -5   0   53.61    4.44
  -2  -3   0   55.18    4.45
   5  -2   0   59.68    4.46
   2  -5   0   57.21    3.96
   3   2   0   57.62    4.50
   2  -5   0   57.78    4.49
  -5   3   0   56.97    4.51
  -3  -2   0   53.97    4.50
  -2   5   0   54.20    4.49
   5  -3   0   57.08    4.51
   1  -5   0   27.47    2.21
   1  -5   0   28.96    1.96
   4   1   0   28.37    2.23
  -5   4   0   28.36    2.23
  -1   5   0   26.94    2.21
  -4  -1   0   26.53    2.23
   5  -4   0   26.85    2.22
   0  -5   0   13.35    0.95
  -5   0   0   10.85    0.97
   0   5   0   11.34    0.95
   5  -5   0   10.61    0.95
  -6   1   0   76.90    6.58
   5  -6   0   75.47    6.56
   1   5   0   79.40    6.56
   6  -1   0   93.20    6.58
  -1  -5   0   87.53    6.57
   4  -6   0   32.75    2.57
   4  -6   0   32.91    2.58
  -6   2   0   32.98    2.60
   2   4   0   33.15    2.59
   6  -2   0   31.20    2.60
  -2  -4   0   29.74    2.59
   3   3   0  155.16   12.48
   3  -6   0  157.82   12.50
   3  -6   0  156.88   10.99
  -6   3   0  153.67   12.49
  -3  -3   0  154.17   12.49
   6  -3   0  164.90   12.49
   2  -6   0   29.82    2.51
   2  -6   0   31.36    2.23
   4   2   0   31.03    2.54
  -6   4   0   29.01    2.54
  -2   6   0   32.98    2.52
  -4  -2   0   32.41    2.54
   6  -4   0   33.33    2.54
   1  -6   0   92.66    7.01
   1  -6   0   98.80    6.18
   5   1   0   93.36    7.03
  -6   5   0   88.83    7.02
   6  -5   0   81.16    7.02
  -1   6   0   83.74    7.00
  -5  -1   0   78.12    7.02
   0  -6   0   61.15    4.16
  -6   6   0   57.11    4.72
   6   0   0   58.45    4.73
   0  -6   0   57.64    4.71
   0   6   0   58.30    4.71
   6  -6   0   59.07    4.72
  -6   0   0   61.16    4.74
  -7   1   0    3.47    0.38
   1   6   0    3.81    0.35
   6  -7   0    3.90    0.36
   7  -1   0    3.78    0.38
  -1  -6   0    3.33    0.35
  -7   2   0   11.76    1.00
   5  -7   0   12.32    0.97
   5  -7   0   11.87    0.96
   2   5   0   11.91    0.97
   7  -2   0   11.05    0.99
  -2  -5   0   11.19    0.98
   4  -7   0    2.66    0.27
  -7   3   0    2.52    0.32
   4  -7   0    2.51    0.25
   3   4   0    2.91    0.29
   3  -7   0    5.62    0.49
  -7   4   0    5.51    0.53
   3  -7   0    5.66    0.46
   4   3   0    6.00    0.51
   5   2   0   10.91    0.99
   2  -7   0   11.50    0.97
   2  -7   0   11.99    0.87
  -7   5   0   11.49    0.99
  -2   7   0   11.91    0.96
   7  -5   0   12.63    0.99
  -5  -2   0   12.41    1.00
  -7   6   0    3.25    0.38
   6   1   0    3.56    0.39
   1  -7   0    3.72    0.36
   1  -7   0    3.61    0.35
  -1   7   0    4.17    0.34
   7  -6   0    3.80    0.38
  -6  -1   0    3.50    0.38
  -7   7   0   12.95    0.96
   7   0   0   13.37    0.98
   0  -7   0   12.90    0.95
   7  -7   0   10.33    0.95
   0   7   0    9.99    0.93
  -7   0   0    9.22    0.96
   1   7   0   37.55    2.94
   7  -8   0   36.50    2.94
  -8   1   0   35.75    2.76
  -8   1   0   36.92    2.97
  -1  -7   0   35.92    2.94
   8  -1   0   36.66    2.97
   6  -8   0   21.43    1.73
   2   6   0   22.62    1.75
  -8   2   0   22.45    1.77
   6  -8   0   22.64    1.74
   8  -2   0   18.03    1.76
   3   5   0   28.04    2.27
   5  -8   0   28.37    2.25
   5  -8   0   28.25    2.26
  -8   3   0   27.68    2.29
   4  -8   0  483.13   38.89
   4  -8   0  500.55   38.90
  -8   4   0  488.34   38.91
   4  -8   0  483.40   34.25
   4   4   0  471.46   38.95
  -4  -4   0  482.57   38.93
   8  -4   0  515.57   38.91
   3  -8   0   38.33    2.94
   3  -8   0   39.38    2.61
  -8   5   0   37.90    3.50
  -8   5   0   36.60    2.97
   5   3   0   37.75    2.96
   8  -5   0   30.26    2.95
  -8   6   0   17.12    1.45
   2  -8   0   17.47    1.27
   6   2   0   17.18    1.45
   2  -8   0   17.76    1.43
  -8   6   0   18.19    1.74
   7   1   0   35.44    2.97
   1  -8   0   36.94    2.95
  -8   7   0   34.29    2.96
  -8   7   0   36.94    3.50
  -8   7   0   38.33    3.35
   1  -8   0   38.67    2.61
   8  -7   0   36.66    2.96
  -1   8   0   36.80    2.94
  -7  -1   0   36.45    2.98
  -8   8   0   19.51    1.96
   8   0   0   20.40    1.73
  -8   8   0   19.85    1.72
   0  -8   0   20.30    1.71
  -8   8   0   19.98    2.05
  -8   0   0   20.83    1.74
  -8   0   0   23.58    1.63
   0   8   0   22.45    1.70
   8  -8   0   21.76    1.72
   8  -9   0   20.72    1.63
  -9   1   0   21.15    1.55
  -9   1   0   21.28    1.67
   1   8   0   21.16    1.63
  -8   9   0   18.00    1.87
  -1  -8   0   19.79    1.64
   9  -1   0   18.89    1.36
   9  -1   0   19.67    1.66
  -8   9   0   18.28    1.95
   2   7   0   72.29    5.56
   7  -9   0   75.91    5.56
  -9   2   0   72.12    5.59
   7  -9   0   71.13    5.55
  -9   2   0   76.92    5.21
  -7   9   0   64.79    6.54
  -7   9   0   64.85    6.28
   9  -2   0   65.44    5.58
   9  -2   0   67.44    4.58
  -2  -7   0   65.05    5.57
   6  -9   0  114.63    9.36
   3   6   0  120.23    9.38
   6  -9   0  116.55    9.37
  -9   3   0  115.84    9.40
  -6   9   0  120.83   10.57
   9  -3   0  119.54    9.40
   9  -3   0  121.08    7.71
  -3  -6   0  113.77    9.39
  -9   4   0    8.71    0.78
   5  -9   0    8.66    0.74
   5  -9   0    8.55    0.72
   4   5   0    8.65    0.76
   5  -9   0    8.78    0.68
   4  -9   0   12.87    0.95
   4  -9   0   12.42    0.97
   4  -9   0   12.18    0.87
   5   4   0   12.65    0.99
  -9   5   0   11.81    1.00
   9  -5   0    9.02    0.98
   9  -5   0    8.75    0.83
   6   3   0  117.77    9.51
   3  -9   0  119.12    8.37
  -9   6   0  119.67    9.52
  -9   6   0  122.15   11.17
   3  -9   0  121.05    9.49
   9  -6   0  119.00    9.51
  -6  -3   0  116.28    9.52
   2  -9   0   67.61    4.90
  -9   7   0   65.15    6.55
   7   2   0   63.92    5.57
   2  -9   0   66.81    5.55
  -9   7   0   64.92    5.57
  -2   9   0   73.45    5.55
  -7  -2   0   72.87    5.20
  -7  -2   0   74.67    5.59
   9  -7   0   76.67    5.57
   1  -9   0   19.68    1.64
   8   1   0   20.16    1.67
  -9   8   0   18.60    1.97
  -9   8   0   18.69    1.65
  -9   8   0   19.76    1.89
   1  -9   0   19.74    1.46
  -1   9   0   20.51    1.63
  -8  -1   0   20.79    1.68
   9  -8   0   21.82    1.66
  -8  -1   0   21.00    1.56
   9   0   0   74.74    4.90
   0  -9   0   76.75    5.97
  -9   9   0   75.65    6.74
   9   0   0   74.80    6.00
  -9   9   0   76.57    7.04
  -9   0   0   72.15    6.00
   9  -9   0   72.49    5.97
  -9   0   0   75.49    5.59
   0   9   0   73.69    5.96
   9 -10   0   18.79    1.61
   1   9   0   19.30    1.61
 -10   1   0   18.56    1.54
  -1  -9   0   21.29    1.62
  -9  10   0   19.54    1.86
  -9  10   0   19.44    1.94
  10  -1   0   20.19    1.35
   8 -10   0    0.54    0.16
   8 -10   0    0.25    0.12
 -10   2   0    0.47    0.21
   2   8   0    0.60    0.16
  -8  10   0    0.14    0.30
  -8  10   0    0.43    0.26
  10  -2   0    0.48    0.20
  10  -2   0    0.22    0.21
  -2  -8   0    0.31    0.18
 -10   3   0    5.92    0.62
   3   7   0    6.24    0.60
   7 -10   0    6.17    0.58
   7 -10   0    5.94    0.56
  10  -3   0    6.64    0.56
  10  -3   0    7.10    0.64
  -7  10   0    7.47    0.74
  -7  10   0    6.55    0.77
  -3  -7   0    8.31    0.62
   6 -10   0   16.00    1.31
   6 -10   0   15.82    1.32
   4   6   0   16.23    1.34
 -10   4   0   16.52    1.36
   6 -10   0   15.60    1.18
   5 -10   0    3.77    0.40
   5 -10   0    4.81    0.40
 -10   5   0    4.25    0.46
   5 -10   0    3.81    0.40
   5   5   0    4.31    0.44
  10  -5   0    4.41    0.40
  -5  10   0    4.21    0.52
  -5  -5   0    3.80    0.42
  -5  -5   0    4.57    0.46
  10  -5   0    4.22    0.45
  -6  -4   0   16.49    1.37
  10  -6   0   16.45    1.15
  -4  10   0   15.94    1.54
  -6  -4   0   15.63    1.26
  10  -6   0   16.47    1.36
   7   3   0    6.79    0.65
   3 -10   0    8.22    0.59
 -10   7   0    7.14    0.65
   3 -10   0    7.94    0.61
 -10   7   0    7.81    0.86
  10  -7   0    5.99    0.64
  -7  -3   0    6.21    0.62
  -7  -3   0    5.77    0.66
 -10   8   0    0.11    0.32
 -10   8   0    0.25    0.20
   8   2   0    0.21    0.20
   2 -10   0    0.48    0.18
   2 -10   0    0.41    0.15
  -2  10   0    0.47    0.12
  10  -8   0    0.61    0.19
  -8  -2   0    0.62    0.21
 -10   9   0   19.05    1.60
 -10   9   0   20.61    1.93
   9   1   0   20.41    1.32
   1 -10   0   20.68    1.58
  10  -9   0   19.02    1.59
  -1  10   0   17.28    1.56
  -9  -1   0   18.11    1.51
   0 -10   0   13.03    0.99
  10   0   0   11.71    0.84
 -10  10   0   12.15    1.18
 -10  10   0   12.78    1.26
   0  10   0   10.86    0.97
 -10   0   0   10.40    0.96
  10 -10   0   10.50    0.99
   1  10   0    1.97    0.25
 -11   1   0    2.26    0.32
  -1 -10   0    1.66    0.23
  11  -1   0    1.73    0.27
 -10  11   0    1.67    0.43
  -1 -10   0    1.54    0.27
 -10  11   0    1.59    0.36
   9 -11   0   10.96    1.04
   9 -11   0   10.83    1.02
 -11   2   0   11.42    1.03
   2   9   0   10.11    1.03
  -9  11   0   15.15    1.32
  11  -2   0   15.40    0.93
  -2  -9   0   14.45    0.98
  -9  11   0   13.87    1.25
   3   8   0   17.52    1.56
 -11   3   0   16.45    1.49
   8 -11   0   16.83    1.54
   8 -11   0   16.50    1.55
  -3  -8   0   21.26    1.59
  11  -3   0   21.06    1.33
  -8  11   0   20.97    1.82
  -3  -8   0   20.59    1.46
  -8  11   0   21.70    1.90
   7 -11   0   10.27    0.87
   4   7   0   10.06    0.90
   7 -11   0    9.87    0.82
   7 -11   0   10.43    0.88
  -4  -7   0   10.64    0.92
  11  -4   0   10.79    0.80
  -4  -7   0   10.02    0.83
  -7  11   0   10.79    1.07
  -7  11   0   10.95    1.12
   5   6   0   26.94    2.07
   6 -11   0   27.16    2.03
   6 -11   0   28.09    2.05
 -11   5   0   27.08    2.09
   6 -11   0   26.44    1.82
  -6  11   0   23.67    2.34
  -5  -6   0   23.62    2.07
  -5  -6   0   23.54    1.92
  11  -5   0   22.88    1.72
  11  -5   0   24.11    2.08
  -6  11   0   22.24    2.43
 -11   6   0   21.69    2.06
   5 -11   0   23.13    2.01
   5 -11   0   23.69    1.81
   6   5   0   23.01    2.05
   5 -11   0   23.93    2.02
  -5  11   0   26.66    2.33
  -5  11   0   25.97    2.42
  11  -6   0   28.27    2.07
  -6  -5   0   26.79    2.07
  11  -6   0   27.37    1.72
  -6  -5   0   25.42    1.91
   4 -11   0   11.36    0.90
   4 -11   0   11.56    0.84
 -11   7   0   11.28    0.96
  11  -7   0   11.08    0.95
  -7  -4   0    9.45    0.87
  -4  11   0   10.61    1.09
  11  -7   0    9.28    0.82
 -11   8   0   20.28    1.62
   3 -11   0   20.45    1.58
 -11   8   0   21.26    1.98
   3 -11   0   22.37    1.43
  -3  11   0   16.83    1.82
  11  -8   0   17.67    1.61
  -8  -3   0   17.03    1.51
 -11   9   0   15.63    1.53
   2 -11   0   16.19    1.20
   2 -11   0   16.10    1.09
 -11   9   0   15.42    1.23
   9   2   0   15.22    1.00
  11  -9   0   11.32    1.21
  -9  -2   0   11.31    1.15
 -11  10   0    1.90    0.30
 -11  10   0    1.86    0.43
  10   1   0    1.71    0.24
  -1  11   0    1.78    0.35
  11 -10   0    1.81    0.28
 -10  -1   0    1.90    0.29
 -11  11   0   20.09    1.82
  11   0   0   18.86    1.24
 -11   0   0   14.40    1.40
 -12   1   0   27.97    2.22
  12  -1   0   29.47    1.95
 -11  12   0   29.22    2.70
 -11  12   0   27.94    2.81
   2  10   0    4.58    0.53
 -12   2   0    5.14    0.59
  -2 -10   0    6.54    0.58
 -10  12   0    6.19    0.77
  12  -2   0    5.82    0.55
  -2 -10   0    6.77    0.54
 -10  12   0    5.26    0.71
  -3  -9   0   17.65    1.37
  -9  12   0   16.62    1.78
  -3  -9   0   18.67    1.49
  -9  12   0   17.67    1.72
  12  -3   0   17.64    1.27
   8 -12   0   54.72    3.43
 -12   4   0   52.66    3.64
   4   8   0   51.43    3.87
  12  -4   0   48.40    3.21
  -4  -8   0   41.95    3.60
  -8  12   0   44.08    4.38
  -8  12   0   43.72    4.56
   7 -12   0   11.50    0.82
  -7  12   0   10.23    1.13
  -5  -7   0    9.91    0.83
  12  -5   0    9.92    0.80
  -7  12   0    9.51    1.06
   6 -12   0   20.87    1.57
  -6  -6   0   21.16    1.66
  -6  12   0   21.45    2.11
  -6  12   0   21.98    2.03
  12  -6   0   21.42    1.50
   5 -12   0   10.19    0.85
  12  -7   0   11.11    0.86
  -5  12   0   11.50    1.11
  -7  -5   0   10.81    0.91
   4 -12   0   46.70    3.64
  12  -8   0   50.01    3.42
  12  -8   0   53.81    4.16
  -8  -4   0   53.25    3.87
  -4  12   0   53.07    4.67
  -9  -3   0    8.34    0.78
  12  -9   0    8.75    0.74
  12  -9   0    9.55    0.81
  -3  12   0    8.92    0.95
 -12  10   0    6.40    0.79
 -12  10   0    5.60    0.55
  10   2   0    5.54    0.47
  12 -10   0    5.03    0.55
  -2  12   0    4.65    0.66
 -10  -2   0    4.71    0.56
 -12  11   0   30.30    2.87
  11   1   0   28.70    1.96
 -11  -1   0   28.35    2.25
  12   0   0   81.80    5.38
 -12  12   0   81.56    7.73
 -13   1   0    8.05    0.86
 -12  13   0   10.00    1.14
  13  -1   0   10.30    0.77
 -13   2   0   10.26    0.85
 -11  13   0    8.70    1.02
 -11  13   0    8.70    1.06
  13  -2   0    9.15    0.76
 -13   3   0   20.08    1.69
  -3 -10   0   21.34    1.63
 -10  13   0   21.05    2.03
 -10  13   0   21.94    2.12
  13  -3   0   20.91    1.47
  -9  13   0    1.84    0.44
  13  -4   0    1.71    0.32
  -9  13   0    1.89    0.40
  -4  -9   0    2.03    0.27
 -13   5   0    7.92    0.72
   8 -13   0    8.48    0.66
  -5  -8   0    6.90    0.66
  -8  13   0    7.14    0.85
  13  -5   0    7.56    0.69
  -8  13   0    6.84    0.92
   7 -13   0   21.28    1.62
  13  -6   0   21.96    1.54
  -7  13   0   21.91    2.16
  -6  -7   0   22.31    1.70
  -7  13   0   22.18    2.09
   6 -13   0   22.90    1.63
  13  -7   0   21.92    1.57
  -7  -6   0   21.08    1.72
  -6  13   0   22.43    2.10
   5 -13   0    7.50    0.64
  -8  -5   0    7.41    0.68
  -5  13   0    7.33    0.85
  13  -8   0    7.91    0.66
  -4  13   0    4.89    0.63
  13  -9   0    4.70    0.48
  -9  -4   0    4.58    0.48
  13 -10   0   19.09    1.40
 -10  -3   0   19.75    1.55
  -3  13   0   19.77    1.87
 -13  11   0    9.14    1.13
  11   2   0    8.89    0.71
  13 -11   0    9.61    0.81
 -11  -2   0    9.88    0.86
 -13  12   0    9.47    1.12
  12   1   0    9.17    0.73
  13 -12   0    8.54    0.78
 -12  -1   0    9.92    0.86
  13   0   0    9.41    0.72
 -13  13   0    9.85    1.10
 -13   0   0    6.72    0.81
 -14   1   0    0.77    0.31
 -13  14   0    0.74    0.46
  14  -1   0    0.73    0.27
 -14   2   0   23.22    1.82
 -12  14   0   21.82    2.29
  14  -2   0   23.06    1.60
 -14   3   0   10.04    0.85
 -11  14   0    8.42    1.05
  14  -3   0    8.71    0.74
 -11  14   0    8.83    1.02
 -14   4   0    1.80    0.38
  10 -14   0    1.82    0.32
  14  -4   0    1.92    0.33
 -10  14   0    2.13    0.43
 -10  14   0    2.59    0.49
  -4 -10   0    2.34    0.29
 -14   5   0    3.53    0.49
   9 -14   0    3.16    0.43
  -9  14   0    5.32    0.68
  14  -5   0    5.00    0.48
  -9  14   0    5.41    0.67
  -5  -9   0    4.79    0.47
 -14   6   0    8.30    0.78
   8 -14   0    8.37    0.72
  -6  -8   0    8.41    0.74
  14  -6   0    7.86    0.76
  -8  14   0    8.55    0.95
  -7  -7   0    3.33    0.39
  -7  14   0    3.65    0.53
  14  -7   0    3.24    0.41
  -8  -6   0    7.97    0.75
  14  -8   0    8.86    0.73
  -6  14   0    7.86    0.93
  -9  -5   0    3.49    0.40
  14  -9   0    2.57    0.40
  -5  14   0    3.47    0.51
  -4  14   0    1.96    0.41
 -10  -4   0    1.84    0.33
  14 -10   0    1.71    0.34
  14 -11   0    8.52    0.79
 -11  -3   0    9.94    0.85
  12   2   0   21.48    1.52
 -12  -2   0   22.91    1.76
  14 -12   0   21.73    1.57
  13   1   0    0.81    0.26
 -13  -1   0    0.46    0.34
  14 -13   0    0.65    0.32
  14   0   0   13.27    1.01
 -14  14   0   13.55    1.51
  14 -15   0    4.41    0.54
 -15   1   0    5.47    0.64
 -14  15   0    5.77    0.83
  15  -1   0    4.97    0.51
 -15   2   0    5.63    0.74
  15  -2   0    9.46    0.72
 -13  15   0    8.77    1.04
 -15   3   0   39.94    3.03
  15  -3   0   39.05    2.66
 -12  15   0   39.28    3.80
 -12  15   0   38.35    3.66
  11 -15   0   21.09    1.62
 -15   4   0   20.61    1.73
  15  -4   0   22.64    1.54
 -11  15   0   20.72    2.09
 -11  15   0   22.33    2.18
  15  -5   0    2.51    0.37
  -5 -10   0    2.75    0.33
 -10  15   0    2.31    0.48
  -9  15   0   14.98    1.50
  15  -6   0   14.28    1.11
  -6  -9   0   14.62    1.18
 -15   7   0   18.97    1.66
  15  -7   0   21.55    1.48
  -8  15   0   21.50    1.99
  -7  -8   0   20.15    1.61
  -7  15   0   20.43    1.95
  -8  -7   0   20.52    1.59
  15  -8   0   19.02    1.47
  -9  -6   0   10.44    0.91
  15  -9   0   10.12    0.87
  -6  15   0   10.60    1.13
  -5  15   0    5.23    0.67
 -10  -5   0    4.44    0.51
  15 -10   0    4.35    0.52
  -4  15   0   19.17    1.86
  15 -11   0   18.48    1.40
 -11  -4   0   19.68    1.54
 -12  -3   0   40.34    3.04
  15 -12   0   38.66    2.70
  15 -13   0    5.92    0.64
 -13  -2   0    6.99    0.71
  14   1   0    5.99    0.55
  15 -14   0    3.85    0.54
 -14  -1   0    4.27    0.58
  15   0   0   10.94    0.76
 -15   0   0    6.92    0.88
  15 -15   0    8.03    0.80
 -16   1   0    4.92    0.65
  15 -16   0    3.99    0.56
  16  -1   0    4.96    0.51
 -16   2   0    1.80    0.45
  14 -16   0    2.44    0.42
 -14  16   0    2.27    0.59
  16  -2   0    1.82    0.36
 -16   3   0    1.09    0.39
  16  -3   0    1.97    0.37
 -13  16   0    2.25    0.56
 -16   4   0    2.56    0.45
 -12  16   0    2.40    0.54
  16  -4   0    2.25    0.40
 -12  16   0    2.41    0.56
 -16   5   0   13.88    1.19
  16  -5   0   13.26    1.08
 -11  16   0   13.83    1.44
 -16   6   0    1.70    0.40
  -6 -10   0    0.60    0.25
 -10  16   0    1.12    0.39
  16  -6   0    0.63    0.33
 -16   7   0    2.00    0.45
  -9  16   0    3.65    0.58
  16  -7   0    4.52    0.48
  -7  -9   0    4.18    0.43
 -16   8   0   70.98    5.47
  -8  -8   0   71.19    5.44
  16  -8   0   73.40    4.83
  -8  16   0   74.12    6.59
 -16   9   0    4.70    0.49
  -9  -7   0    2.37    0.38
  16  -9   0    1.92    0.42
  -7  16   0    2.10    0.48
  -6  16   0    2.00    0.45
  16 -10   0    1.99    0.39
 -10  -6   0    2.00    0.37
  -5  16   0   13.29    1.37
 -11  -5   0   12.96    1.14
  16 -11   0   13.23    1.07
 -12  -4   0    3.49    0.47
  16 -12   0    2.67    0.46
  16 -13   0    0.77    0.40
 -13  -3   0    1.41    0.36
  16 -14   0    1.96    0.44
 -14  -2   0    1.96    0.43
  16 -15   0    5.41    0.61
 -15  -1   0    4.64    0.63
  16   0   0    9.67    0.88
  16 -16   0   11.89    1.00
 -16   0   0   12.12    1.10
  16 -17   0    4.69    0.59
 -17   1   0    4.71    0.63
  17  -1   0    4.13    0.50
 -17   2   0    3.63    0.57
  15 -17   0    3.68    0.50
  17  -2   0    1.63    0.41
  14 -17   0    6.68    0.61
 -17   3   0    6.48    0.69
 -14  17   0    4.28    0.80
  17  -3   0    3.61    0.53
 -17   4   0    1.28    0.42
  13 -17   0    1.44    0.38
  17  -4   0    0.95    0.37
 -17   5   0   14.50    1.28
 -12  17   0   14.30    1.54
  17  -5   0   15.15    1.16
 -17   6   0    1.37    0.38
  17  -6   0    0.18    0.31
 -11  17   0   -0.26    0.37
 -17   7   0    3.60    0.55
  -7 -10   0    4.30    0.46
 -10  17   0    3.20    0.60
  17  -7   0    4.23    0.50
  -9  17   0    6.27    0.82
  17  -8   0    6.98    0.65
  -8  -9   0    5.76    0.64
  17  -9   0   10.98    0.93
  -9  -8   0   10.17    0.96
  -8  17   0   11.60    1.21
 -17  10   0    3.63    0.53
  -7  17   0    4.00    0.62
  17 -10   0    3.93    0.51
 -10  -7   0    3.73    0.48
  -6  17   0    1.22    0.42
  17 -11   0    1.59    0.39
 -11  -6   0    1.00    0.35
  17 -12   0   14.69    1.21
 -12  -5   0   15.07    1.27
  17 -13   0    1.55    0.42
 -13  -4   0    1.23    0.38
  17 -14   0    6.32    0.71
 -14  -3   0    7.09    0.76
 -15  -2   0    3.64    0.55
  17 -15   0    3.55    0.56
  17 -16   0    4.10    0.59
 -16  -1   0    3.96    0.58
  17 -17   0    8.49    0.86
 -17   0   0    9.36    0.97
 -18   1   0    3.39    0.57
  17 -18   0    3.41    0.57
  16 -18   0    2.44    0.49
 -18   2   0    1.69    0.51
  18  -2   0    1.50    0.39
 -18   3   0    8.78    0.91
  15 -18   0    9.19    0.83
  18  -3   0    6.00    0.70
 -18   4   0    2.15    0.49
  14 -18   0    1.59    0.43
  18  -4   0    2.57    0.44
  13 -18   0    3.14    0.46
 -18   5   0    2.87    0.51
  18  -5   0    2.50    0.46
 -18   6   0   13.11    1.12
  18  -6   0   11.00    0.99
 -12  18   0   10.51    1.29
 -18   7   0    1.15    0.40
 -11  18   0    1.03    0.46
  18  -7   0    0.75    0.36
 -18   8   0   14.89    1.28
  -8 -10   0   13.75    1.17
  18  -8   0   13.50    1.13
 -10  18   0   13.42    1.45
 -18   9   0   30.01    2.17
  -9  -9   0   25.94    2.07
  -9  18   0   25.08    2.53
  18  -9   0   25.38    1.89
 -18  10   0   14.84    1.27
 -10  -8   0   14.32    1.21
  18 -10   0   13.74    1.18
  -8  18   0   13.94    1.48
 -18  11   0    1.00    0.41
  18 -11   0    1.95    0.45
  -7  18   0    1.06    0.46
 -11  -7   0    1.25    0.37
 -18  12   0   10.96    1.12
  18 -12   0   13.03    1.06
 -12  -6   0   12.84    1.10
 -18  13   0    2.09    0.46
 -13  -5   0    2.88    0.47
  18 -13   0    3.10    0.50
 -14  -4   0    2.03    0.47
  18 -14   0    1.88    0.48
  18 -15   0    8.12    0.81
 -15  -3   0    7.90    0.89
  18 -16   0    1.97    0.49
 -16  -2   0    2.02    0.50
 -17  -1   0    3.74    0.61
  18 -17   0    3.92    0.58
  18 -18   0    1.13    0.47
 -18   0   0    1.15    0.49
 -19   1   0    1.55    0.52
  18 -19   0    1.39    0.49
 -19   2   0    2.48    0.55
  17 -19   0    1.97    0.51
  19  -2   0    1.61    0.41
 -19   3   0    6.20    0.80
  16 -19   0    6.64    0.72
  19  -3   0    6.29    0.66
  15 -19   0    2.46    0.49
 -19   4   0    1.80    0.53
  19  -4   0    4.14    0.51
 -19   5   0    0.50    0.46
  19  -5   0    0.64    0.40
 -19   6   0    1.62    0.49
  19  -6   0    2.24    0.46
 -19   7   0    1.87    0.51
  19  -7   0    3.07    0.49
 -19   8   0    2.26    0.48
  19  -8   0    1.02    0.40
 -11  19   0    0.77    0.48
 -19   9   0    3.66    0.57
 -10  19   0    3.60    0.64
  -9 -10   0    3.47    0.46
  19  -9   0    3.26    0.52
 -19  10   0    3.17    0.57
 -10  -9   0    3.37    0.46
  19 -10   0    2.89    0.51
  -9  19   0    3.20    0.60
 -19  11   0    1.95    0.49
  19 -11   0    1.32    0.45
 -11  -8   0    1.61    0.38
 -19  12   0    2.56    0.48
 -12  -7   0    1.54    0.41
  19 -12   0    1.68    0.48
 -19  13   0    2.66    0.47
 -13  -6   0    1.45    0.42
  19 -13   0    0.98    0.46
 -19  14   0    0.71    0.40
 -14  -5   0    0.31    0.40
  19 -14   0    0.21    0.43
  19 -15   0    2.71    0.54
 -15  -4   0    2.77    0.51
 -16  -3   0    6.25    0.75
  19 -16   0    6.24    0.72
  19 -17   0    2.00    0.52
 -17  -2   0    1.45    0.48
  19 -18   0    1.95    0.52
 -18  -1   0    2.04    0.54
 -19   0   0    4.48    0.66
  19 -19   0    4.62    0.66
 -20   1   0    2.33    0.57
  19 -20   0    1.95    0.53
  18 -20   0    1.73    0.51
 -20   2   0    2.47    0.57
 -20   3   0    2.53    0.57
  17 -20   0    2.50    0.52
  20  -3   0    2.71    0.48
  16 -20   0   16.46    1.33
 -20   4   0   15.44    1.46
  20  -4   0   15.74    1.25
 -20   5   0    1.48    0.51
  20  -5   0    2.54    0.49
 -20   6   0    6.40    0.77
  20  -6   0    6.26    0.69
 -20   7   0    5.42    0.71
  20  -7   0    5.49    0.65
 -20   8   0    6.35    0.84
  20  -8   0    9.81    0.86
 -20   9   0    2.39    0.57
  20  -9   0    4.75    0.59
 -11  20   0    4.05    0.70
 -20  10   0    1.90    0.49
 -10 -10   0    1.86    0.40
  20 -10   0    0.86    0.46
 -10  20   0    2.11    0.55
 -20  11   0    4.10    0.58
  20 -11   0    2.39    0.52
 -11  -9   0    2.73    0.47
 -20  12   0   10.79    0.94
  20 -12   0    6.37    0.77
 -12  -8   0    7.15    0.80
 -20  13   0    5.87    0.72
 -13  -7   0    5.56    0.65
  20 -13   0    4.61    0.64
 -20  14   0    6.99    0.79
  20 -14   0    5.91    0.75
 -14  -6   0    7.08    0.76
 -20  15   0    2.38    0.49
  20 -15   0    0.45    0.45
 -15  -5   0    0.95    0.44
  20 -16   0   16.58    1.33
 -16  -4   0   15.43    1.40
 -17  -3   0    1.98    0.54
  20 -17   0    2.05    0.54
  20 -18   0    1.66    0.54
 -18  -2   0    2.72    0.58
 -19  -1   0    2.06    0.56
  20 -19   0    1.54    0.55
 -20   0   0    2.46    0.59
  20 -20   0    2.78    0.59
  20 -21   0    0.80    0.49
 -21   1   0    1.53    0.54
  19 -21   0    0.98    0.51
 -21   2   0    0.75    0.51
  18 -21   0    3.40    0.61
 -21   3   0    3.89    0.65
 -21   4   0   10.75    1.07
  21  -4   0    9.72    0.95
 -21   5   0    0.28    0.51
  21  -5   0    1.37    0.44
 -21   6   0    7.05    0.78
  21  -6   0    3.81    0.60
 -21   7   0    3.57    0.61
  21  -7   0    2.92    0.53
 -21   8   0    7.28    0.82
  21  -8   0    6.21    0.73
 -21   9   0    3.13    0.57
  21  -9   0    1.29    0.48
 -21  10   0    1.88    0.49
  21 -10   0    0.39    0.42
 -21  11   0    0.48    0.46
  21 -11   0    1.85    0.49
 -11 -10   0    1.65    0.41
 -21  12   0    1.92    0.52
 -12  -9   0    3.29    0.48
  21 -12   0    4.03    0.57
 -21  13   0    6.33    0.77
  21 -13   0    6.60    0.74
 -13  -8   0    6.94    0.74
 -21  14   0    3.00    0.56
 -14  -7   0    3.48    0.54
  21 -14   0    3.27    0.54
 -21  15   0    4.27    0.69
  21 -15   0    5.87    0.69
 -15  -6   0    5.78    0.69
 -16  -5   0    1.01    0.44
  21 -16   0    0.28    0.47
 -17  -4   0    9.35    0.98
  21 -17   0    9.83    0.98
  21 -18   0    3.83    0.64
 -18  -3   0    3.69    0.62
 -19  -2   0    1.25    0.53
  21 -19   0    0.65    0.49
  21 -20   0    0.58    0.48
 -20  -1   0    0.54    0.51
 -22   3   0    0.28    0.48
 -22   4   0    0.85    0.50
 -22   5   0    1.02    0.50
  22  -5   0    0.54    0.44
 -22   6   0    2.96    0.60
  22  -6   0    2.45    0.51
 -22   7   0    1.57    0.52
  22  -7   0   -0.02    0.42
 -22   8   0    1.50    0.54
  22  -8   0    1.24    0.46
 -22   9   0    0.59    0.50
  22  -9   0    0.80    0.50
 -22  10   0    1.50    0.51
  22 -10   0    1.41    0.49
 -22  11   0    3.16    0.59
  22 -11   0    2.91    0.55
 -22  12   0    0.83    0.49
  22 -12   0    1.86    0.50
 -22  13   0    0.34    0.45
 -13  -9   0    0.54    0.40
  22 -13   0    0.42    0.45
 -22  14   0    1.24    0.47
 -14  -8   0    1.30    0.42
  22 -14   0    0.88    0.48
 -22  15   0    1.32    0.46
 -15  -7   0    1.08    0.42
  22 -15   0    1.80    0.50
  22 -16   0    3.26    0.58
 -16  -6   0    2.91    0.54
 -17  -5   0    1.22    0.47
  22 -17   0    1.07    0.49
  22 -18   0    0.46    0.47
 -18  -4   0    0.40    0.46
  22 -19   0    0.07    0.46
 -19  -3   0    0.36    0.46
 -23   5   0    1.15    0.52
 -23   6   0    1.37    0.52
  23  -6   0    1.54    0.47
 -23   7   0    0.99    0.52
  23  -7   0    1.38    0.49
 -23   8   0    0.28    0.50
  23  -8   0    1.18    0.47
 -23   9   0    2.18    0.58
  23  -9   0    2.99    0.55
 -23  10   0    0.37    0.50
  23 -10   0    0.41    0.47
 -23  11   0    0.20    0.50
  23 -11   0    1.82    0.51
 -23  12   0    1.63    0.53
  23 -12   0    0.81    0.48
 -23  13   0    1.06    0.47
  23 -13   0    1.31    0.49
 -23  14   0    2.09    0.55
 -14  -9   0    1.50    0.45
  23 -14   0    1.82    0.52
 -23  15   0    0.97    0.50
 -15  -8   0   -0.01    0.38
  23 -15   0   -0.05    0.46
  23 -16   0    1.01    0.49
 -16  -7   0    1.08    0.46
 -17  -6   0    1.23    0.45
  23 -17   0    1.85    0.54
  23 -18   0    1.90    0.54
 -18  -5   0    1.18    0.49
 -24  10   0    1.68    0.58
  24 -10   0    1.59    0.48
 -24  11   0    1.40    0.56
  24 -11   0    0.72    0.46
 -24  12   0   25.36    2.02
  24 -12   0   22.97    1.79
 -24  13   0    0.24    0.50
  24 -13   0    1.43    0.49
 -24  14   0    1.41    0.53
  24 -14   0    1.78    0.51
   0   0  -1   56.12    4.72
   0   0  -1   59.73    4.15
   0   0   1   59.16    4.15
   0   0   1   56.16    4.72
   1  -1  -1    7.36    0.53
   0   1  -1    7.37    0.54
  -1   0  -1    6.89    0.59
   1  -1   1    3.53    0.30
   0   1   1    3.54    0.27
   1  -1   1    3.50    0.30
   0   1   1    3.31    0.31
  -1   0   1    3.46    0.32
  -1   2  -1    0.32    0.06
  -1  -1  -1    0.32    0.09
   2  -1  -1    0.19    0.11
   1   1   1    0.62    0.10
  -2   1   1    0.68    0.14
   1  -2   1    0.63    0.12
  -2  -1  -1  184.78   14.12
   1  -3   1  177.07   12.41
   2   1   1  169.63   14.10
  -2   0  -1    9.30    0.75
   0   2  -1    9.75    0.74
   2  -2  -1   10.12    0.77
   0  -2   1    8.08    0.67
   0  -2   1    8.48    0.74
   2   0   1    8.09    0.75
   1  -2  -1    0.30    0.09
  -2   1  -1    0.25    0.09
   1   1  -1    0.53    0.12
   1   1  -1    0.32    0.10
   1  -2  -1    0.30    0.07
  -1  -1   1    0.69    0.11
  -1  -1   1    0.75    0.13
  -1   2   1    0.57    0.10
   2   0  -1    1.38    0.18
  -2   2  -1    1.22    0.15
   0  -2  -1    1.11    0.17
   3  -1  -1  117.94    9.52
  -1  -2  -1  115.57    9.52
  -2   3  -1  120.90    9.50
   2  -3   1  124.01    9.51
   1   2   1  120.22    9.56
   4  -2  -1   38.64    3.12
  -2  -2  -1   39.53    3.12
   2   2   1   37.39    3.11
   2  -4   1   39.35    2.75
  -4   2   1   38.19    3.13
  -5   3   1   10.44    0.89
   3   2   1   10.59    0.88
   2  -5   1   10.60    0.79
   4  -3  -1  113.89    8.75
  -1   4  -1  110.62    8.73
  -3  -1  -1  110.63    8.74
  -4   3   1  108.16    8.75
   3   1   1  110.24    8.74
   1  -4   1  107.93    8.72
   1  -4   1  108.04    7.70
   0   3  -1  258.01   19.71
  -3   0  -1  242.21   19.73
   3  -3  -1  253.39   19.77
   0  -3   1  241.51   19.70
   0  -3   1  246.68   17.33
   3   0   1  245.30   19.74
   1   2  -1  172.41   14.05
   2  -3  -1  173.01   14.06
  -3   1  -1  178.33   14.04
  -1  -2   1  175.78   14.05
   3  -1   1  178.54   14.06
  -1  -2   1  181.33   12.35
  -3   2  -1  118.71    9.63
   2   1  -1  122.66    9.65
   1  -3  -1  117.80    9.64
  -1   3   1  125.94    9.65
   3  -2   1  120.81    9.63
  -2  -1   1  120.92    9.65
   0  -3  -1  187.98   15.56
   3   0  -1  189.76   15.51
  -3   3  -1  202.07   15.52
   0   3   1  200.82   15.56
  -3   0   1  196.43   15.57
   3  -3   1  194.19   15.52
  -1  -3  -1   22.73    1.88
   4  -1  -1   23.56    1.89
  -3   4  -1   23.53    1.86
  -2  -3  -1   76.15    6.12
   5  -2  -1   77.61    6.13
   2   3   1   76.91    6.12
  -5   2   1   76.82    6.14
   3  -5   1   76.79    5.40
  -3  -3  -1   55.85    4.55
   6  -3  -1   51.63    4.56
   3   3   1   57.77    4.55
   3  -6   1   60.99    4.02
  -6   3   1   58.53    4.57
  -4  -3  -1   17.59    1.46
   7  -4  -1   17.21    1.47
   4   3   1   17.83    1.46
  -7   4   1   18.57    1.47
   3  -7   1   17.54    1.30
  -4  -2  -1   39.36    3.20
   6  -4  -1   38.79    3.20
   2  -6   1   40.62    3.17
   4   2   1   39.76    3.20
  -6   4   1   38.82    3.21
   2  -6   1   41.26    2.83
  -1   5  -1    1.90    0.18
   5  -4  -1    2.00    0.25
  -4  -1  -1    1.74    0.23
  -5   4   1    1.99    0.26
   1  -5   1    2.26    0.24
   1  -5   1    2.17    0.20
   4   1   1    2.14    0.24
   4  -4  -1   10.40    0.78
   0   4  -1   10.20    0.75
  -4   0  -1    9.45    0.77
   4   0   1    7.68    0.76
   0  -4   1    8.47    0.69
   0  -4   1    8.58    0.75
  -4   1  -1  106.45    8.55
   3  -4  -1  105.17    8.55
   1   3  -1  110.08    8.54
   3  -4  -1  103.84    8.55
  -1  -3   1  110.04    7.54
  -1  -3   1  108.57    8.55
   4  -1   1  108.31    8.55
   2   2  -1   41.24    3.22
  -4   2  -1   39.35    3.22
   2  -4  -1   39.63    3.22
   4  -2   1   39.90    3.22
  -2  -2   1   39.93    3.23
   1  -4  -1   22.89    2.12
   3   1  -1   23.15    2.12
  -4   3  -1   24.11    2.11
   4  -3   1   30.13    2.12
  -3  -1   1   30.21    2.14
  -1   4   1   28.16    2.12
   0  -4  -1  132.05    9.58
  -4   4  -1  136.84    9.57
   4   0  -1  131.67    9.59
   0   4   1  111.52    9.58
   4  -4   1  110.96    9.57
   0   4   1  114.65    8.42
  -4   0   1  106.28    9.59
  -1  -4  -1    3.22    0.30
   5  -1  -1    3.05    0.31
  -4   5  -1    3.25    0.27
   4  -5   1    2.90    0.27
   1   4   1    2.89    0.25
  -5   1   1    2.87    0.32
   1   4   1    2.94    0.30
  -2  -4  -1   69.41    5.93
   4  -6   1   75.43    5.90
  -6   2   1   77.15    5.95
   4  -6   1   72.55    5.90
   2   4   1   76.89    5.93
   3   4   1    7.83    0.69
   4  -7   1    7.74    0.63
  -7   3   1    8.39    0.71
  -4  -4  -1    1.06    0.23
   8  -4  -1    1.21    0.23
   4  -8   1    1.98    0.24
  -8   4   1    1.97    0.26
   4   4   1    1.84    0.24
  -4   9  -1   55.38    5.40
   9  -5  -1   50.06    4.79
  -5  -4  -1   53.19    4.79
  -9   5   1   65.72    4.82
   4  -9   1   65.62    4.23
   5   4   1   69.09    4.80
   8  -5  -1   43.63    3.84
  -5  -3  -1   44.62    3.84
   3  -8   1   49.19    3.80
   3  -8   1   50.56    3.80
   5   3   1   47.56    3.84
   3  -8   1   49.94    3.39
  -8   5   1   48.51    3.86
  -2   7  -1   16.17    1.23
  -5  -2  -1   17.05    1.29
   7  -5  -1   16.87    1.29
  -7   5   1   13.80    1.29
   2  -7   1   14.62    1.14
   5   2   1   14.65    1.28
   2  -7   1   14.74    1.24
   1  -6   1   22.01    1.77
   5   1   1   21.56    1.80
  -6   5   1   21.64    1.81
   1  -6   1   23.24    1.60
   5  -5  -1    2.94    0.32
  -5   0  -1    3.03    0.32
   0   5  -1    2.87    0.27
  -5   1  -1    1.89    0.23
   1   4  -1    1.77    0.20
   4  -5  -1    2.20    0.25
   5  -1   1    1.82    0.23
  -1  -4   1    2.01    0.23
  -1  -4   1    1.81    0.22
   3  -5  -1    4.67    0.41
   2   3  -1    4.74    0.42
  -5   2  -1    4.41    0.42
  -5   3  -1   80.10    6.28
   3   2  -1   82.66    6.29
   2  -5  -1   79.96    6.28
  -3  -2   1   76.88    6.29
   5  -3   1   78.89    6.28
  -2   5   1   75.09    6.28
  -5   4  -1    3.21    0.29
   4   1  -1    3.35    0.32
   1  -5  -1    3.21    0.30
  -4  -1   1    2.66    0.33
  -1   5   1    2.62    0.29
   5  -4   1    2.84    0.29
   0   5   1    1.56    0.20
   5  -5   1    1.92    0.20
  -5   0   1    1.75    0.24
   0   5   1    1.80    0.17
  -5   6  -1    4.13    0.38
   6  -1  -1    3.69    0.43
  -1  -5  -1    3.96    0.41
  -6   1   1    4.69    0.45
   1   5   1    4.66    0.35
   5  -6   1    4.68    0.38
   1   5   1    5.07    0.41
   7  -2  -1    6.30    0.58
  -2  -5  -1    5.47    0.56
   5  -7   1    6.36    0.53
  -7   2   1    6.75    0.61
   5  -7   1    6.56    0.52
   2   5   1    6.57    0.56
  -3  -5  -1   57.76    4.54
   8  -3  -1   57.34    4.55
   5  -8   1   55.25    4.50
   5  -8   1   59.37    4.50
   5  -8   1   54.69    4.00
  -8   3   1   56.08    4.56
   3   5   1   55.61    4.53
  -4  -5  -1   57.48    4.02
   9  -4  -1   56.08    4.02
  -5   9  -1   57.85    4.53
  -9   4   1   46.25    4.02
   4   5   1   44.66    3.99
  -9   4   1   43.82    3.73
   5  -9   1   43.39    3.53
  10  -5  -1   -0.02    0.18
  -5  10  -1    0.20    0.24
  -5  -5  -1   -0.05    0.17
 -10   5   1   -0.21    0.20
 -10   5   1   -0.10    0.17
   5   5   1    0.17    0.16
   5 -10   1    0.08    0.18
  -6  -5  -1   19.29    1.66
  -5  11  -1   18.02    2.04
 -11   6   1   22.71    1.68
   5 -11   1   24.39    1.60
   6   5   1   23.67    1.46
  -4  10  -1    2.02    0.42
  -6  -4  -1    2.07    0.30
   4 -10   1    3.42    0.35
 -10   6   1    3.69    0.35
   4 -10   1    3.30    0.27
   6   4   1    3.37    0.37
 -10   6   1    2.99    0.39
  -6  -3  -1   19.68    1.77
   9  -6  -1   20.70    1.78
   3  -9   1   22.05    1.72
   3  -9   1   22.01    1.72
  -9   6   1   21.22    1.79
   6   3   1   21.83    1.77
   3  -9   1   22.64    1.58
  -6  -2  -1   41.58    3.21
  -2   8  -1   42.48    3.16
   8  -6  -1   43.00    3.21
   2  -8   1   38.17    2.82
   2  -8   1   37.78    3.16
  -8   6   1   36.60    3.21
   6   2   1   37.80    3.20
  -1   7  -1   56.42    4.28
   7  -6  -1   52.70    4.31
  -6  -1  -1   53.42    4.32
   1  -7   1   56.50    4.28
   6   1   1   51.23    4.31
   1  -7   1   54.33    3.80
  -7   6   1   50.95    4.32
  -6   0  -1  122.89    9.66
   0   6  -1  128.43    9.64
   6  -6  -1  127.31    9.66
   0  -6   1  116.87    9.64
   0  -6   1  121.17    8.51
   6   0   1  110.56    9.66
   5  -6  -1   30.96    2.15
  -6   1  -1   30.55    2.16
  -1  -5   1   22.92    2.13
  -1  -5   1   22.06    1.89
   2   4  -1   42.41    3.29
  -6   2  -1   40.89    3.31
   4  -6  -1   40.85    3.31
   4  -6  -1   39.71    3.29
  -2  -4   1   40.56    3.30
   6  -2   1   42.23    3.31
   3   3  -1   54.41    4.45
   3  -6  -1   52.98    4.45
  -6   3  -1   52.12    4.46
   6  -3   1   58.87    4.46
  -3  -3   1   60.60    4.47
   2  -6  -1   70.18    5.74
   2  -6  -1   72.15    5.04
   4   2  -1   68.30    5.75
  -6   4  -1   67.15    5.74
  -2   6   1   75.01    5.74
  -4  -2   1   74.32    5.76
   6  -4   1   76.86    5.75
   1  -6  -1    4.05    0.40
   5   1  -1    4.07    0.41
  -6   5  -1    4.07    0.40
  -1   6   1    4.45    0.40
  -5  -1   1    5.11    0.45
   6  -5   1    4.41    0.40
   0  -6  -1  115.62    9.66
  -6   6  -1  116.99    9.65
   6   0  -1  116.20    9.68
   6  -6   1  119.19    9.65
  -6   0   1  125.71    9.69
   0   6   1  131.28    8.49
   0   6   1  124.56    9.66
  -1  -6  -1   58.39    4.68
   7  -1  -1   59.62    4.69
  -6   7  -1   59.13    4.66
   1   6   1   60.14    4.68
  -7   1   1   59.35    4.70
   6  -7   1   54.22    4.65
   8  -2  -1   36.22    3.01
  -6   8  -1   36.74    3.39
  -6   8  -1   35.44    3.54
  -2  -6  -1   36.83    2.99
   6  -8   1   37.46    2.96
   6  -8   1   37.75    2.96
   2   6   1   37.20    2.99
  -8   2   1   39.03    3.02
  -6   9  -1   17.75    1.88
   9  -3  -1   18.36    1.59
  -3  -6  -1   17.79    1.57
  -6   9  -1   17.57    1.80
   6  -9   1   19.93    1.53
  -9   3   1   19.49    1.60
   6  -9   1   19.88    1.41
   3   6   1   19.63    1.57
  -9   3   1   19.29    1.48
   6  -9   1   19.98    1.53
  -6  10  -1    4.10    0.51
  -4  -6  -1    3.27    0.37
  10  -4  -1    3.10    0.37
  -6  10  -1    3.45    0.45
 -10   4   1    2.92    0.39
   4   6   1    3.02    0.35
   6 -10   1    2.43    0.33
 -10   4   1    3.08    0.36
   6 -10   1    2.70    0.26
  -5  -6  -1   33.13    2.37
  -6  11  -1   34.28    2.91
   6 -11   1   27.49    2.26
 -11   5   1   30.28    2.40
  -6  -6  -1   10.99    0.88
  -6  12  -1   11.02    1.13
   6 -12   1   11.36    0.88
 -12   6   1   10.42    0.93
   6   6   1   10.07    0.77
  -6  13  -1    1.23    0.42
   6 -13   1    3.08    0.37
 -13   7   1    3.44    0.38
   6 -13   1    2.76    0.35
   7   6   1    2.68    0.28
   5 -12   1   22.94    1.65
   5 -12   1   22.64    1.74
 -12   7   1   21.43    1.74
   7   5   1   22.02    1.50
  -7  -4  -1    9.01    0.69
  -4  11  -1    8.97    0.89
   7   4   1    7.28    0.58
   4 -11   1    7.80    0.68
   4 -11   1    7.29    0.65
 -11   7   1    6.41    0.69
  -7  -3  -1   26.37    1.85
  10  -7  -1   26.40    1.99
  -3  10  -1   26.83    2.26
   3 -10   1   22.23    1.93
   7   3   1   22.36    1.97
 -10   7   1   22.93    1.99
   7   3   1   22.43    1.61
   3 -10   1   23.54    1.75
  -2   9  -1    0.86    0.13
   9  -7  -1    1.26    0.23
  -7  -2  -1    1.04    0.22
  -7  -2  -1    1.12    0.22
   2  -9   1    1.93    0.25
   7   2   1    2.14    0.25
  -9   7   1    1.96    0.27
  -7  -1  -1    6.60    0.68
   8  -7  -1    7.42    0.67
  -1   8  -1    7.13    0.62
   7   1   1    7.83    0.68
   1  -8   1    7.82    0.64
  -8   7   1    7.41    0.67
   1  -8   1    8.03    0.63
  -7   0  -1   29.95    2.48
   7  -7  -1   28.46    2.47
   0   7  -1   27.83    2.44
   7   0   1   30.53    2.48
   0  -7   1   33.64    2.19
   0  -7   1   32.95    2.45
   6  -7  -1   53.39    4.40
  -7   1  -1   55.36    4.41
   1   6  -1   56.93    4.38
  -1  -6   1   55.71    4.39
   7  -1   1   52.77    4.40
   2   5  -1   17.43    1.32
   5  -7  -1   16.75    1.34
  -7   2  -1   16.28    1.34
   5  -7  -1   16.88    1.32
  -2  -5   1   14.88    1.33
   7  -2   1   14.59    1.33
   4  -7  -1   17.99    1.47
  -7   3  -1   17.39    1.48
   3   4  -1   18.37    1.48
   7  -3   1   18.15    1.49
  -3  -4   1   18.51    1.49
   3  -7  -1   12.57    0.89
   3  -7  -1   11.85    1.02
  -7   4  -1   11.93    1.03
   4   3  -1   12.80    1.03
   2  -7  -1    6.08    0.47
  -7   5  -1    5.47    0.54
   2  -7  -1    6.15    0.55
   5   2  -1    5.93    0.55
   7  -5   1    6.95    0.55
  -2   7   1    6.32    0.54
  -5  -2   1    6.59    0.58
  -7   6  -1   57.51    4.61
   1  -7  -1   57.01    4.62
   6   1  -1   57.69    4.63
  -6  -1   1   60.19    4.64
   7  -6   1   56.78    4.61
  -1   7   1   57.29    4.61
   7   0  -1   60.77    4.83
  -7   7  -1   60.37    4.80
   0  -7  -1   62.64    4.82
  -7   7  -1   60.45    5.68
   0   7   1   59.45    4.81
  -7   0   1   60.41    4.84
   7  -7   1   57.21    4.80
  -7   8  -1    5.19    0.67
  -7   8  -1    5.62    0.61
   8  -1  -1    5.25    0.50
  -1  -7  -1    4.93    0.48
   1   7   1    5.03    0.47
   7  -8   1    4.61    0.45
  -8   1   1    5.22    0.51
  -8   1   1    4.66    0.47
  -9   2   1    9.76    0.85
   2   7   1    9.91    0.81
   7  -9   1    9.51    0.78
  -9   2   1    8.71    0.78
   7  -9   1    9.07    0.77
  -3  -7  -1   28.16    2.42
  -7  10  -1   29.91    2.76
  10  -3  -1   29.29    2.00
  10  -3  -1   28.83    2.44
  -7  10  -1   27.93    2.87
   7 -10   1   30.14    2.38
 -10   3   1   29.22    2.26
   3   7   1   30.52    2.42
   7 -10   1   32.17    2.37
  11  -4  -1   14.97    1.08
  -7  11  -1   14.27    1.54
  -7  11  -1   14.51    1.48
 -11   4   1   15.25    1.21
   7 -11   1   15.68    1.15
   4   7   1   15.38    1.27
  -7  12  -1   23.56    2.27
  -5  -7  -1   22.83    1.75
  -7  12  -1   23.56    2.18
  12  -5  -1   24.52    1.60
   7 -12   1   21.37    1.69
 -12   5   1   21.84    1.79
  -7  13  -1    8.63    1.02
  -7  13  -1    9.48    0.96
  13  -6  -1    9.26    0.71
  -6  -7  -1    9.78    0.72
 -13   6   1    6.74    0.79
   7 -13   1    6.42    0.70
  -7  -7  -1    2.10    0.29
  -7  14  -1    1.76    0.43
  -7  14  -1    1.77    0.48
  14  -7  -1    1.83    0.35
 -14   7   1    2.05    0.36
   7 -14   1    1.93    0.33
  -8  -7  -1    9.35    0.84
  -7  15  -1   10.01    1.19
  -7  15  -1    9.67    1.09
  15  -8  -1   10.09    0.85
 -15   8   1   10.29    0.92
   7 -15   1    9.43    0.84
  14  -8  -1    3.38    0.43
  -8  -6  -1    3.80    0.42
  -6  14  -1    3.71    0.58
  -6  14  -1    3.93    0.65
   6 -14   1    3.91    0.44
 -14   8   1    3.94    0.47
  -5  13  -1    0.81    0.35
  -8  -5  -1    1.23    0.25
 -13   8   1    0.70    0.25
   8   5   1    0.80    0.20
   5 -13   1    0.72    0.25
   5 -13   1    0.73    0.24
  -4  12  -1   83.27    7.78
  -8  -4  -1   85.46    6.44
   4 -12   1   87.59    6.43
   8   4   1   86.14    5.65
   4 -12   1   86.37    6.09
 -12   8   1   87.82    6.44
  -8  -3  -1    4.12    0.42
  11  -8  -1    3.78    0.45
  -3  11  -1    4.06    0.56
  10  -8  -1   11.20    0.90
  -8  -2  -1   11.17    0.87
  -2  10  -1   10.08    0.83
   2 -10   1   10.24    0.81
 -10   8   1    9.93    0.91
   2 -10   1    9.33    0.83
   8   2   1    9.44    0.74
  -8  -1  -1   31.13    2.33
   9  -8  -1   32.36    2.50
  -8  -1  -1   33.25    2.52
  -1   9  -1   33.88    2.46
   8   1   1   28.16    2.04
   1  -9   1   28.87    2.46
   1  -9   1   28.93    2.21
   8   1   1   28.48    2.50
  -8   0  -1   82.15    7.59
   0   8  -1   81.01    7.55
   0  -8   1  105.47    7.57
   0  -8   1  102.41    6.69
   8   0   1   99.25    7.60
   8   0   1  100.32    6.22
   7  -8  -1    6.91    0.65
  -8   1  -1    7.29    0.67
   1   7  -1    7.01    0.62
  -1  -7   1    7.36    0.64
   8  -1   1    7.99    0.67
   8  -1   1    7.36    0.56
  -8   2  -1   42.18    3.31
   2   6  -1   42.73    3.29
   6  -8  -1   41.98    3.29
   6  -8  -1   42.47    3.30
  -2  -6   1   38.88    3.29
   8  -2   1   37.55    3.31
   3   5  -1   46.97    3.68
  -8   3  -1   45.85    4.35
  -8   3  -1   44.81    3.69
   5  -8  -1   43.72    3.67
   5  -8  -1   43.29    3.69
  -3  -5   1   47.41    3.69
   8  -3   1   49.49    3.70
   4   4  -1    1.02    0.20
  -8   4  -1    1.11    0.21
   4  -8  -1    1.36    0.17
   4  -8  -1    1.09    0.18
  -8   4  -1    1.41    0.33
  -4  -4   1    2.16    0.25
   8  -4   1    1.74    0.23
  -8   5  -1   55.48    5.44
   5   3  -1   59.04    4.63
   3  -8  -1   58.61    4.61
   3  -8  -1   60.38    4.05
  -8   5  -1   57.31    4.62
   8  -5   1   55.73    4.62
  -5  -3   1   56.96    4.63
   2  -8  -1   34.34    3.01
   2  -8  -1   37.29    2.64
  -8   6  -1   35.86    3.57
   6   2  -1   36.51    3.03
  -8   6  -1   37.07    3.01
  -6  -2   1   39.57    2.82
   8  -6   1   37.48    3.01
  -2   8   1   38.26    3.01
  -6  -2   1   40.75    3.04
  -8   7  -1    5.79    0.70
  -8   7  -1    5.85    0.62
   1  -8  -1    5.88    0.50
   7   1  -1    5.60    0.52
  -8   7  -1    6.04    0.50
  -7  -1   1    4.78    0.49
  -1   8   1    4.70    0.48
   8  -7   1    4.99    0.49
  -7  -1   1    4.66    0.53
   8   0  -1  107.93    7.91
  -8   8  -1  106.73    7.88
   0  -8  -1  114.35    7.89
  -8   8  -1  111.07    9.29
  -8   8  -1  111.90    8.90
   8  -8   1   83.67    7.87
   8  -8   1   91.86    6.48
  -8   0   1   87.36    7.91
  -8   0   1   87.84    7.36
   0   8   1   87.65    7.88
  -8   9  -1   21.13    2.44
  -8   9  -1   21.25    2.33
   9  -1  -1   21.29    2.06
  -1  -8  -1   22.21    2.04
   8  -9   1   26.90    1.70
  -9   1   1   28.02    2.09
  -9   1   1   26.34    1.92
   1   8   1   29.02    2.04
   8  -9   1   28.38    2.03
  -2  -8  -1    7.45    0.69
  -8  10  -1    7.27    0.85
  10  -2  -1    7.67    0.60
  -8  10  -1    7.42    0.90
   2   8   1    7.71    0.68
   8 -10   1    7.57    0.62
 -10   2   1    7.16    0.67
  -8  11  -1    2.08    0.39
  11  -3  -1    1.97    0.27
  -8  11  -1    1.34    0.43
   8 -11   1    1.85    0.27
   3   8   1    1.81    0.26
 -11   3   1    1.35    0.28
  12  -4  -1  129.20    8.46
  -8  12  -1  132.48   12.12
  -8  12  -1  129.10   11.62
   8 -12   1  130.91    8.46
   8 -12   1  126.18    9.09
 -12   4   1  126.79    9.62
  13  -5  -1    2.02    0.31
  -5  -8  -1    1.62    0.25
  -8  13  -1    1.49    0.44
  -8  13  -1    2.06    0.42
 -13   5   1    1.66    0.31
   8 -13   1    1.77    0.31
  -6  -8  -1    2.70    0.30
  -8  14  -1    2.51    0.47
  14  -6  -1    2.31    0.35
  -8  14  -1    2.89    0.54
 -14   6   1    1.39    0.33
   8 -14   1    1.34    0.33
  -7  -8  -1    6.90    0.61
  15  -7  -1    6.50    0.62
  -8  15  -1    7.45    0.86
  -8  15  -1    7.19    0.94
 -15   7   1    5.59    0.64
   8 -15   1    5.49    0.62
  -8  16  -1    2.67    0.61
  -8  16  -1    2.32    0.53
  16  -8  -1    2.89    0.45
  -8  -8  -1    2.55    0.36
 -16   8   1    2.86    0.42
  -8  17  -1    4.41    0.72
  17  -9  -1    5.01    0.57
  -9  -8  -1    4.62    0.51
  16  -9  -1   11.61    1.02
  -7  16  -1   12.00    1.35
  -9  -7  -1   12.50    1.07
 -16   9   1   14.73    1.13
  -6  15  -1   18.79    1.93
  15  -9  -1   17.96    1.36
  -9  -6  -1   19.36    1.49
  -6  15  -1   19.25    1.85
 -15   9   1   18.40    1.53
   6 -15   1   18.06    1.42
  -9  -5  -1   24.98    1.84
  -5  14  -1   26.14    2.27
   5 -14   1   24.14    1.76
   9   5   1   21.50    1.60
 -14   9   1   21.75    1.84
  -4  13  -1    2.12    0.43
  -9  -4  -1    2.05    0.33
   4 -13   1    2.15    0.34
   4 -13   1    2.16    0.32
 -13   9   1    1.98    0.33
   9   4   1    2.35    0.28
  -9  -3  -1   30.45    2.37
  -3  12  -1   32.99    2.91
   3 -12   1   30.10    2.37
   9   3   1   30.97    2.09
   3 -12   1   31.30    2.26
  11  -9  -1   27.39    1.98
  -9  -2  -1   27.14    1.84
   2 -11   1   21.52    1.82
   9   2   1   20.94    1.61
   2 -11   1   22.14    1.75
   9   1   1   12.48    0.92
   1 -10   1   13.27    1.03
   1 -10   1   12.79    0.99
   0   9  -1   66.52    5.53
   9  -9  -1   63.78    5.56
  -9   0  -1   69.95    5.20
   0  -9   1   71.23    5.18
   9   0   1   70.39    5.58
   9   0   1   70.07    4.56
   0  -9   1   73.92    5.55
   8  -9  -1   32.49    2.48
   1   8  -1   31.91    2.44
  -9   1  -1   31.49    2.49
   9  -1   1   29.38    2.04
  -1  -8   1   29.02    2.29
   9  -1   1   28.93    2.48
  -1  -8   1   29.05    2.46
   7  -9  -1    0.96    0.21
  -9   2  -1    0.65    0.21
   2   7  -1    1.00    0.17
   7  -9  -1    0.75    0.17
  -2  -7   1    1.96    0.21
   9  -2   1    1.96    0.23
   6  -9  -1   19.84    1.70
  -9   3  -1   18.34    1.72
   3   6  -1   20.46    1.70
   6  -9  -1   20.18    1.71
  -3  -6   1   21.32    1.60
   9  -3   1   21.75    1.44
  -3  -6   1   22.73    1.72
   9  -3   1   22.69    1.73
  -9   4  -1   54.62    5.60
  -9   4  -1   52.61    4.76
   5  -9  -1   52.60    4.74
   4   5  -1   55.00    4.75
   5  -9  -1   51.39    4.75
  -4  -5   1   66.51    4.44
   9  -4   1   69.17    3.93
  -4  -5   1   66.99    4.77
   9  -4   1   66.80    4.77
   4  -9  -1   59.99    3.68
  -9   5  -1   57.52    4.21
   5   4  -1   55.51    4.20
  -9   5  -1   55.81    4.96
   4  -9  -1   59.52    4.19
  -5  -4   1   44.84    4.20
   9  -5   1   46.74    3.46
   9  -5   1   44.05    4.20
  -5  -4   1   46.33    3.91
   3  -9  -1   19.41    1.35
  -9   6  -1   17.88    1.87
  -9   6  -1   17.92    1.77
  -9   6  -1   18.10    1.55
   6   3  -1   18.28    1.56
   3  -9  -1   18.31    1.54
  -6  -3   1   20.09    1.58
   9  -6   1   19.13    1.56
  -6  -3   1   18.83    1.45
   9  -6   1   20.43    1.31
  -2   9   1    9.90    0.82
   9  -7   1    9.48    0.75
   9  -7   1    9.05    0.83
  -7  -2   1   10.41    0.87
  -7  -2   1    9.65    0.80
  -9   8  -1   21.25    2.44
  -9   8  -1   22.12    2.33
   1  -9  -1   22.19    2.03
  -9   8  -1   20.72    2.02
   8   1  -1   22.24    2.05
   9  -8   1   28.03    1.72
  -1   9   1   27.57    2.03
   9  -8   1   27.64    2.03
  -8  -1   1   30.00    2.09
  -8  -1   1   29.38    1.93
   0  -9  -1   52.66    4.17
   9   0  -1   49.42    4.18
  -9   9  -1   53.25    4.72
  -9   9  -1   54.40    4.93
  -9   9  -1   51.51    4.16
   9  -9   1   51.60    4.15
   9  -9   1   52.76    3.44
   0   9   1   49.49    4.16
  -9   0   1   52.12    3.90
  10  -1  -1    6.85    0.57
  -9  10  -1    6.67    0.80
  -9  10  -1    6.97    0.88
  -1  -9  -1    7.25    0.65
  -9  11  -1   10.72    1.42
  11  -2  -1   11.34    0.98
  -9  11  -1   11.70    1.36
 -11   2   1   15.33    1.11
   2   9   1   15.86    1.16
   9 -11   1   15.53    1.00
  12  -3  -1   21.35    1.51
  -9  12  -1   20.35    2.06
  -9  12  -1   20.89    2.18
   9 -12   1   22.44    1.50
 -12   3   1   22.54    1.70
  -9  13  -1    0.24    0.32
  -9  13  -1    0.00    0.39
  13  -4  -1   -0.19    0.23
 -13   4   1    0.46    0.26
   9 -13   1    0.76    0.26
   9 -13   1    0.64    0.27
  -9  14  -1   22.76    2.26
  14  -5  -1   21.74    1.58
  -9  14  -1   23.63    2.16
   9 -14   1   20.99    1.66
 -14   5   1   21.86    1.76
  -9  15  -1   16.75    1.80
  -9  15  -1   16.65    1.89
  15  -6  -1   15.86    1.32
   9 -15   1   20.27    1.41
 -15   6   1   20.41    1.48
  16  -7  -1    8.73    0.86
  -9  16  -1    8.93    1.09
  -9  16  -1   10.34    1.19
 -16   7   1   10.10    0.93
  17  -8  -1    0.10    0.35
  -9  17  -1    0.10    0.40
 -17   8   1    1.61    0.39
  -9  18  -1    5.66    0.80
  18  -9  -1    4.93    0.63
 -18   9   1    6.08    0.67
  -9  19  -1    1.31    0.53
  19 -10  -1    1.73    0.45
 -19  10   1    3.23    0.50
  18 -10  -1    3.67    0.53
 -10  -8  -1    4.54    0.47
  -8  18  -1    3.11    0.63
 -18  10   1    2.27    0.49
 -10  -7  -1    2.06    0.38
  17 -10  -1    1.15    0.41
  -7  17  -1    2.11    0.52
 -17  10   1    2.49    0.42
  -6  16  -1   11.35    1.23
 -10  -6  -1   12.42    0.99
  16 -10  -1   10.87    0.97
 -16  10   1   10.36    1.00
 -10  -5  -1    6.30    0.67
  15 -10  -1    5.76    0.63
  -5  15  -1    6.29    0.85
 -15  10   1    9.21    0.72
 -10  -4  -1    0.17    0.26
  -4  14  -1    0.36    0.33
  10   4   1   -0.04    0.20
   4 -14   1   -0.16    0.23
 -14  10   1    0.11    0.26
   3 -13   1    4.20    0.45
  10   3   1    3.95    0.38
   3 -13   1    3.81    0.43
  -2  12  -1   11.84    1.19
 -10  -2  -1   10.87    0.96
   2 -12   1   11.42    0.92
  10   2   1   11.30    0.84
   2 -12   1   11.54    0.95
 -10  -1  -1    0.10    0.22
  11 -10  -1    0.22    0.19
   1 -11   1    0.10    0.18
  10   1   1    0.09    0.19
 -10   0  -1   15.14    1.34
  10 -10  -1   15.57    1.42
  10   0   1   18.39    1.20
   0 -10   1   18.61    1.32
   9 -10  -1   17.57    1.29
   9 -10  -1   16.38    1.26
   1   9  -1   17.38    1.25
  -1  -9   1   13.88    1.26
  10  -1   1   14.45    1.08
  -9  10   1   13.04    1.53
  -1  -9   1   12.83    1.18
   8 -10  -1   10.47    0.89
   2   8  -1   10.88    0.86
   8 -10  -1   10.45    0.87
  10  -2   1   10.21    0.91
  -2  -8   1   10.16    0.88
  -2  -8   1    9.50    0.82
  10  -2   1    9.46    0.76
  -8  10   1    9.46    1.07
 -10   3  -1   25.33    2.03
   7 -10  -1   26.34    2.01
   3   7  -1   26.83    2.00
   7 -10  -1   24.87    1.99
  10  -3   1   22.43    1.67
  -3  -7   1   23.73    1.87
  10  -3   1   22.77    2.02
  -7  10   1   23.84    2.28
  -3  -7   1   24.17    2.01
 -10   4  -1    1.73    0.28
   4   6  -1    1.66    0.25
   6 -10  -1    1.51    0.26
   6 -10  -1    1.66    0.23
  -4  -6   1    3.08    0.30
 -10   5  -1    0.01    0.18
 -10   5  -1   -0.04    0.29
   5 -10  -1   -0.20    0.13
   5 -10  -1    0.08    0.17
   5 -10  -1    0.00    0.13
   5   5  -1   -0.11    0.16
  10  -5   1    0.38    0.21
  -5  10   1   -0.12    0.16
  -5  -5   1   -0.08    0.18
  10  -5   1   -0.03    0.17
  -5  -5   1   -0.20    0.15
 -10   6  -1    2.83    0.49
   4 -10  -1    3.15    0.31
   4 -10  -1    3.15    0.34
   6   4  -1    3.67    0.37
 -10   6  -1    3.02    0.36
  -6  -4   1    3.13    0.34
  10  -6   1    2.78    0.34
  -6  -4   1    2.63    0.37
  10  -6   1    3.04    0.36
 -10   7  -1   29.75    2.92
 -10   7  -1   29.93    2.45
   3 -10  -1   31.30    2.14
 -10   7  -1   30.31    2.78
   7   3  -1   29.67    2.46
   3 -10  -1   30.27    2.44
  10  -7   1   31.02    2.05
  -7  -3   1   30.37    2.47
  -7  -3   1   28.70    2.29
  10  -7   1   29.59    2.45
   2 -10  -1    7.50    0.66
 -10   8  -1    7.06    0.81
 -10   8  -1    7.40    0.89
 -10   8  -1    7.55    0.68
   8   2  -1    7.39    0.69
  10  -8   1    7.11    0.66
  -2  10   1    7.46    0.65
  10  -8   1    7.49    0.63
  -8  -2   1    7.12    0.65
 -10   9  -1    6.69    0.62
   1 -10  -1    7.23    0.62
 -10   9  -1    6.63    0.77
 -10   9  -1    6.30    0.85
  10   0  -1   21.13    1.52
 -10  10  -1   22.46    2.23
 -10  10  -1   23.68    2.13
   0 -10  -1   23.24    1.84
  10 -10   1   21.97    1.56
 -10   0   1   22.28    1.74
   0  10   1   21.68    1.83
 -10  11  -1    2.30    0.48
 -10  11  -1    1.67    0.38
  11  -1  -1    2.34    0.28
 -11   1   1    1.30    0.30
  10 -11   1    1.31    0.28
   1  10   1    1.73    0.26
  12  -2  -1   21.54    1.45
 -10  12  -1   20.78    2.09
 -10  12  -1   21.20    2.00
  10 -12   1   20.45    1.46
 -12   2   1   19.69    1.64
 -10  13  -1    1.50    0.47
  13  -3  -1    1.69    0.29
 -10  13  -1    1.84    0.40
 -13   3   1    0.58    0.27
  10 -13   1    1.09    0.29
  10 -13   1    1.16    0.29
 -10  14  -1    1.10    0.47
 -10  14  -1    1.18    0.39
  14  -4  -1    1.32    0.31
  10 -14   1    0.95    0.31
 -14   4   1    1.07    0.31
  10 -14   1    1.21    0.29
 -10  15  -1    7.22    0.85
 -10  15  -1    7.66    0.95
  15  -5  -1    8.23    0.64
  10 -15   1    4.63    0.59
 -15   5   1    5.19    0.65
 -10  16  -1    9.15    1.20
 -10  16  -1    8.71    1.11
  16  -6  -1    9.78    0.88
 -16   6   1   10.69    0.93
  10 -16   1   10.77    0.88
  17  -7  -1    0.84    0.38
 -10  17  -1    0.32    0.49
 -10  17  -1    0.75    0.44
 -17   7   1    0.97    0.36
 -10  18  -1    1.47    0.51
  18  -8  -1    1.36    0.42
 -18   8   1    1.16    0.42
  19  -9  -1    3.56    0.53
 -10  19  -1    3.88    0.69
 -19   9   1    3.03    0.53
 -10  20  -1    0.23    0.48
  20 -10  -1   -0.09    0.43
 -20  10   1    0.58    0.42
 -10  21  -1    5.67    0.88
  21 -11  -1    6.07    0.72
 -21  11   1    7.30    0.78
  20 -11  -1    9.51    0.94
  -9  20  -1   11.00    1.25
 -20  11   1    9.70    0.99
 -11  -8  -1    3.07    0.46
  -8  19  -1    3.71    0.65
  19 -11  -1    3.17    0.53
 -19  11   1    4.11    0.55
  -7  18  -1    1.57    0.50
 -11  -7  -1    1.00    0.34
  18 -11  -1    1.44    0.46
 -18  11   1    1.59    0.40
  -6  17  -1   10.12    1.14
  17 -11  -1    9.31    0.93
 -11  -6  -1    9.73    0.93
 -17  11   1   10.97    0.96
 -11  -5  -1    8.11    0.74
  16 -11  -1    6.37    0.67
  -5  16  -1    7.12    0.91
 -16  11   1    7.40    0.76
 -11  -4  -1   10.14    0.85
  -4  15  -1   10.01    1.04
 -15  11   1    8.71    0.82
  11   4   1    7.39    0.70
 -11  -3  -1    3.93    0.46
  -3  14  -1    4.10    0.58
   3 -14   1    3.91    0.44
  11   3   1    3.14    0.37
 -14  11   1    3.43    0.45
  -2  13  -1    6.27    0.82
 -11  -2  -1    6.82    0.69
  11   2   1    6.54    0.58
   2 -13   1    6.78    0.64
 -11  -1  -1    7.65    0.68
  11   1   1    6.72    0.61
   1 -12   1    7.01    0.64
 -11   0  -1    9.51    0.90
  11   0   1   10.61    0.79
   0 -11   1   10.54    0.85
  10 -11  -1    0.07    0.20
 -11   1  -1    0.19    0.25
  10 -11  -1    0.21    0.16
  -1 -10   1    0.30    0.18
  11  -1   1   -0.05    0.19
   9 -11  -1   26.98    2.02
   9 -11  -1   26.88    2.00
   2   9  -1   27.77    2.00
  -9  11   1   22.63    2.38
  -2  -9   1   22.35    2.01
  -2  -9   1   22.39    1.88
  11  -2   1   21.54    1.68
  -8  11   1    0.89    0.30
  -3  -8   1    0.95    0.21
  -8  11   1    1.06    0.33
  11  -3   1    0.93    0.23
  -3  -8   1    1.08    0.24
   4   7  -1    9.02    0.72
   7 -11  -1    8.35    0.71
   7 -11  -1    8.69    0.74
  -7  11   1    7.45    0.86
  11  -4   1    7.38    0.74
  -4  -7   1    8.20    0.70
  11  -4   1    7.09    0.66
  -4  -7   1    7.99    0.74
   5   6  -1   19.93    1.82
 -11   5  -1   18.84    1.83
   6 -11  -1   20.11    1.80
   6 -11  -1   20.34    1.59
   6 -11  -1   20.50    1.82
  11  -5   1   24.13    1.84
  -5  -6   1   24.97    1.71
  11  -5   1   25.53    1.55
  -5  -6   1   25.28    1.85
  -6  11   1   23.66    2.07
 -11   6  -1   36.17    3.22
   5 -11  -1   36.92    2.71
   5 -11  -1   36.70    2.36
   5 -11  -1   37.01    2.69
   6   5  -1   35.78    2.71
 -11   6  -1   35.16    2.71
  -5  11   1   28.86    3.04
  11  -6   1   29.95    2.70
  -6  -5   1   29.53    2.71
  11  -6   1   29.67    2.25
  -6  -5   1   29.06    2.51
   7   4  -1   15.30    1.30
 -11   7  -1   14.01    1.29
   4 -11  -1   16.01    1.12
 -11   7  -1   15.08    1.59
   4 -11  -1   14.84    1.27
  11  -7   1   15.34    1.30
  11  -7   1   15.67    1.12
  -7  -4   1   15.96    1.22
  -4  11   1   15.09    1.07
 -11   8  -1    1.67    0.37
   3 -11  -1    2.11    0.26
 -11   8  -1    1.85    0.29
 -11   8  -1    1.78    0.43
  -8  -3   1    1.79    0.28
  11  -8   1    1.80    0.27
  -3  11   1    1.54    0.23
  11  -8   1    1.75    0.30
 -11   9  -1   11.66    1.20
 -11   9  -1   11.22    1.49
 -11   9  -1   11.53    1.40
   2 -11  -1   12.03    1.19
  -9  -2   1   15.84    1.16
  -2  11   1   16.04    1.00
  11  -9   1   17.90    1.09
  -2  11   1   16.15    1.20
  11  -9   1   16.90    1.22
 -11  10  -1    1.89    0.39
   1 -11  -1    2.00    0.27
 -11  10  -1    1.85    0.45
  10   1  -1    1.90    0.24
  11 -10   1    1.48    0.32
  -1  11   1    1.38    0.24
 -10  -1   1    1.34    0.28
  11   0  -1    8.11    0.60
 -11  11  -1    7.66    0.83
 -11  11  -1    7.84    0.92
  11 -11   1    5.96    0.62
 -11   0   1    6.09    0.68
 -11  12  -1   14.36    1.51
  12  -1  -1   15.47    1.00
 -11  12  -1   14.50    1.40
 -12   1   1   12.11    1.13
  11 -12   1   11.86    1.01
  13  -2  -1    4.83    0.45
 -11  13  -1    4.05    0.64
 -11  13  -1    4.27    0.69
  11 -13   1    4.81    0.48
 -13   2   1    4.19    0.51
  14  -3  -1    8.50    0.77
 -11  14  -1    7.89    1.14
 -11  14  -1    7.63    1.03
 -14   3   1    9.83    0.85
  11 -14   1   10.68    0.82
  11 -14   1    9.00    0.77
 -11  15  -1   10.60    1.35
 -11  15  -1    9.47    1.26
  15  -4  -1   10.51    0.94
 -15   4   1   12.52    1.04
  11 -15   1   13.00    0.98
  11 -15   1   12.63    0.92
 -11  16  -1    4.05    0.71
 -11  16  -1    4.13    0.67
  16  -5  -1    3.31    0.47
 -16   5   1    3.43    0.50
  11 -16   1    3.65    0.47
  17  -6  -1   23.11    1.62
 -11  17  -1   21.04    2.18
 -11  17  -1   22.10    2.28
 -17   6   1   21.59    1.78
  18  -7  -1    2.82    0.50
 -11  18  -1    3.10    0.64
 -18   7   1    3.85    0.53
 -11  19  -1    3.75    0.69
  19  -8  -1    4.04    0.56
 -19   8   1    4.55    0.61
  20  -9  -1    4.81    0.60
 -11  20  -1    4.09    0.73
  21 -10  -1    6.22    0.71
 -11  21  -1    6.49    0.94
 -21  10   1    7.54    0.80
 -11  22  -1    0.38    0.51
  22 -11  -1    0.75    0.47
 -22  11   1   -0.24    0.45
  23 -12  -1    0.31    0.46
 -23  12   1    0.36    0.45
 -10  22  -1    0.15    0.50
  22 -12  -1    0.59    0.46
 -22  12   1    0.92    0.49
  -9  21  -1    7.61    0.99
  21 -12  -1    6.78    0.78
 -21  12   1    6.33    0.79
 -12  -8  -1    3.33    0.47
  20 -12  -1    2.42    0.54
  -8  20  -1    2.23    0.60
 -12  -7  -1    0.36    0.34
  -7  19  -1   -0.05    0.44
  19 -12  -1    0.32    0.43
 -19  12   1   -0.17    0.35
  -6  18  -1   11.96    1.31
  18 -12  -1   11.40    1.03
 -12  -6  -1   12.70    1.07
 -18  12   1   11.10    1.07
 -12  -5  -1   10.44    0.97
  17 -12  -1    8.31    0.90
  -5  17  -1    9.82    1.17
 -17  12   1   13.62    1.01
  16 -12  -1   19.15    1.41
 -12  -4  -1   18.87    1.52
  -4  16  -1   18.20    1.86
 -15  12   1    4.00    0.48
  12   3   1    4.09    0.41
 -12  -2  -1   10.53    0.99
  -2  14  -1   10.73    1.21
  12   2   1   12.71    0.87
  -1  13  -1   21.77    2.17
 -12  -1  -1   21.47    1.81
   1 -13   1   23.89    1.77
  12   1   1   23.45    1.58
 -12   0  -1    5.19    0.63
  12   0   1    6.41    0.58
   0 -12   1    6.37    0.58
 -12   1  -1    6.84    0.67
  -1 -11   1    6.10    0.61
  12  -1   1    7.42    0.61
 -12   2  -1   12.18    1.03
  12  -2   1   12.66    0.92
  -2 -10   1   11.75    0.98
   9 -12  -1   30.20    2.47
   9 -12  -1   32.88    2.46
  12  -3   1   30.25    2.06
  -9  12   1   28.59    2.91
  -3  -9   1   29.05    2.30
   4   8  -1   86.92    6.99
   8 -12  -1   84.42    6.98
   8 -12  -1   89.76    7.00
  -4  -8   1   89.35    7.01
  -8  12   1   89.37    7.89
  12  -4   1   84.07    5.76
  -4  -8   1   88.23    6.53
   7 -12  -1   16.76    1.53
   7 -12  -1   16.29    1.35
   7 -12  -1   15.81    1.51
   5   7  -1   15.67    1.53
  12  -5   1   20.43    1.33
  -5  -7   1   20.97    1.45
  -5  -7   1   22.32    1.57
  -7  12   1   22.05    1.77
   6 -12  -1   10.90    0.91
   6 -12  -1   11.35    0.94
  -6  -6   1   10.28    0.88
  12  -6   1   10.80    0.84
  -6  12   1    9.74    1.07
   5 -12  -1   24.85    1.89
 -12   7  -1   25.25    2.32
 -12   7  -1   23.20    1.92
   5 -12  -1   24.75    1.92
  12  -7   1   21.84    1.92
  12  -7   1   21.83    1.62
  -5  12   1   21.12    2.16
  -7  -5   1   22.09    1.80
 -12   8  -1  131.92   12.50
 -12   8  -1  132.14   10.62
   4 -12  -1  138.23   10.61
  -8  -4   1  129.97    9.91
  12  -8   1  132.05    8.73
  12  -8   1  134.01   10.62
  -4  12   1  133.32   11.93
 -12   9  -1   20.25    1.80
 -12   9  -1   20.74    2.18
  12  -9   1   23.21    1.54
  -9  -3   1   21.92    1.70
  -3  12   1   22.58    1.48
 -12  10  -1   23.05    2.02
 -12  10  -1   21.21    2.12
  12 -10   1   20.14    1.48
 -10  -2   1   19.35    1.64
  11   1  -1   14.29    0.97
 -12  11  -1   16.32    1.50
 -12  11  -1   15.23    1.39
  12 -11   1   11.23    1.04
 -11  -1   1   10.86    1.11
  12   0  -1    5.37    0.53
 -12  12  -1    5.07    0.72
 -12  12  -1    6.30    0.84
 -12  13  -1   21.67    2.25
  13  -1  -1   22.26    1.55
 -12  13  -1   21.53    2.14
  12 -13   1   23.13    1.58
 -13   1   1   22.21    1.77
 -12  14  -1   14.01    1.43
  14  -2  -1   15.50    1.04
 -12  14  -1   15.67    1.55
 -14   2   1   11.69    1.18
  12 -14   1   12.41    1.07
  15  -3  -1    4.47    0.50
 -12  15  -1    4.00    0.69
 -12  15  -1    4.82    0.77
  12 -15   1    7.10    0.59
 -12  16  -1   28.81    2.55
  16  -4  -1   29.11    1.86
 -12  16  -1   28.75    2.66
  12 -16   1   23.29    1.85
 -16   4   1   23.93    2.11
  12 -16   1   23.90    1.96
  17  -5  -1    9.95    0.89
 -12  17  -1    9.80    1.18
 -12  17  -1   10.67    1.26
 -17   5   1   10.23    0.98
 -12  18  -1   11.03    1.30
  18  -6  -1    9.61    0.92
 -12  18  -1    9.34    1.20
 -18   6   1   12.04    1.03
 -12  19  -1    0.62    0.47
  19  -7  -1    0.77    0.40
 -19   7   1    0.30    0.44
 -12  20  -1    7.74    0.99
  20  -8  -1    7.87    0.74
 -20   8   1    5.31    0.78
  21  -9  -1    2.03    0.50
 -12  21  -1    1.56    0.58
 -21   9   1    2.49    0.55
  22 -10  -1    1.89    0.50
 -12  22  -1    1.34    0.58
 -22  10   1    0.62    0.51
  23 -11  -1    1.30    0.49
 -23  11   1    1.86    0.53
  24 -12  -1    3.93    0.63
 -24  12   1    3.96    0.63
  24 -13  -1    0.57    0.46
 -24  13   1    1.26    0.49
  23 -13  -1    0.72    0.48
 -23  13   1    1.10    0.49
  22 -13  -1    4.64    0.62
 -22  13   1    3.03    0.58
  21 -13  -1    2.79    0.58
 -21  13   1    4.09    0.58
  20 -13  -1    0.32    0.42
  -7  20  -1    0.07    0.45
 -13  -7  -1   -0.11    0.33
 -20  13   1    0.44    0.42
  19 -13  -1    5.24    0.63
 -13  -6  -1    4.56    0.56
  -6  19  -1    4.78    0.73
 -19  13   1    2.31    0.52
  18 -13  -1    6.28    0.70
 -13  -5  -1    6.84    0.75
  -5  18  -1    6.61    0.88
  17 -13  -1    6.30    0.70
  -4  17  -1    6.59    0.89
 -13  -4  -1    8.20    0.78
  -3  16  -1    5.81    0.77
  16 -13  -1    5.86    0.61
 -13  -3  -1    6.63    0.66
  13   3   1    4.24    0.50
 -13  -2  -1   13.52    1.09
  -2  15  -1   12.81    1.30
  13   2   1   10.63    0.93
  -1  14  -1    0.34    0.36
 -13  -1  -1    0.46    0.30
  13   1   1    0.69    0.26
   0 -13   1   35.04    2.61
  13   0   1   33.37    2.32
 -13   1  -1   21.76    1.85
  13  -1   1   23.60    1.62
  -1 -12   1   24.26    1.81
 -13   2  -1    7.09    0.74
  -2 -11   1    6.78    0.66
  13  -2   1    7.21    0.62
  -3 -10   1    3.89    0.41
  13  -3   1    3.51    0.41
  13  -4   1    2.00    0.33
  -4  -9   1    2.54    0.32
  -8  13   1    0.68    0.31
  -5  -8   1    1.02    0.23
  13  -5   1    0.68    0.26
  -7  13   1    3.21    0.47
  13  -6   1    2.69    0.38
  -6  -7   1    3.09    0.36
  -7  -6   1    6.25    0.63
  13  -7   1    6.81    0.66
  -6  13   1    6.28    0.74
 -13   8  -1    1.38    0.48
  13  -8   1    1.86    0.33
  -5  13   1    1.93    0.37
  -8  -5   1    1.72    0.31
 -13   9  -1    0.26    0.40
  -9  -4   1    0.66    0.25
  13  -9   1    0.58    0.27
 -13  10  -1    1.75    0.48
  13 -10   1    0.89    0.30
 -10  -3   1    1.24    0.30
 -13  11  -1    4.68    0.69
  13 -11   1    4.01    0.47
 -11  -2   1    3.76    0.47
 -13  12  -1   22.76    2.31
 -13  12  -1   23.54    2.21
 -12  -1   1   21.96    1.80
  13 -12   1   22.72    1.63
 -13  13  -1   22.46    2.20
  13   0  -1   23.34    1.48
 -13  13  -1   23.00    2.07
 -13   0   1   18.59    1.68
  13 -13   1   17.79    1.51
 -13  14  -1    0.45    0.50
 -13  14  -1   -0.21    0.36
  14  -1  -1    0.11    0.26
  13 -14   1    0.17    0.32
 -14   1   1    0.06    0.31
  15  -2  -1    8.11    0.75
 -13  15  -1    8.02    1.05
 -13  15  -1    7.63    1.12
 -15   2   1   12.01    0.94
 -13  16  -1    6.08    0.93
 -13  16  -1    5.56    0.85
  16  -3  -1    5.74    0.60
  13 -16   1    8.07    0.68
 -13  17  -1    0.34    0.52
 -13  17  -1    0.21    0.44
  17  -4  -1    0.26    0.32
 -17   4   1    0.71    0.40
 -13  18  -1    7.58    1.03
 -13  18  -1    6.70    0.94
  18  -5  -1    7.00    0.68
 -18   5   1    6.34    0.78
  19  -6  -1    2.90    0.51
 -13  19  -1    3.18    0.69
 -19   6   1    5.69    0.66
 -13  20  -1    1.74    0.58
  20  -7  -1    2.10    0.47
 -20   7   1    1.52    0.49
  21  -8  -1    4.86    0.61
 -13  21  -1    3.80    0.77
 -21   8   1    4.74    0.68
  22  -9  -1    2.74    0.54
 -22   9   1    3.64    0.62
  23 -10  -1    1.10    0.48
 -23  10   1    0.65    0.47
  24 -11  -1    2.22    0.52
 -24  11   1    1.43    0.50
  23 -14  -1    3.81    0.60
  22 -14  -1    1.48    0.52
 -14  -7  -1    0.67    0.38
  21 -14  -1    0.63    0.45
  20 -14  -1    2.89    0.57
 -14  -6  -1    2.98    0.50
  19 -14  -1    1.02    0.47
 -14  -5  -1    0.57    0.39
  18 -14  -1    9.54    0.91
 -14  -4  -1    9.65    0.96
  17 -14  -1    1.47    0.43
 -14  -3  -1    2.61    0.45
 -14  -2  -1    1.16    0.40
  14   2   1    2.16    0.34
 -14  -1  -1    1.92    0.43
  14   1   1    2.02    0.34
 -14   0  -1   12.70    1.09
  14   0   1   11.69    0.95
 -14   1  -1    0.37    0.33
  14  -1   1    0.51    0.28
  -1 -13   1    0.60    0.24
 -14   2  -1   11.65    1.13
  14  -2   1   13.00    0.99
  -2 -12   1   13.41    1.06
 -14   3  -1    4.02    0.48
  14  -3   1    3.86    0.43
  -3 -11   1    2.92    0.39
 -14   4  -1    0.47    0.30
  -4 -10   1    0.34    0.23
  14  -4   1    0.13    0.26
  -5  -9   1   22.13    1.79
  14  -5   1   24.16    1.63
  14  -6   1    3.66    0.44
  -8  14   1    4.06    0.55
  -6  -8   1    3.32    0.41
  14  -7   1    2.40    0.36
  -7  14   1    2.36    0.42
  -7  -7   1    1.87    0.31
  14  -8   1    1.49    0.33
  -6  14   1    1.57    0.35
  -8  -6   1    1.37    0.29
  14  -9   1   22.95    1.65
  -9  -5   1   23.62    1.83
 -14  10  -1    1.47    0.49
  14 -10   1    0.94    0.31
 -10  -4   1    0.51    0.27
 -14  11  -1    8.58    1.20
 -11  -3   1   10.80    0.90
  14 -11   1   10.32    0.84
  14 -12   1   11.31    0.91
 -12  -2   1   10.97    0.99
 -14  13  -1    0.46    0.50
 -13  -1   1   -0.12    0.28
  14 -13   1    0.09    0.32
 -14  14  -1   14.28    1.75
  14 -14   1   17.17    1.23
 -14   0   1   16.12    1.33
  15  -1  -1    2.15    0.37
 -14  15  -1    1.71    0.53
 -14  15  -1    2.01    0.59
 -15   1   1    2.77    0.45
  14 -15   1    3.04    0.44
 -14  16  -1    1.19    0.51
 -14  16  -1    1.41    0.55
  16  -2  -1    1.62    0.34
 -16   2   1    0.69    0.38
  14 -16   1    1.23    0.37
  14 -16   1    1.00    0.37
 -14  17  -1    7.89    1.01
  17  -3  -1    7.94    0.71
 -14  17  -1    8.24    1.00
 -17   3   1    4.66    0.73
  14 -17   1    6.47    0.69
 -14  18  -1    4.00    0.76
 -14  18  -1    3.80    0.79
  18  -4  -1    4.24    0.54
 -18   4   1    6.74    0.69
 -14  19  -1    0.59    0.54
  19  -5  -1    0.46    0.38
 -19   5   1    0.58    0.46
  20  -6  -1    1.90    0.50
 -20   6   1    4.60    0.63
  21  -7  -1    3.04    0.53
 -21   7   1    2.69    0.58
  22  -8  -1    0.32    0.44
 -22   8   1    1.10    0.48
  23  -9  -1    4.94    0.65
 -23   9   1    4.66    0.67
  23 -15  -1    2.22    0.53
 -15  -7  -1    0.13    0.37
  22 -15  -1   -0.08    0.48
  21 -15  -1    4.54    0.62
 -15  -6  -1    3.55    0.56
  20 -15  -1    4.50    0.67
 -15  -5  -1    5.38    0.68
  19 -15  -1    1.10    0.47
 -15  -4  -1    1.43    0.44
  18 -15  -1    5.59    0.69
 -15  -3  -1    7.07    0.73
  17 -15  -1   11.31    1.03
 -15  -2  -1   12.55    1.11
 -15  -1  -1    0.39    0.38
  15   1   1   -0.18    0.30
 -15   0  -1   13.16    1.06
  15   0   1    9.13    0.88
 -15   1  -1    2.33    0.44
  15  -1   1    1.54    0.33
 -15   2  -1   13.13    1.02
  15  -2   1   10.06    0.90
  -2 -13   1   10.05    0.93
  15  -3   1    3.63    0.44
  -3 -12   1    3.79    0.43
 -15   4  -1   10.41    0.87
  -4 -11   1    8.21    0.79
  15  -4   1    8.03    0.79
 -15   5  -1    7.31    0.87
  -5 -10   1    9.06    0.78
  15  -5   1   10.11    0.81
  -6  -9   1   19.27    1.52
  15  -6   1   18.95    1.39
  -8  15   1   10.37    1.08
  15  -7   1   10.08    0.84
  -7  -8   1    9.56    0.86
  -8  -7   1    5.84    0.60
  15  -8   1    5.78    0.57
  -7  15   1    6.01    0.74
  -9  -6   1   20.88    1.68
  15  -9   1   21.46    1.54
  15 -10   1    4.82    0.53
 -10  -5   1    4.46    0.52
 -15  11  -1    8.92    1.37
  15 -11   1   12.39    0.97
 -11  -4   1   13.41    1.04
 -15  12  -1    4.77    0.91
  15 -12   1    8.18    0.74
 -12  -3   1    7.41    0.71
 -15  13  -1    8.41    1.26
 -13  -2   1   11.60    0.97
  15 -13   1   11.07    0.93
 -15  14  -1    1.86    0.64
 -14  -1   1    2.33    0.44
  15 -14   1    3.36    0.47
  15 -15   1   10.61    0.93
 -15   0   1   10.04    0.98
 -15  16  -1    0.73    0.59
  15 -16   1    0.71    0.38
 -16   1   1    0.36    0.37
  17  -2  -1   17.48    1.29
 -15  17  -1   17.71    1.90
  15 -17   1   16.41    1.32
 -17   2   1   16.26    1.47
  18  -3  -1    9.94    0.84
 -15  18  -1    8.07    1.17
  15 -18   1    8.93    0.81
 -18   3   1    7.11    0.88
 -15  19  -1    0.55    0.64
  19  -4  -1    0.97    0.40
 -19   4   1    0.27    0.45
  20  -5  -1   -0.08    0.39
 -20   5   1    1.07    0.45
  21  -6  -1    5.45    0.66
 -21   6   1    5.81    0.74
  22  -7  -1    0.12    0.43
 -22   7   1    0.83    0.48
  23  -8  -1    3.51    0.57
 -23   8   1    2.46    0.57
  23 -16  -1    1.80    0.54
 -16  -6  -1    2.22    0.50
  22 -16  -1    2.08    0.55
  21 -16  -1   -0.40    0.47
 -16  -5  -1    0.34    0.41
 -16  -4  -1    1.85    0.49
  20 -16  -1    1.69    0.50
 -16  -3  -1    0.80    0.43
  19 -16  -1    0.57    0.49
  18 -16  -1    0.45    0.42
 -16  -2  -1    0.01    0.39
  17 -16  -1    0.96    0.44
 -16  -1  -1    0.87    0.45
  16   1   1    1.20    0.36
 -16   0  -1   21.16    1.74
  16   0   1   19.99    1.48
 -16   1  -1    0.11    0.37
  16  -1   1   -0.48    0.29
 -16   2  -1    1.69    0.42
  16  -2   1    1.65    0.38
 -16   3  -1    6.81    0.66
  -3 -13   1    4.50    0.52
  16  -3   1    4.02    0.52
 -16   4  -1   20.42    1.94
  -4 -12   1   26.12    1.89
  16  -4   1   25.10    1.72
 -16   5  -1    7.56    0.81
  16  -5   1    6.97    0.67
  -5 -11   1    6.97    0.71
 -16   6  -1   11.81    0.98
  16  -6   1    9.33    0.87
  -6 -10   1   10.06    0.91
  -7  -9   1   14.43    1.18
  16  -7   1   13.77    1.12
  16  -8   1    2.51    0.43
  -8  16   1    2.43    0.48
  -8  -8   1    2.48    0.38
  -9  -7   1    9.84    0.87
  16  -9   1    9.08    0.83
 -10  -6   1   10.21    0.97
  16 -10   1   11.19    0.91
  16 -11   1    3.08    0.48
 -11  -5   1    3.47    0.48
  16 -12   1   24.11    1.73
 -12  -4   1   23.87    1.94
  16 -13   1    8.35    0.83
 -13  -3   1    9.40    0.88
 -16  14  -1    0.89    0.61
  16 -14   1    0.66    0.37
 -14  -2   1    0.35    0.35
 -16  15  -1    0.10    0.58
 -15  -1   1   -0.18    0.37
  16 -15   1   -0.17    0.37
 -16  16  -1   27.30    2.94
  16 -16   1   31.39    2.09
 -16   0   1   28.88    2.34
 -16  17  -1    0.07    0.57
 -17   1   1    0.91    0.44
  16 -17   1    0.51    0.40
 -16  18  -1    2.10    0.67
  16 -18   1    0.40    0.43
 -18   2   1    0.44    0.45
 -16  19  -1    2.06    0.72
 -19   3   1    1.72    0.52
  20  -4  -1    2.98    0.47
 -20   4   1    2.51    0.57
  21  -5  -1    1.64    0.42
 -21   5   1    0.46    0.48
  22  -6  -1    3.09    0.51
 -22   6   1    2.07    0.55
  23  -7  -1    2.05    0.51
 -23   7   1    2.41    0.57
  23 -17  -1   -0.17    0.46
 -17  -6  -1    0.29    0.42
  22 -17  -1   -0.35    0.48
 -17  -5  -1   -0.18    0.40
  21 -17  -1   10.71    1.04
 -17  -4  -1   10.58    1.07
 -17  -3  -1    4.77    0.66
  20 -17  -1    3.99    0.65
 -17  -2  -1    0.36    0.44
  19 -17  -1    0.44    0.48
  18 -17  -1    1.02    0.48
 -17  -1  -1    1.60    0.48
 -17   0  -1    1.26    0.52
  17 -17  -1    1.96    0.47
  17   0   1    3.13    0.45
 -17   1  -1    0.98    0.43
  17  -1   1    0.94    0.37
 -17   2  -1   12.21    1.16
  17  -2   1   12.28    1.01
 -17   3  -1    1.79    0.48
  17  -3   1    4.22    0.48
 -17   4  -1    5.79    0.71
  17  -4   1    6.32    0.63
  -4 -13   1    6.11    0.67
 -17   5  -1   10.95    1.19
  -5 -12   1   13.24    1.07
  17  -5   1   13.00    1.05
 -17   6  -1    9.97    0.99
  17  -6   1   10.47    0.90
  -6 -11   1   10.55    0.93
 -17   7  -1    1.88    0.44
  17  -7   1    1.58    0.40
  -7 -10   1    1.97    0.35
  -8  -9   1    1.60    0.35
  17  -8   1    1.65    0.39
  17  -9   1    1.40    0.38
  -9  -8   1    1.52    0.35
 -10  -7   1    0.70    0.31
  17 -10   1    0.37    0.34
  17 -11   1   20.69    1.55
 -11  -6   1   21.56    1.72
 -12  -5   1    9.54    0.95
  17 -12   1   10.16    0.89
  17 -13   1    1.02    0.42
 -13  -4   1    0.29    0.37
 -14  -3   1    5.04    0.63
  17 -14   1    4.66    0.61
  17 -15   1   16.09    1.27
 -15  -2   1   16.07    1.40
  17 -16   1    0.39    0.42
 -16  -1   1    0.50    0.43
 -17   0   1    4.00    0.61
  17 -17   1    3.64    0.57
  17 -18   1    2.95    0.53
 -18   1   1    3.05    0.58
  17 -19   1    0.85    0.43
 -19   2   1    0.71    0.48
 -20   3   1    2.49    0.58
 -21   4   1    7.04    0.83
 -22   5   1    0.22    0.48
 -23   6   1   -0.01    0.48
 -18  -4  -1    2.71    0.54
  22 -18  -1    3.29    0.60
 -18  -3  -1    0.76    0.47
  21 -18  -1    0.64    0.51
 -18  -2  -1    1.55    0.50
  20 -18  -1    1.34    0.54
  19 -18  -1    0.34    0.49
 -18  -1  -1    0.65    0.47
 -18   0  -1    5.79    0.73
  18 -18  -1    5.71    0.70
  18   0   1    4.98    0.59
 -18   1  -1    2.23    0.56
  17 -18  -1    1.50    0.50
  18  -1   1    2.69    0.44
  16 -18  -1    0.28    0.44
 -18   2  -1    0.74    0.47
  18  -2   1    0.55    0.36
 -18   3  -1    6.31    0.78
  18  -3   1    7.88    0.75
 -18   4  -1    9.66    0.98
  18  -4   1    8.45    0.86
 -18   5  -1    6.76    0.79
  18  -5   1    7.96    0.77
 -18   6  -1   12.97    1.14
  18  -6   1   10.99    1.02
  -6 -12   1   11.24    1.02
 -18   7  -1    1.83    0.48
  18  -7   1    2.04    0.43
  -7 -11   1    1.75    0.37
 -18   8  -1    4.53    0.57
  -8 -10   1    2.60    0.42
  18  -8   1    2.69    0.47
 -18   9  -1    6.04    0.70
  18  -9   1    5.71    0.62
  -9  -9   1    5.44    0.62
  18 -10   1    2.17    0.44
 -10  -8   1    1.84    0.40
  18 -11   1    2.79    0.51
 -11  -7   1    3.87    0.50
  18 -12   1   11.17    0.96
 -12  -6   1   10.61    1.03
 -13  -5   1    6.84    0.72
  18 -13   1    5.49    0.66
  18 -14   1    5.17    0.65
 -14  -4   1    5.74    0.67
 -15  -3   1    8.89    0.90
  18 -15   1    7.85    0.81
  18 -16   1    0.85    0.44
 -16  -2   1    1.44    0.46
 -17  -1   1    2.11    0.53
  18 -17   1    2.55    0.50
  18 -18   1    6.58    0.71
 -18   0   1    6.40    0.79
  18 -19   1    0.92    0.44
 -19   1   1    0.86    0.50
 -20   2   1    0.23    0.49
 -21   3   1    2.19    0.55
 -22   4   1    2.57    0.60
  22 -19  -1   -0.33    0.48
 -19  -3  -1    0.49    0.46
 -19  -2  -1    3.24    0.60
  21 -19  -1    3.24    0.61
 -19  -1  -1    2.90    0.59
  20 -19  -1    3.15    0.63
 -19   0  -1    3.97    0.63
  19 -19  -1    4.62    0.67
  18 -19  -1    0.69    0.48
 -19   1  -1    0.81    0.50
  19  -1   1    0.69    0.38
  17 -19  -1    0.31    0.45
 -19   2  -1    0.29    0.47
  19  -2   1   -0.33    0.37
 -19   3  -1    0.39    0.48
  16 -19  -1    0.87    0.48
  19  -3   1    0.74    0.39
 -19   4  -1    1.05    0.46
  19  -4   1    2.42    0.46
 -19   5  -1    0.93    0.47
  19  -5   1    0.62    0.41
 -19   6  -1    4.59    0.62
  19  -6   1    2.96    0.50
 -19   7  -1    0.19    0.47
  -7 -12   1    0.23    0.30
  19  -7   1    0.26    0.39
 -19   8  -1    3.40    0.60
  -8 -11   1    3.58    0.49
  19  -8   1    3.38    0.52
 -19   9  -1    1.82    0.49
  -9 -10   1    2.88    0.43
  19  -9   1    2.74    0.50
 -19  10  -1    3.20    0.57
 -10  -9   1    3.20    0.49
  19 -10   1    3.19    0.52
 -11  -8   1    4.69    0.57
  19 -11   1    3.88    0.56
  19 -12   1    0.35    0.39
 -12  -7   1   -0.28    0.34
 -13  -6   1    5.09    0.64
  19 -13   1    5.06    0.63
  19 -14   1    0.47    0.42
 -14  -5   1    0.26    0.41
 -15  -4   1    0.32    0.42
  19 -15   1   -0.06    0.41
  19 -16   1    1.25    0.46
 -16  -3   1    1.20    0.46
 -17  -2   1    0.56    0.47
  19 -17   1    0.21    0.42
  19 -18   1    0.68    0.44
 -18  -1   1    1.05    0.51
 -19   0   1    3.15    0.63
  19 -19   1    3.24    0.54
 -20   1   1    2.11    0.56
  19 -20   1    1.38    0.49
 -21   2   1    3.11    0.64
 -22   3   1    0.60    0.51
  21 -20  -1   -0.08    0.48
 -20  -1  -1    0.10    0.47
 -20   0  -1   16.17    1.43
  20 -20  -1   15.11    1.34
  19 -20  -1    2.59    0.62
 -20   1  -1    3.42    0.61
  18 -20  -1    0.86    0.49
 -20   2  -1    0.88    0.49
  20  -2   1    0.47    0.42
  17 -20  -1    3.98    0.62
 -20   3  -1    4.08    0.64
  20  -3   1    2.47    0.52
 -20   4  -1    1.72    0.54
  16 -20  -1    1.47    0.50
  20  -4   1    1.82    0.45
 -20   5  -1    4.35    0.67
  15 -20  -1    5.88    0.65
  20  -5   1    4.74    0.62
 -20   6  -1    3.76    0.60
  20  -6   1    1.25    0.47
 -20   7  -1   -0.03    0.41
  20  -7   1   -0.14    0.40
 -20   8  -1    2.91    0.66
  -8 -12   1    5.87    0.59
  20  -8   1    5.45    0.62
 -20   9  -1   11.88    1.11
  -9 -11   1   10.11    0.97
  20  -9   1    8.42    0.91
 -20  10  -1    1.29    0.49
  20 -10   1    0.35    0.43
 -10 -10   1    0.29    0.35
 -20  11  -1    5.23    0.76
  20 -11   1    7.29    0.75
 -11  -9   1    8.15    0.78
 -20  12  -1    9.12    0.85
  20 -12   1    4.82    0.66
 -12  -8   1    4.92    0.67
 -20  13  -1    2.41    0.54
 -13  -7   1    2.09    0.47
  20 -13   1    2.70    0.51
 -14  -6   1    4.02    0.60
  20 -14   1    4.01    0.60
 -15  -5   1    0.38    0.44
  20 -15   1    0.58    0.45
 -16  -4   1    2.82    0.55
  20 -16   1    3.01    0.55
  20 -17   1    1.33    0.49
 -17  -3   1    2.22    0.53
 -18  -2   1    0.58    0.48
  20 -18   1    0.32    0.47
  20 -19   1    1.78    0.50
 -19  -1   1    1.96    0.55
 -20   0   1   19.84    1.70
  20 -20   1   19.24    1.53
 -21   1   1    0.90    0.52
  20 -21  -1    0.24    0.51
 -21   1  -1    0.34    0.49
  19 -21  -1    2.51    0.59
 -21   2  -1    3.26    0.61
 -21   3  -1    1.18    0.52
  18 -21  -1    0.75    0.49
  21  -3   1    1.43    0.43
 -21   4  -1   10.78    1.11
  17 -21  -1   11.52    1.01
  21  -4   1    9.02    0.93
  16 -21  -1    0.92    0.48
 -21   5  -1   -0.45    0.48
  21  -5   1    0.69    0.43
 -21   6  -1    3.72    0.64
  21  -6   1    5.33    0.63
 -21   7  -1    0.53    0.47
  21  -7   1    1.29    0.46
 -21   8  -1    2.47    0.59
  21  -8   1    2.53    0.51
 -21   9  -1    7.95    0.83
  21  -9   1    4.91    0.67
  -9 -12   1    6.59    0.74
 -21  10  -1    6.50    0.84
  21 -10   1    7.87    0.79
 -10 -11   1    7.07    0.77
 -21  11  -1    7.61    0.85
  21 -11   1    6.89    0.76
 -11 -10   1    6.02    0.71
 -21  12  -1    1.40    0.49
 -12  -9   1    2.64    0.47
  21 -12   1    1.56    0.50
 -21  13  -1    3.91    0.65
  21 -13   1    4.32    0.62
 -13  -8   1    4.75    0.61
 -21  14  -1    3.43    0.61
 -14  -7   1    3.12    0.55
  21 -14   1    3.50    0.57
 -21  15  -1    5.46    0.73
  21 -15   1    5.72    0.69
 -15  -6   1    5.89    0.71
 -21  16  -1    1.48    0.48
  21 -16   1    0.35    0.46
 -16  -5   1    0.44    0.45
  21 -17   1    8.13    0.85
 -17  -4   1    8.99    0.94
  21 -18   1    1.50    0.53
 -18  -3   1    2.68    0.56
 -19  -2   1    4.07    0.65
  21 -19   1    3.06    0.60
  21 -20   1    0.37    0.47
 -20  -1   1    0.83    0.50
  19 -22  -1    0.04    0.49
 -22   3  -1    0.13    0.47
  18 -22  -1    2.38    0.58
 -22   4  -1    2.54    0.59
  22  -4   1    2.27    0.51
 -22   5  -1    0.03    0.50
  22  -5   1    0.28    0.44
 -22   6  -1    1.88    0.59
  22  -6   1    3.05    0.53
 -22   7  -1    0.44    0.50
  22  -7   1    1.29    0.50
 -22   8  -1    1.27    0.53
  22  -8   1    1.02    0.46
 -22   9  -1    3.78    0.64
  22  -9   1    3.14    0.56
 -22  10  -1    0.15    0.47
  22 -10   1    0.97    0.45
 -22  11  -1    0.48    0.49
  22 -11   1    0.05    0.45
 -11 -11   1    0.18    0.37
 -22  12  -1    1.15    0.54
 -12 -10   1    0.33    0.40
  22 -12   1    1.06    0.49
 -22  13  -1    3.28    0.64
 -13  -9   1    2.79    0.51
  22 -13   1    2.97    0.54
 -22  14  -1    1.29    0.52
  22 -14   1    0.59    0.46
 -14  -8   1    0.45    0.42
 -22  15  -1    0.53    0.47
  22 -15   1    0.78    0.48
 -15  -7   1    0.71    0.46
 -22  16  -1    3.35    0.59
  22 -16   1    2.08    0.53
 -16  -6   1    1.72    0.51
 -17  -5   1   -0.35    0.43
  22 -17   1    0.59    0.47
 -18  -4   1    3.09    0.59
  22 -18   1    3.16    0.57
  22 -19   1    1.41    0.52
 -19  -3   1    0.79    0.49
 -23   6  -1    0.29    0.51
  23  -6   1   -0.64    0.43
 -23   7  -1    0.76    0.54
  23  -7   1    1.65    0.48
 -23   8  -1    2.11    0.58
  23  -8   1    2.14    0.52
 -23   9  -1    3.18    0.61
  23  -9   1    3.08    0.56
 -23  10  -1    0.67    0.51
  23 -10   1   -0.02    0.45
 -23  11  -1    1.18    0.52
  23 -11   1    0.53    0.44
 -23  12  -1    0.56    0.50
  23 -12   1    0.58    0.46
 -12 -11   1    1.77    0.46
 -23  13  -1    0.91    0.50
 -13 -10   1    0.69    0.42
  23 -13   1    0.41    0.46
 -23  14  -1    4.28    0.70
 -14  -9   1    4.71    0.64
  23 -14   1    5.52    0.67
 -23  15  -1    3.52    0.62
  23 -15   1    2.09    0.54
 -15  -8   1    1.96    0.52
 -23  16  -1    2.35    0.58
  23 -16   1    1.33    0.54
 -16  -7   1    2.55    0.54
 -17  -6   1   -0.18    0.45
  23 -17   1    0.62    0.47
 -24  11  -1    0.35    0.50
  24 -11   1    1.41    0.47
 -24  12  -1    3.54    0.66
  24 -12   1    3.99    0.60
 -24  13  -1    2.32    0.57
  24 -13   1    1.68    0.49
   0   0  -2  995.02   79.23
   0   0   2 1000.00   69.76
   1  -1  -2   30.85    2.88
   0   1  -2   30.97    2.87
  -1   0  -2   31.58    2.88
   1   0   2   38.42    2.88
   0  -1   2   40.66    2.55
   1   0   2   40.20    2.54
  -1   1   2   39.85    2.54
   0  -1  -2    1.89    0.18
   1   0  -2    1.73    0.19
  -1   1  -2    1.63    0.19
   0  -1  -2    1.45    0.19
   1   0  -2    1.78    0.21
  -1   2  -2   11.69    0.99
  -1  -1  -2   10.79    1.00
   2  -1  -2   11.48    1.02
   1   1   2   12.96    0.88
   1  -2   2   13.37    0.91
   1   1   2   13.30    1.00
   3  -2  -2    4.76    0.47
  -1   3  -2    5.02    0.43
  -2  -1  -2    4.80    0.44
  -1   3  -2    4.97    0.42
   1  -3   2    5.57    0.45
   2   1   2    4.93    0.44
  -2   0  -2   26.07    2.07
   2  -2  -2   25.47    2.08
   0   2  -2   27.60    2.07
   0   2  -2   26.41    2.06
   2   0   2   24.19    2.07
   0  -2   2   24.42    1.85
   1   1  -2   11.85    1.01
   1  -2  -2   12.17    0.88
   1  -2  -2   11.01    1.00
  -2   1  -2   11.10    0.99
   2  -1   2   13.10    1.00
   2  -1   2   13.23    0.90
  -1  -1   2   13.55    0.91
  -2   2  -2   11.36    0.99
   0  -2  -2   10.66    1.00
   2   0  -2   11.63    1.02
   0   2   2   13.45    0.88
   2  -2   2   13.64    0.91
   0   2   2   12.65    1.01
   2  -2   2   12.18    0.99
  -2   3  -2    8.87    0.81
   3  -1  -2    9.12    0.84
  -1  -2  -2    8.70    0.83
   2  -3   2   10.70    0.75
   1   2   2   11.53    0.72
   1   2   2   11.13    0.84
   4  -2  -2    0.19    0.14
  -2  -2  -2    0.19    0.12
  -2   4  -2    0.08    0.08
  -2   4  -2    0.16    0.06
   2   2   2   -0.02    0.11
   2  -4   2   -0.16    0.15
  -4   2   2   -0.03    0.16
  -3  -2  -2   73.81    5.96
   5  -3  -2   72.71    5.97
   2  -5   2   78.31    5.26
   3   2   2   74.11    5.96
  -5   3   2   74.56    5.98
  -1   4  -2   19.83    1.54
  -3  -1  -2   20.27    1.57
  -1   4  -2   20.42    1.54
   4  -3  -2   19.55    1.58
   1  -4   2   15.48    1.39
   3  -3  -2   47.49    3.63
   0   3  -2   47.88    3.60
  -3   0  -2   47.92    3.62
   0  -3   2   36.80    3.20
   1   2  -2    5.32    0.46
   2  -3  -2    4.69    0.46
   2  -3  -2    5.20    0.40
  -3   1  -2    5.15    0.46
   3  -1   2    5.39    0.46
  -1  -2   2    5.41    0.47
  -3   2  -2    8.61    0.79
   1  -3  -2    8.90    0.69
   2   1  -2    9.41    0.81
   1  -3  -2    8.29    0.80
   3  -2   2   10.83    0.80
  -2  -1   2   11.28    0.82
  -1   3   2   10.84    0.81
  -3   3  -2   97.20    7.42
   3   0  -2   98.88    7.44
   0  -3  -2   95.87    7.44
   3  -3   2   91.43    6.55
   0   3   2   92.22    6.52
  -3   0   2   88.92    7.44
   3  -3   2   88.89    7.42
   4  -1  -2   20.65    1.86
  -3   4  -2   20.12    1.82
  -1  -3  -2   19.64    1.84
   3  -4   2   24.41    1.65
   1   3   2   24.75    1.61
   1   3   2   25.09    1.85
  -4   1   2   24.22    1.87
   3  -4   2   23.90    1.82
  -2  -3  -2   33.76    2.84
   5  -2  -2   32.46    2.84
   2   3   2   35.62    2.83
   3  -5   2   37.84    2.51
  -5   2   2   36.57    2.85
   6  -3  -2   49.00    3.63
  -3  -3  -2   52.53    3.63
   3  -6   2   41.07    3.20
   3   3   2   41.65    3.61
  -6   3   2   41.01    3.63
  -4  -3  -2   10.40    0.98
   7  -4  -2   10.11    0.99
   4   3   2   12.72    0.99
   3  -7   2   12.28    0.90
  -7   4   2   12.87    1.01
  -4  -2  -2   40.75    3.35
   6  -4  -2   42.94    3.36
  -6   4   2   40.79    3.37
   4   2   2   41.54    3.35
   2  -6   2   42.03    2.97
  -4  -1  -2   19.90    1.67
  -1   5  -2   20.14    1.63
   5  -4  -2   20.43    1.68
  -1   5  -2   20.85    1.64
   4   1   2   20.57    1.67
   1  -5   2   21.13    1.49
   0   4  -2  124.18   10.06
  -4   0  -2  118.21   10.07
   4  -4  -2  122.21   10.09
   4   0   2  131.17   10.07
   0  -4   2  137.78    8.89
   3  -4  -2   19.89    1.45
   1   3  -2   20.11    1.44
  -4   1  -2   18.90    1.45
  -1  -3   2   15.87    1.29
  -1  -3   2   15.69    1.44
   4  -1   2   15.78    1.44
  -4   2  -2    0.30    0.12
   2  -4  -2    0.18    0.08
   2  -4  -2    0.13    0.12
   2   2  -2   -0.04    0.12
   4  -2   2    0.11    0.10
  -2  -2   2    0.04    0.13
  -4   3  -2   20.41    1.73
   3   1  -2   20.11    1.75
   1  -4  -2   19.42    1.74
  -3  -1   2   23.79    1.76
   4  -3   2   23.88    1.73
   0  -4  -2  182.64   14.09
  -4   4  -2  185.81   14.07
   4   0  -2  185.13   14.10
   4  -4   2  175.06   14.08
  -4   0   2  166.10   14.10
   0   4   2  168.93   14.09
  -1  -4  -2    9.55    0.76
   5  -1  -2    9.48    0.77
  -4   5  -2   10.12    0.72
   4  -5   2    8.67    0.70
   4  -5   2    8.03    0.72
  -5   1   2    7.85    0.77
   1   4   2    8.32    0.75
  -2  -4  -2   20.74    1.97
   6  -2  -2   20.25    1.98
   4  -6   2   26.67    1.76
  -6   2   2   27.22    2.01
   2   4   2   27.20    1.98
   3   4   2    4.09    0.42
  -7   3   2    4.80    0.47
   4  -7   2    4.29    0.43
   8  -4  -2  222.92   17.44
  -4  -4  -2  224.63   17.43
  -8   4   2  221.72   17.44
   4   4   2  217.68   14.28
   4   4   2  211.21   17.42
   4  -8   2  212.63   15.35
   4  -8   2  222.71   16.26
   9  -5  -2   23.31    1.87
  -5  -4  -2   23.70    1.86
   4  -9   2   22.43    1.66
   4  -9   2   22.37    1.74
   5   4   2   22.22    1.85
   5   4   2   21.25    1.51
  -9   5   2   22.19    1.88
  -5  -3  -2   42.01    3.76
   8  -5  -2   41.72    3.76
   3  -8   2   47.89    3.33
   3  -8   2   48.17    3.50
   5   3   2   49.38    3.76
   5   3   2   48.86    3.08
  -8   5   2   48.67    3.78
  -5  -2  -2    9.13    0.81
   7  -5  -2    8.69    0.81
   2  -7   2    9.43    0.74
   5   2   2    9.33    0.79
   6  -5  -2   42.58    3.61
  -5  -1  -2   41.67    3.60
  -1   6  -2   41.59    3.56
   5   1   2   48.21    3.60
   1  -6   2   51.11    3.20
  -5   0  -2   26.04    2.00
   5  -5  -2   23.89    2.01
   0   5  -2   25.54    1.97
   0  -5   2   23.84    1.78
   5   0   2   23.71    1.99
   0  -5   2   23.97    1.97
   4  -5  -2   20.41    1.72
   1   4  -2   21.20    1.70
  -5   1  -2   20.97    1.72
   4  -5  -2   20.49    1.73
   5  -1   2   21.89    1.72
  -1  -4   2   22.10    1.54
  -1  -4   2   20.82    1.71
  -5   2  -2   69.41    5.78
   3  -5  -2   67.20    5.78
   2   3  -2   71.16    5.77
  -2  -3   2   78.20    5.78
   5  -2   2   76.26    5.78
   2  -5  -2   34.20    2.83
  -5   3  -2   34.52    2.82
   3   2  -2   33.73    2.83
  -3  -2   2   36.88    2.83
   5  -3   2   36.34    2.81
  -5   4  -2    9.46    0.76
   4   1  -2   10.11    0.79
   1  -5  -2    9.98    0.78
  -4  -1   2    8.80    0.79
   5  -4   2    8.43    0.75
  -1   5   2    8.10    0.77
   5   0  -2    1.65    0.24
  -5   5  -2    1.58    0.19
   0  -5  -2    1.52    0.22
  -5   0   2    2.93    0.29
  -5   6  -2   23.04    1.77
   6  -1  -2   21.95    1.82
  -1  -5  -2   23.94    1.81
   1   5   2   21.01    1.80
  -6   1   2   21.16    1.83
   5  -6   2   21.61    1.77
  -2  -5  -2   11.52    0.97
  -5   7  -2   11.48    1.13
   7  -2  -2   10.88    0.97
   5  -7   2   11.66    0.89
  -7   2   2   11.21    0.99
   2   5   2   11.13    0.96
  -3  -5  -2    9.62    0.79
   8  -3  -2   10.15    0.79
  -8   3   2    7.84    0.80
   3   5   2    8.17    0.76
   5  -8   2    8.56    0.75
   5  -8   2    8.67    0.71
   9  -4  -2   15.40    1.15
  -5   9  -2   16.00    1.33
   4   5   2   12.67    0.92
  -9   4   2   12.89    1.05
   4   5   2   12.13    1.11
   5  -9   2   12.51    1.06
   5  -9   2   11.60    1.01
  -5  10  -2    0.33    0.29
   5 -10   2    0.24    0.20
   5   5   2    0.24    0.16
 -10   5   2    0.61    0.21
   5 -10   2    0.53    0.21
  -6  -5  -2   21.53    1.61
  -5  11  -2   23.62    2.03
 -11   6   2   19.47    1.63
   5 -11   2   19.64    1.57
   6   5   2   20.09    1.43
   5 -11   2   22.12    1.65
   6   4   2    3.03    0.30
   4 -10   2    2.80    0.36
 -10   6   2    2.73    0.33
   4 -10   2    3.22    0.35
  -6  -3  -2   79.55    6.32
   9  -6  -2   79.12    6.32
   3  -9   2   78.74    5.57
  -9   6   2   77.87    6.33
   3  -9   2   76.97    5.88
   6   3   2   80.03    5.17
   6   3   2   78.92    6.31
   8  -6  -2   22.52    1.74
  -6  -2  -2   24.34    1.75
   2  -8   2   20.19    1.62
   6   2   2   20.03    1.73
   2  -8   2   19.48    1.55
   6   2   2   19.73    1.42
   1  -7   2    5.81    0.48
   1  -7   2    5.81    0.51
   6   1   2    5.75    0.47
   1  -7   2    6.14    0.53
   6   1   2    5.40    0.53
   0   6  -2   53.40    4.13
  -6   0  -2   51.29    4.16
   6  -6  -2   51.82    4.17
   0  -6   2   49.84    3.68
   6   0   2   51.52    4.16
   0  -6   2   52.27    4.13
   5  -6  -2   41.38    3.63
   1   5  -2   44.21    3.62
   5  -6  -2   42.84    3.65
  -6   1  -2   43.83    3.64
   6  -1   2   49.46    3.64
  -1  -5   2   46.36    3.22
  -1  -5   2   49.08    3.63
   4  -6  -2   41.61    3.47
   4  -6  -2   40.94    3.46
   2   4  -2   45.84    3.45
  -6   2  -2   44.21    3.46
  -2  -4   2   42.50    3.45
   6  -2   2   42.88    3.45
   3  -6  -2   51.08    3.88
  -6   3  -2   51.29    3.88
   3   3  -2   51.30    3.88
   6  -3   2   44.50    3.87
  -3  -3   2   44.04    3.88
   2  -6  -2   21.50    1.95
   4   2  -2   20.34    1.95
  -6   4  -2   20.70    1.94
   6  -4   2   27.23    1.95
  -4  -2   2   27.60    1.98
  -2   6   2   27.70    1.96
   5   1  -2   22.16    1.84
  -6   5  -2   24.55    1.81
  -6   5  -2   24.34    2.19
   1  -6  -2   22.93    1.83
  -1   6   2   20.49    1.82
  -5  -1   2   21.38    1.85
   6  -5   2   21.44    1.81
  -6   6  -2   58.04    4.82
   6   0  -2   56.02    4.86
   0  -6  -2   56.33    4.85
  -6   6  -2   59.01    5.72
   6  -6   2   64.28    4.82
  -6   0   2   64.47    4.88
   0   6   2   65.54    4.85
  -6   7  -2   23.78    2.05
  -6   7  -2   23.07    1.75
  -1  -6  -2   23.78    1.80
   7  -1  -2   21.78    1.80
   6  -7   2   20.61    1.75
  -7   1   2   19.88    1.81
   1   6   2   20.39    1.79
   8  -2  -2   14.05    1.44
  -2  -6  -2   14.22    1.43
  -6   8  -2   14.61    1.65
   6  -8   2   19.37    1.30
   2   6   2   19.36    1.44
  -8   2   2   19.89    1.35
  -8   2   2   20.64    1.48
  -6   9  -2   62.63    5.45
   9  -3  -2   64.19    4.84
  -3  -6  -2   62.96    4.82
  -9   3   2   58.85    4.49
   6  -9   2   57.98    4.26
   3   6   2   56.54    3.94
   3   6   2   56.88    4.81
  -6  10  -2    2.26    0.49
   6 -10   2    3.75    0.41
   6 -10   2    3.81    0.41
   4   6   2    3.99    0.37
 -10   4   2    4.23    0.45
  -6  11  -2   14.54    1.71
   6 -11   2   18.08    1.34
 -11   5   2   19.42    1.39
   5   6   2   17.78    1.21
  -6  12  -2   10.22    1.01
   6 -12   2    8.02    0.75
   6   6   2    8.72    0.68
   6 -12   2    8.98    0.79
 -12   6   2    8.34    0.77
  -7  -6  -2   25.83    1.97
  -6  13  -2   25.15    2.45
   6 -13   2   26.04    1.91
 -13   7   2   24.77    2.00
   7   6   2   26.38    1.74
  -7  -5  -2    9.01    0.77
  -5  12  -2    9.89    1.05
   5 -12   2    9.22    0.79
   5 -12   2    9.70    0.81
 -12   7   2    8.02    0.79
   7   5   2    9.49    0.69
  -4  11  -2    5.25    0.67
  -7  -4  -2    4.66    0.48
 -11   7   2    4.52    0.50
   4 -11   2    5.26    0.51
   4 -11   2    5.01    0.54
   7   4   2    5.10    0.46
  -7  -3  -2   10.88    0.85
 -10   7   2    9.71    0.85
   3 -10   2    9.72    0.83
   3 -10   2   10.04    0.86
   7   3   2   10.47    0.76
   9  -7  -2   12.98    1.04
   2  -9   2   12.23    0.94
   7   2   2   11.33    0.85
   2  -9   2   10.96    0.96
  -1   8  -2    3.17    0.26
   8  -7  -2    3.14    0.37
  -7  -1  -2    3.22    0.37
   1  -8   2    2.77    0.27
   1  -8   2    2.85    0.35
   7   1   2    2.86    0.29
   7   1   2    2.66    0.34
   1  -8   2    2.52    0.31
   7   0   2    8.61    0.63
   0  -7   2    8.43    0.71
   0  -7   2    8.32    0.70
   7   0   2    8.59    0.75
   0  -7   2    8.14    0.71
  -1  -6   2    6.12    0.53
   7  -1   2    5.76    0.48
  -1  -6   2    6.36    0.55
   7  -1   2    5.64    0.55
  -1  -6   2    5.61    0.52
  -6   7   2    6.25    0.50
  -7   2  -2    8.62    0.77
   5  -7  -2    8.61    0.78
   5  -7  -2    8.82    0.76
   2   5  -2    8.61    0.74
  -2  -5   2    9.04    0.76
  -2  -5   2    8.65    0.72
   7  -2   2    8.39    0.65
  -5   7   2    8.82    0.65
   7  -2   2    9.36    0.77
   3   4  -2   10.21    0.94
  -7   3  -2    9.96    0.95
   4  -7  -2   10.73    0.95
  -7   3  -2   10.10    1.17
  -3  -4   2   13.53    0.97
   7  -3   2   13.41    0.96
   3  -7  -2    8.72    0.75
  -7   4  -2    8.49    0.96
   4   3  -2    8.77    0.76
  -7   4  -2    8.79    0.75
  -7   5  -2   11.37    0.96
   2  -7  -2   11.98    0.98
   5   2  -2   10.81    0.98
  -7   5  -2   12.02    1.22
  -5  -2   2   10.98    0.99
   7  -5   2   11.31    0.95
  -5  -2   2   11.88    0.91
  -2   7   2   11.62    0.97
   6   1  -2   22.96    1.78
  -7   6  -2   23.14    1.75
  -7   6  -2   22.33    2.13
   1  -7  -2   24.14    1.78
  -6  -1   2   20.20    1.79
  -1   7   2   19.74    1.77
   7  -6   2   20.41    1.75
  -6  -1   2   20.37    1.66
   7   0  -2   15.16    1.13
  -7   7  -2   14.71    1.08
   0  -7  -2   15.39    1.12
  -7   7  -2   15.53    1.30
  -7   7  -2   15.22    1.38
  -7   0   2   10.45    1.12
  -7   0   2    9.75    1.03
   0   7   2   10.39    1.09
  -7   8  -2   18.52    1.74
  -7   8  -2   18.56    1.84
  -1  -7  -2   19.08    1.52
   8  -1  -2   17.51    1.53
  -7   8  -2   18.49    1.47
  -8   1   2   18.07    1.41
   7  -8   2   19.00    1.46
  -8   1   2   17.15    1.54
   1   7   2   17.22    1.24
   1   7   2   18.15    1.51
  -2  -7  -2   43.12    3.46
  -7   9  -2   40.64    4.10
  -7   9  -2   40.10    3.92
   2   7   2   43.27    2.83
   2   7   2   45.14    3.45
   7  -9   2   41.75    3.07
  -9   2   2   44.74    3.23
  -7  10  -2    1.01    0.34
  -7  10  -2    1.15    0.41
   3   7   2    1.01    0.20
   7 -10   2    1.22    0.27
 -10   3   2    1.24    0.25
  -7  11  -2    0.79    0.34
 -11   4   2    1.06    0.26
   7 -11   2    0.48    0.24
   4   7   2    0.75    0.19
  -7  12  -2   10.51    1.19
   5   7   2   10.69    0.82
 -12   5   2   11.73    0.95
   7 -12   2   12.05    0.93
  -7  13  -2   12.43    1.39
 -13   6   2   13.97    1.12
   7 -13   2   13.21    1.07
   6   7   2   13.78    0.98
  -7  14  -2    1.04    0.42
  -7  14  -2    1.69    0.50
   7   7   2    1.74    0.27
 -14   7   2    1.65    0.34
   7 -14   2    1.25    0.32
  -7  15  -2   11.76    1.28
  -7  15  -2   11.29    1.33
   8   7   2   11.17    0.86
 -15   8   2   11.39    1.02
   7 -15   2   11.81    0.97
  -6  14  -2    6.90    0.76
   6 -14   2    3.82    0.50
   8   6   2    5.23    0.44
   6 -14   2    3.96    0.51
 -14   8   2    4.21    0.51
  -8  -5  -2    3.79    0.39
  -5  13  -2    3.99    0.59
   5 -13   2    3.31    0.42
   8   5   2    3.25    0.35
   5 -13   2    2.90    0.42
 -13   8   2    3.03    0.40
  -8  -4  -2   41.41    3.01
  -4  12  -2   44.09    3.70
 -12   8   2   37.43    3.01
   8   4   2   37.92    2.65
   4 -12   2   37.50    2.87
   4 -12   2   40.49    3.03
  -8  -3  -2    7.82    0.81
   8   3   2   10.01    0.73
 -11   8   2    9.53    0.81
   3 -11   2   10.38    0.81
   3 -11   2   10.68    0.83
  -8  -2  -2    7.72    0.65
   2 -10   2    7.68    0.66
   2 -10   2    7.21    0.65
   8   2   2    6.84    0.58
   9  -8  -2   21.42    1.62
   1  -9   2   17.46    1.44
   1  -9   2   19.07    1.49
   8   1   2   18.80    1.32
  -8   0  -2   14.89    1.20
   0   8  -2   14.74    1.13
   8  -8  -2   14.24    1.19
   8   0   2   14.27    1.19
   0  -8   2   12.67    1.07
   0  -8   2   13.59    1.14
   8   0   2   13.15    0.98
   0  -8   2   13.46    1.11
   7  -8  -2    2.70    0.33
  -8   1  -2    3.35    0.36
   1   7  -2    3.04    0.29
   7  -8  -2    2.87    0.35
  -8   1  -2    3.55    0.46
   8  -1   2    2.45    0.34
   8  -1   2    2.90    0.30
  -1  -7   2    2.53    0.31
  -1  -7   2    2.67    0.31
  -8   2  -2   22.93    1.80
   2   6  -2   23.85    1.77
  -8   2  -2   24.77    2.14
   6  -8  -2   23.50    1.79
   6  -8  -2   22.05    1.81
  -6   8   2   19.49    1.49
   8  -2   2   19.99    1.48
  -2  -6   2   20.49    1.67
   8  -2   2   20.83    1.79
  -2  -6   2   20.46    1.78
   5  -8  -2   42.11    3.70
   5  -8  -2   42.62    3.68
   3   5  -2   43.01    3.67
  -8   3  -2   42.59    3.69
  -8   3  -2   42.52    4.35
  -3  -5   2   48.01    3.69
  -5   8   2   49.50    3.04
  -3  -5   2   49.38    3.44
   8  -3   2   48.77    3.04
   8  -3   2   50.08    3.69
  -8   4  -2  230.45   21.00
   4   4  -2  223.85   17.88
   4  -8  -2  230.99   17.89
  -8   4  -2  223.78   17.88
  -4  -4   2  218.53   17.90
   8  -4   2  228.38   14.68
  -4  -4   2  217.39   16.69
   8  -4   2  222.64   17.88
  -4   8   2  228.99   14.67
  -8   5  -2    8.87    0.99
   3  -8  -2    9.91    0.77
   5   3  -2    9.63    0.77
  -8   5  -2    9.69    0.76
  -3   8   2    8.36    0.66
   8  -5   2    7.61    0.75
  -5  -3   2    8.02    0.79
   8  -5   2    7.92    0.66
  -5  -3   2    8.34    0.73
   6   2  -2   14.58    1.48
  -8   6  -2   14.68    1.69
  -8   6  -2   13.94    1.79
  -8   6  -2   14.54    1.46
  -2   8   2   20.19    1.23
  -2   8   2   20.11    1.48
   8  -6   2   20.02    1.25
  -6  -2   2   21.34    1.52
   8  -6   2   20.23    1.47
  -6  -2   2   19.79    1.39
   7   1  -2   18.99    1.55
  -8   7  -2   18.31    1.77
  -8   7  -2   18.93    1.88
  -8   7  -2   18.81    1.51
   1  -8  -2   19.42    1.54
   8  -7   2   18.62    1.51
  -1   8   2   17.94    1.53
  -7  -1   2   17.37    1.44
   8  -7   2   18.54    1.29
  -7  -1   2   19.40    1.58
  -1   8   2   18.30    1.27
  -8   8  -2    0.56    0.14
  -8   8  -2    0.82    0.36
   8   0  -2    0.69    0.22
  -8   8  -2    0.35    0.27
   0  -8  -2    0.63    0.19
  -8   0   2    1.11    0.21
   0   8   2    0.70    0.18
   8  -8   2    0.39    0.21
  -8   0   2    1.15    0.27
   8  -8   2    0.76    0.14
   0   8   2    0.67    0.18
  -8   9  -2    9.08    0.98
  -8   9  -2    9.91    1.08
   1   8   2    8.75    0.68
  -9   1   2    9.09    0.78
   1   8   2    9.19    0.80
   8  -9   2    9.36    0.72
  -8  10  -2    1.51    0.43
  -8  10  -2    1.39    0.37
   2   8   2    2.21    0.24
 -10   2   2    1.56    0.27
   8 -10   2    1.77    0.30
   8 -10   2    1.54    0.26
  -8  11  -2   24.95    2.22
  -8  11  -2   26.77    2.13
   8 -11   2   20.42    1.64
   8 -11   2   18.97    1.51
   3   8   2   20.05    1.49
 -11   3   2   22.15    1.71
  -8  12  -2   34.57    3.78
  -8  12  -2   35.03    3.94
 -12   4   2   46.47    3.13
   4   8   2   43.26    2.72
   8 -12   2   45.18    2.97
  -8  13  -2    4.29    0.64
  -8  13  -2    3.97    0.68
   5   8   2    4.74    0.43
 -13   5   2    4.70    0.50
   8 -13   2    4.04    0.48
  -8  14  -2    1.36    0.43
  -8  14  -2    1.50    0.48
 -14   6   2    0.74    0.31
   6   8   2    0.67    0.21
   8 -14   2    0.65    0.31
  -8  15  -2   26.04    2.55
  -8  15  -2   25.72    2.66
  15  -7  -2   27.66    1.88
   8 -15   2   26.02    1.98
 -15   7   2   26.95    2.08
  16  -8  -2   45.75    3.16
  -8  16  -2   45.49    4.34
  -8  16  -2   45.16    4.52
   8 -16   2   47.44    3.38
 -16   8   2   48.85    3.57
  -8  17  -2    1.95    0.54
  17  -9  -2    2.10    0.42
  -8  17  -2    1.84    0.61
 -17   9   2    2.09    0.43
  -7  16  -2    3.36    0.67
  16  -9  -2    2.90    0.50
  -7  16  -2    3.68    0.74
   7 -16   2    5.78    0.57
 -16   9   2    6.14    0.62
   6 -15   2    7.52    0.81
   6 -15   2    8.36    0.78
 -15   9   2    8.62    0.79
   9   6   2    7.74    0.66
  -5  14  -2    6.27    0.81
  -9  -5  -2    6.33    0.59
   9   5   2    5.19    0.53
 -14   9   2    5.21    0.56
   5 -14   2    5.47    0.63
   5 -14   2    5.26    0.58
  -9  -4  -2    5.60    0.53
  -4  13  -2    6.09    0.74
   4 -13   2    3.91    0.49
   4 -13   2    4.32    0.52
 -13   9   2    4.71    0.49
   9   4   2    3.96    0.43
   9   3   2   11.78    0.87
   3 -12   2   12.38    0.96
   3 -12   2   11.76    0.98
 -12   9   2   10.85    0.96
   9   2   2    3.77    0.37
   2 -11   2    3.87    0.41
   2 -11   2    3.55    0.44
   9   1   2   15.04    1.06
   1 -10   2   14.54    1.18
   1 -10   2   15.06    1.16
   0  -9   2   72.81    5.31
   9   0   2   74.05    4.92
   0  -9   2   77.48    5.60
   1   8  -2   23.07    1.66
   8  -9  -2   24.10    1.72
   8  -9  -2   21.60    1.69
   9  -1   2   19.07    1.70
   9  -1   2   18.64    1.41
  -1  -8   2   18.60    1.58
  -1  -8   2   18.27    1.67
   2   7  -2   12.61    1.04
   7  -9  -2   13.37    1.07
  -9   2  -2   14.19    1.32
   7  -9  -2   13.18    1.08
  -9   2  -2   14.13    1.09
   9  -2   2   10.76    0.90
  -2  -7   2   11.98    1.01
   9  -2   2   11.40    1.07
  -2  -7   2   11.62    1.06
  -9   3  -2   81.63    6.38
   3   6  -2   80.44    6.36
  -9   3  -2   82.59    7.50
   6  -9  -2   79.97    6.39
   6  -9  -2   80.28    6.37
  -3  -6   2   75.90    5.94
  -3  -6   2   75.98    6.37
   9  -3   2   80.34    6.38
   9  -3   2   79.02    5.24
  -6   9   2   80.88    5.24
   5  -9  -2   23.30    1.88
  -9   4  -2   22.77    1.88
   4   5  -2   23.96    1.88
  -9   4  -2   23.92    2.26
   5  -9  -2   23.09    1.90
  -4  -5   2   22.14    1.76
  -4  -5   2   21.01    1.89
   9  -4   2   24.83    1.57
  -5   9   2   21.93    1.56
   9  -4   2   22.48    1.88
   4  -9  -2   16.24    1.19
  -9   5  -2   14.82    1.47
  -9   5  -2   16.05    1.37
   5   4  -2   15.87    1.19
  -9   5  -2   16.31    1.20
   9  -5   2   12.49    1.01
  -4   9   2   12.42    0.99
   9  -5   2   13.07    1.18
  -5  -4   2   11.76    1.11
  -5  -4   2   12.33    1.20
   6   3  -2   63.80    5.00
  -9   6  -2   63.14    4.99
   3  -9  -2   65.19    5.00
  -9   6  -2   66.81    5.90
  -9   6  -2   68.19    5.64
  -6  -3   2   59.08    5.02
  -6  -3   2   58.46    4.66
   9  -6   2   58.37    4.98
  -3   9   2   60.03    4.10
   9  -6   2   60.17    4.11
  -9   7  -2   42.38    3.98
  -9   7  -2   40.44    3.50
   2  -9  -2   40.49    3.51
   7   2  -2   41.70    3.53
  -9   7  -2   39.12    4.16
  -2   9   2   44.77    3.51
  -7  -2   2   46.58    3.55
  -2   9   2   46.03    2.89
   9  -7   2   46.57    3.50
   9  -7   2   45.93    2.91
  -7  -2   2   45.54    3.29
  -9   8  -2    9.87    1.02
   1  -9  -2    9.39    0.84
   8   1  -2    9.66    0.87
  -9   8  -2    9.76    0.81
  -9   8  -2    9.83    1.10
   9  -8   2    9.23    0.73
  -1   9   2    9.86    0.83
   9  -8   2    9.52    0.80
  -1   9   2    8.82    0.70
  -8  -1   2    9.44    0.81
  -9   9  -2   41.39    4.20
  -9   9  -2   39.60    4.39
   0   9   2   49.27    3.71
   9  -9   2   46.04    3.06
   0   9   2   49.70    3.04
  -9   0   2   48.56    3.47
  -9  10  -2   21.59    2.11
  -9  10  -2   20.08    1.98
  10  -1  -2   20.82    1.43
   1   9   2   20.90    1.41
   9 -10   2   19.30    1.44
 -10   1   2   21.33    1.62
   9 -11   2    8.93    0.78
 -11   2   2   10.49    0.86
   9 -11   2   10.04    0.84
   2   9   2   10.37    0.74
  12  -3  -2   15.67    0.96
  -9  12  -2   17.05    1.47
 -12   3   2   12.06    1.09
   9 -12   2    9.66    0.96
   3   9   2   11.66    0.92
   9 -12   2   13.04    1.05
  13  -4  -2    2.94    0.37
  -9  13  -2    2.47    0.51
  -9  13  -2    2.66    0.58
  14  -5  -2    1.90    0.36
  -9  14  -2    2.22    0.50
  -9  14  -2    1.94    0.55
 -14   5   2    3.33    0.43
   9 -14   2    2.45    0.39
  -9  15  -2   23.25    2.17
  15  -6  -2   24.93    1.51
  -9  15  -2   22.36    2.04
 -15   6   2   17.78    1.64
   9 -15   2   16.02    1.55
  16  -7  -2    3.21    0.45
  -9  16  -2    3.30    0.61
  -9  16  -2    3.15    0.68
 -16   7   2    2.48    0.46
   9 -16   2    2.18    0.43
  -9  17  -2    5.09    0.90
  17  -8  -2    5.01    0.61
  -9  17  -2    4.76    0.83
   9 -17   2    6.85    0.65
 -17   8   2    8.51    0.76
  -9  18  -2    9.25    1.15
  18  -9  -2    9.64    0.88
  -9  18  -2    9.26    1.25
 -18   9   2    8.59    0.93
  -9  19  -2    5.17    0.87
  19 -10  -2    4.82    0.68
 -19  10   2    7.29    0.71
  18 -10  -2    7.01    0.72
  -8  18  -2    6.15    0.93
  -8  18  -2    7.07    1.01
 -18  10   2    7.96    0.81
  -7  17  -2    2.90    0.66
  -7  17  -2    2.33    0.58
  17 -10  -2    2.30    0.46
 -17  10   2    2.50    0.46
 -10  -6  -2    2.49    0.34
  -6  16  -2    2.09    0.51
  10   6   2    1.38    0.30
   6 -16   2    1.11    0.37
   6 -16   2    1.53    0.39
 -16  10   2    1.80    0.39
  -5  15  -2    4.07    0.59
  10   5   2    2.23    0.33
   5 -15   2    2.13    0.41
   5 -15   2    2.06    0.39
 -15  10   2    1.91    0.36
  -4  14  -2    3.29    0.59
 -10  -4  -2    3.31    0.42
  10   4   2    3.10    0.37
   4 -14   2    3.56    0.45
   4 -14   2    3.39    0.43
  -3  13  -2   11.29    1.29
 -10  -3  -2   10.60    1.02
   3 -13   2   12.74    1.00
  10   3   2   13.14    0.91
   3 -13   2   12.86    1.02
   2 -12   2    7.71    0.69
   2 -12   2    7.81    0.71
  10   2   2    7.11    0.62
 -10  -1  -2    4.00    0.46
  10   1   2    4.20    0.41
   1 -11   2    3.64    0.45
   1 -11   2    4.50    0.49
  10   0   2   14.77    1.07
   0 -10   2   15.34    1.21
  10  -1   2   15.85    1.09
  -1  -9   2   14.57    1.21
   2   8  -2    7.64    0.65
   8 -10  -2    6.97    0.70
  -2  -8   2    7.71    0.66
  10  -2   2    7.58    0.62
   7 -10  -2   12.00    0.96
   3   7  -2   11.82    0.95
 -10   3  -2   12.16    1.24
   7 -10  -2   11.40    0.99
 -10   3  -2   12.19    0.99
  10  -3   2   10.13    0.83
  10  -3   2   10.34    0.98
  -3  -7   2   10.79    0.91
  -3  -7   2    9.64    0.96
  10  -4   2    2.91    0.34
  -4  -6   2    3.32    0.35
  -6  10   2    3.04    0.33
  10  -4   2    2.79    0.36
  -4  -6   2    2.80    0.37
   5 -10  -2    0.42    0.20
   5 -10  -2    0.26    0.16
 -10   5  -2    0.41    0.33
 -10   5  -2    0.52    0.25
   5   5  -2    0.21    0.17
 -10   5  -2    0.48    0.19
  -5  -5   2    0.33    0.20
  10  -5   2    0.24    0.18
  10  -5   2    0.55    0.21
  -5  10   2    0.46    0.20
  -5  -5   2    0.26    0.18
 -10   6  -2    1.71    0.42
 -10   6  -2    2.03    0.35
 -10   6  -2    1.74    0.27
   4 -10  -2    1.95    0.28
   6   4  -2    2.21    0.29
   7   3  -2    0.98    0.23
   3 -10  -2    0.76    0.20
 -10   7  -2    0.83    0.20
 -10   7  -2    0.74    0.38
 -10   7  -2    1.07    0.31
  -7  -3   2    1.13    0.22
  -7  -3   2    0.81    0.26
  10  -7   2    0.97    0.20
  10  -7   2    1.02    0.26
  -3  10   2    1.00    0.21
 -10   8  -2    1.56    0.43
 -10   8  -2    1.86    0.37
 -10   8  -2    1.43    0.24
  10  -8   2    1.74    0.28
  -2  10   2    1.87    0.25
  -2  10   2    1.68    0.25
  -8  -2   2    1.85    0.29
 -10   9  -2   21.24    1.96
 -10   9  -2   20.24    2.07
  -9  -1   2   20.20    1.60
  -1  10   2   20.59    1.40
  10  -9   2   19.55    1.43
 -10  10  -2   13.67    1.42
 -10  10  -2   13.74    1.51
  10   0  -2   15.33    1.00
   0  10   2   14.63    1.00
 -10   0   2   13.60    1.14
  10 -10   2   12.64    1.04
  11  -1  -2    5.99    0.55
 -10  11  -2    5.81    0.85
 -10  11  -2    6.10    0.80
   1  10   2    6.75    0.52
  10 -11   2    6.21    0.60
 -11   1   2    5.96    0.61
 -10  12  -2   17.06    1.67
 -10  12  -2   17.58    1.57
  12  -2  -2   17.29    1.12
  10 -12   2   12.50    1.13
   2  10   2   14.76    1.08
 -12   2   2   14.60    1.25
  10 -12   2   13.99    1.18
  13  -3  -2    7.45    0.62
 -10  13  -2    7.02    0.85
 -10  13  -2    6.95    0.95
  10 -13   2    5.86    0.64
 -13   3   2    6.54    0.66
   3  10   2    6.07    0.55
  10 -13   2    5.70    0.60
 -10  14  -2    2.60    0.55
  14  -4  -2    3.08    0.39
 -10  14  -2    2.91    0.63
  10 -14   2    2.59    0.40
 -14   4   2    2.62    0.42
 -10  15  -2    1.43    0.58
  15  -5  -2    1.17    0.35
 -10  15  -2    1.48    0.48
  10 -15   2    2.33    0.38
 -15   5   2    1.92    0.39
  16  -6  -2    0.80    0.38
 -10  16  -2    0.91    0.54
 -10  16  -2    1.09    0.49
  10 -16   2    2.07    0.38
 -16   6   2    2.52    0.43
 -10  17  -2    1.56    0.55
  17  -7  -2    1.89    0.43
 -10  17  -2    1.23    0.61
 -17   7   2    2.17    0.44
  10 -17   2    1.86    0.40
  18  -8  -2   12.47    1.08
 -10  18  -2   12.58    1.42
 -10  18  -2   11.96    1.51
 -18   8   2   12.84    1.15
  19  -9  -2    0.42    0.40
 -10  19  -2    0.76    0.52
 -19   9   2    1.87    0.44
  20 -10  -2    2.06    0.51
 -10  20  -2    1.74    0.61
 -20  10   2    2.89    0.50
  21 -11  -2    1.17    0.50
 -10  21  -2    1.70    0.60
 -21  11   2    1.03    0.43
  20 -11  -2    1.57    0.50
  -9  20  -2    1.96    0.60
 -20  11   2    1.69    0.45
  -8  19  -2    0.43    0.51
  19 -11  -2    0.75    0.46
 -19  11   2    0.72    0.40
  -7  18  -2    1.46    0.53
  18 -11  -2    1.54    0.43
 -18  11   2    1.00    0.39
 -11  -6  -2    0.91    0.31
  -6  17  -2    0.59    0.47
  17 -11  -2    1.01    0.39
  -6  17  -2    1.48    0.60
  -5  16  -2    2.51    0.60
 -11  -5  -2    3.31    0.45
  11   5   2    3.66    0.41
   5 -16   2    3.79    0.48
 -11  -4  -2   25.17    2.00
  -4  15  -2   22.40    2.46
   4 -15   2   26.94    2.01
   4 -15   2   26.66    1.92
  11   4   2   25.96    1.76
 -11  -3  -2   14.69    1.21
  -3  14  -2   12.50    1.48
  11   3   2   14.45    1.06
   3 -14   2   14.76    1.17
   3 -14   2   15.06    1.20
 -11  -2  -2    7.85    0.74
   2 -13   2    7.27    0.70
  11   2   2    7.42    0.65
   2 -13   2    7.29    0.71
 -11  -1  -2   18.71    1.50
   1 -12   2   18.57    1.48
  11   1   2   18.49    1.32
 -11   0  -2   19.28    1.85
  11   0   2   26.10    1.65
   0 -11   2   26.12    1.85
  11  -1   2    4.19    0.42
  -1 -10   2    4.26    0.45
  -2  -9   2    4.34    0.48
  11  -2   2    3.96    0.41
  -3  -8   2   10.24    0.87
  11  -3   2   10.48    0.80
   4   7  -2    4.94    0.50
 -11   4  -2    4.89    0.69
   7 -11  -2    4.77    0.53
  -4  -7   2    5.04    0.52
  -4  -7   2    5.20    0.54
  11  -4   2    5.86    0.51
 -11   5  -2   22.56    2.22
   5   6  -2   23.94    1.83
   6 -11  -2   22.79    1.85
 -11   5  -2   22.17    1.84
  -5  -6   2   21.91    1.85
  11  -5   2   21.88    1.54
  -5  -6   2   21.42    1.72
  11  -5   2   21.32    1.84
  -6  11   2   21.23    1.53
 -11   6  -2   14.76    1.74
 -11   6  -2   15.11    1.43
   6   5  -2   15.74    1.42
 -11   6  -2   15.23    1.64
  -6  -5   2   18.75    1.46
  11  -6   2   18.79    1.23
  -6  -5   2   17.92    1.35
  -5  11   2   19.59    1.20
  11  -6   2   17.59    1.43
 -11   7  -2    0.56    0.39
 -11   7  -2    0.72    0.29
 -11   7  -2    1.06    0.22
  -4  11   2    0.65    0.21
  -7  -4   2    0.63    0.22
  11  -7   2    0.95    0.27
  11  -7   2    0.70    0.20
 -11   8  -2   27.51    2.18
 -11   8  -2   25.89    2.30
  -3  11   2   21.46    1.56
  -8  -3   2   19.87    1.77
  11  -8   2   20.74    1.59
  11  -9   2   10.32    0.82
  -9  -2   2   10.55    0.91
  -2  11   2   10.78    0.79
 -11  10  -2    6.39    0.81
 -11  10  -2    6.25    0.92
  11 -10   2    6.33    0.61
  -1  11   2    7.11    0.56
 -10  -1   2    7.52    0.68
 -11  11  -2   10.40    1.12
 -11  11  -2    9.26    0.96
 -11   0   2    7.72    0.76
  11 -11   2    7.44    0.70
   0  11   2    7.78    0.64
  12  -1  -2   30.06    1.95
 -11  12  -2   28.59    2.71
 -11  12  -2   29.07    2.86
 -12   1   2   28.08    2.22
  11 -12   2   27.96    1.97
   1  11   2   27.93    1.93
 -11  13  -2    5.37    0.73
 -11  13  -2    5.03    0.81
  13  -2  -2    5.37    0.49
  11 -13   2    4.88    0.55
  11 -13   2    5.34    0.52
 -13   2   2    4.56    0.54
  14  -3  -2    6.09    0.62
 -11  14  -2    6.18    0.89
 -11  14  -2    6.12    0.95
  11 -14   2    8.24    0.71
  11 -14   2    8.33    0.69
 -14   3   2    7.90    0.73
  15  -4  -2   14.09    1.01
 -11  15  -2   13.13    1.39
 -11  15  -2   12.93    1.51
 -15   4   2   12.34    1.13
  11 -15   2   11.06    1.05
 -11  16  -2    4.96    0.78
 -11  16  -2    6.03    0.88
  16  -5  -2    5.02    0.56
 -16   5   2    4.71    0.60
  11 -16   2    5.32    0.59
  17  -6  -2    1.02    0.37
 -11  17  -2    0.52    0.57
 -11  17  -2    0.25    0.46
 -17   6   2    0.41    0.37
  11 -17   2    0.36    0.33
 -11  18  -2    1.84    0.65
 -11  18  -2    1.53    0.55
  18  -7  -2    1.76    0.44
 -18   7   2    1.65    0.42
  19  -8  -2    0.10    0.41
 -11  19  -2    0.25    0.50
 -11  19  -2    0.69    0.60
 -19   8   2    0.69    0.40
  20  -9  -2    2.36    0.50
 -11  20  -2    2.15    0.61
 -20   9   2    0.57    0.42
  21 -10  -2    0.62    0.48
 -11  21  -2    0.85    0.58
 -21  10   2    2.19    0.47
  22 -11  -2    0.55    0.48
 -11  22  -2    0.78    0.55
 -22  11   2    0.50    0.43
  23 -12  -2    1.75    0.51
 -11  23  -2    1.47    0.58
 -10  22  -2    1.36    0.61
  22 -12  -2    1.61    0.52
  21 -12  -2    3.54    0.59
  -9  21  -2    2.83    0.67
  -8  20  -2    4.10    0.77
  20 -12  -2    4.37    0.62
  19 -12  -2    1.14    0.45
  -7  19  -2    2.09    0.58
  -6  18  -2   17.78    1.82
 -12  -6  -2   17.33    1.45
  18 -12  -2   17.19    1.35
 -12  -5  -2    5.99    0.63
  -5  17  -2    5.76    0.85
  12   5   2    6.39    0.60
 -12  -4  -2    3.83    0.46
  -4  16  -2    3.24    0.59
   4 -16   2    1.97    0.40
  12   4   2    2.08    0.36
 -12  -3  -2   21.63    1.68
  -3  15  -2   21.39    2.09
   3 -15   2   20.89    1.69
  12   3   2   20.10    1.48
  -2  14  -2   13.28    1.46
 -12  -2  -2   14.14    1.20
   2 -14   2   14.32    1.17
  12   2   2   14.16    1.05
 -12  -1  -2    5.98    0.69
  12   1   2    6.56    0.59
   1 -13   2    6.95    0.67
   0 -12   2   76.14    5.62
  12   0   2   73.43    4.95
  12  -1   2   20.00    1.41
  -1 -11   2   19.71    1.57
  -2 -10   2    8.32    0.74
  12  -2   2    8.29    0.72
  12  -3   2   11.59    0.90
  -3  -9   2   11.63    0.97
  12  -4   2   37.73    2.56
  -4  -8   2   37.95    2.88
 -12   5  -2    9.76    1.11
   5   7  -2    9.18    0.83
  12  -5   2    9.33    0.79
  -5  -7   2    9.00    0.80
 -12   6  -2   10.82    1.12
  -6  12   2    8.24    0.72
  12  -6   2    9.70    0.76
  -6  -6   2    8.56    0.79
 -12   7  -2   10.45    1.23
 -12   7  -2   10.29    0.96
  12  -7   2    9.75    0.95
  -5  12   2   11.57    0.83
  12  -7   2   12.17    0.86
  -7  -5   2   11.79    0.93
 -12   8  -2   39.34    3.89
 -12   8  -2   37.57    4.09
  -8  -4   2   44.23    3.23
  12  -8   2   46.41    2.87
  -4  12   2   44.54    2.83
  -3  12   2   12.14    0.88
  12  -9   2   11.42    0.94
  -9  -3   2   11.68    1.00
 -12  10  -2   16.56    1.52
 -12  10  -2   15.69    1.62
  -2  12   2   13.55    1.07
 -10  -2   2   15.12    1.23
  12 -10   2   14.11    1.10
 -12  11  -2   30.28    2.94
 -12  11  -2   30.52    2.79
  12 -11   2   26.97    2.03
  -1  12   2   30.11    1.99
 -11  -1   2   29.22    2.28
   0  12   2   42.93    2.87
  12 -12   2   43.18    2.92
 -12   0   2   43.45    3.30
 -12  13  -2    4.80    0.77
 -12  13  -2    5.78    0.72
  12 -13   2    4.61    0.49
 -13   1   2    3.72    0.52
  14  -2  -2   18.30    1.22
 -12  14  -2   16.39    1.70
 -12  14  -2   17.40    1.81
  12 -14   2   15.53    1.24
  12 -14   2   15.50    1.31
 -14   2   2   16.05    1.37
 -12  15  -2   21.83    2.29
  15  -3  -2   22.00    1.55
 -12  15  -2   20.62    2.14
 -15   3   2   21.29    1.74
  12 -15   2   22.25    1.68
 -12  16  -2   -0.37    0.53
  16  -4  -2    0.23    0.31
 -12  16  -2   -0.03    0.43
  12 -16   2    0.48    0.33
 -16   4   2    0.53    0.34
  17  -5  -2    6.76    0.63
 -12  17  -2    6.18    0.93
 -12  17  -2    5.57    0.86
 -17   5   2    5.40    0.68
 -12  18  -2    6.50    0.96
 -12  18  -2    6.86    1.03
  18  -6  -2    6.61    0.69
 -18   6   2    7.50    0.82
 -12  19  -2    3.73    0.78
  19  -7  -2    4.90    0.60
 -12  19  -2    4.89    0.85
 -19   7   2    2.74    0.56
  20  -8  -2    9.45    0.86
 -12  20  -2    9.28    1.18
 -20   8   2    7.50    0.88
 -12  21  -2    1.83    0.62
  21  -9  -2    1.88    0.50
 -21   9   2    2.92    0.53
  22 -10  -2    0.48    0.45
 -12  22  -2    0.12    0.52
 -22  10   2    1.09    0.45
 -12  23  -2    2.59    0.65
  23 -11  -2    2.44    0.55
 -23  11   2    0.89    0.47
  23 -13  -2    0.85    0.50
 -10  23  -2    0.40    0.52
  22 -13  -2    0.61    0.50
  -9  22  -2    0.15    0.54
  -8  21  -2    2.30    0.64
  21 -13  -2    2.98    0.55
  -7  20  -2    4.01    0.75
  20 -13  -2    3.75    0.63
  -6  19  -2    0.85    0.50
  19 -13  -2    0.22    0.45
 -13  -6  -2    1.08    0.39
 -13  -5  -2    1.01    0.36
  -5  18  -2    0.94    0.51
  18 -13  -2    1.30    0.42
  -4  17  -2    1.73    0.54
 -13  -4  -2    1.60    0.40
  13   4   2    1.87    0.36
 -13  -3  -2    3.43    0.49
  -3  16  -2    2.89    0.62
  13   3   2    3.34    0.41
   3 -16   2    3.35    0.47
  -2  15  -2    3.50    0.68
 -13  -2  -2    3.10    0.50
  13   2   2    5.26    0.48
   2 -15   2    5.33    0.53
 -13  -1  -2    0.58    0.30
   1 -14   2    0.24    0.27
  13   1   2    0.20    0.28
 -13   0  -2    4.44    0.55
   0 -13   2    4.69    0.50
  13   0   2    4.41    0.47
 -13   1  -2    5.25    0.64
  -1 -12   2    6.37    0.65
  13  -1   2    7.71    0.64
  -2 -11   2    6.78    0.68
  13  -2   2    6.99    0.64
  -3 -10   2   13.41    1.11
  13  -3   2   13.74    1.02
  -4  -9   2    4.66    0.49
  13  -4   2    3.50    0.43
  13  -5   2    3.01    0.40
  -5  -8   2    3.09    0.38
 -13   6  -2   27.34    2.71
  13  -6   2   27.30    1.88
  -6  -7   2   26.58    2.09
 -13   7  -2   13.21    1.45
  -7  -6   2   13.25    1.08
  13  -7   2   12.41    1.00
 -13   8  -2    5.04    0.74
  -8  -5   2    4.75    0.51
  -5  13   2    4.61    0.46
  13  -8   2    4.42    0.48
  13  -9   2    5.45    0.55
  -4  13   2    5.40    0.53
  -9  -4   2    5.81    0.60
 -13  10  -2    8.23    0.98
 -13  10  -2    7.66    0.86
  13 -10   2    5.84    0.61
 -10  -3   2    6.36    0.67
  -3  13   2    6.09    0.58
 -13  11  -2    4.59    0.68
 -13  11  -2    5.18    0.79
  13 -11   2    5.12    0.52
  -2  13   2    5.09    0.47
 -11  -2   2    5.11    0.55
 -13  12  -2    4.78    0.67
 -13  12  -2    4.13    0.72
  13 -12   2    4.14    0.49
 -12  -1   2    4.16    0.52
 -13  13  -2    5.21    0.72
 -13  13  -2    4.74    0.64
 -13   0   2    2.13    0.43
  13 -13   2    2.33    0.40
 -13  14  -2    0.00    0.39
 -13  14  -2   -0.23    0.49
  13 -14   2    0.25    0.31
  13 -14   2    0.52    0.32
 -14   1   2    0.27    0.32
  15  -2  -2    9.99    0.80
 -13  15  -2   10.15    1.28
 -13  15  -2    9.74    1.13
 -15   2   2    8.09    0.89
  13 -15   2    8.42    0.85
  13 -15   2    9.00    0.83
 -13  16  -2    0.49    0.49
 -13  16  -2    0.81    0.56
  16  -3  -2    1.27    0.35
 -16   3   2    0.39    0.35
  13 -16   2    1.24    0.38
 -13  17  -2    0.45    0.49
  17  -4  -2    1.01    0.35
 -13  17  -2    0.25    0.59
 -17   4   2    0.55    0.40
 -13  18  -2    2.29    0.70
 -13  18  -2    3.00    0.66
  18  -5  -2    2.55    0.47
 -18   5   2    2.21    0.48
  19  -6  -2    2.17    0.44
 -13  19  -2    2.23    0.67
 -13  19  -2    1.45    0.57
 -19   6   2   -0.04    0.42
  20  -7  -2    2.50    0.49
 -13  20  -2    2.25    0.66
 -13  20  -2    2.99    0.76
 -20   7   2    3.36    0.56
 -13  21  -2    5.36    0.91
  21  -8  -2    5.78    0.69
 -21   8   2    7.97    0.83
  22  -9  -2    0.52    0.45
 -13  22  -2    0.63    0.55
 -22   9   2    0.40    0.45
  23 -10  -2    0.68    0.45
 -13  23  -2    0.63    0.58
 -23  10   2    0.67    0.48
  23 -14  -2    0.75    0.53
  22 -14  -2    0.51    0.50
  -8  22  -2    1.61    0.58
  21 -14  -2    3.49    0.62
  -7  21  -2    3.42    0.71
  20 -14  -2    5.92    0.76
  -6  20  -2    7.32    0.97
 -14  -5  -2    0.63    0.36
  19 -14  -2    0.66    0.46
  -5  19  -2    0.66    0.50
  18 -14  -2    1.28    0.48
  -4  18  -2    1.12    0.53
 -14  -4  -2    1.46    0.40
  -3  17  -2    1.46    0.51
 -14  -3  -2    1.43    0.42
  14   3   2    0.82    0.33
 -14  -2  -2    5.90    0.68
  -2  16  -2    6.06    0.87
  14   2   2    6.39    0.59
 -14  -1  -2    1.60    0.40
  -1  15  -2    1.18    0.49
  14   1   2    2.05    0.36
   1 -15   2    1.56    0.34
 -14   0  -2    6.50    0.83
  14   0   2   10.29    0.80
   0 -14   2   10.10    0.84
 -14   1  -2    0.15    0.33
  -1 -13   2    0.25    0.27
  14  -1   2    0.77    0.31
 -14   2  -2   13.67    1.19
  14  -2   2   13.34    1.07
  -2 -12   2   14.27    1.16
  14  -3   2   14.79    1.11
  -3 -11   2   13.96    1.19
  -4 -10   2    3.35    0.41
  14  -4   2    2.89    0.41
  -5  -9   2    5.39    0.57
  14  -5   2    5.13    0.53
  -6  -8   2    4.57    0.53
  14  -6   2    4.87    0.52
 -14   7  -2    1.42    0.54
  14  -7   2    1.31    0.32
  -7  -7   2    1.16    0.31
 -14   8  -2    1.01    0.48
  -8  -6   2    0.56    0.26
  14  -8   2    0.64    0.31
 -14   9  -2    2.19    0.62
  14  -9   2    3.19    0.41
  -9  -5   2    2.99    0.41
  -5  14   2    3.07    0.37
 -14  10  -2    2.65    0.63
  14 -10   2    2.79    0.40
  -4  14   2    2.08    0.34
 -10  -4   2    2.21    0.38
 -14  11  -2    6.41    1.01
 -14  11  -2    7.13    0.96
  -3  14   2    8.35    0.67
 -11  -3   2    8.21    0.76
  14 -11   2    8.10    0.72
 -14  12  -2   17.80    1.70
 -14  12  -2   15.48    1.81
 -12  -2   2   17.66    1.40
  14 -12   2   15.15    1.23
 -14  13  -2    0.46    0.57
 -14  13  -2    0.01    0.40
 -13  -1   2    0.19    0.32
  14 -13   2    0.56    0.33
 -14  14  -2    9.28    0.99
 -14  14  -2    9.40    1.11
 -14   0   2    5.69    0.74
  14 -14   2    6.18    0.67
 -14  15  -2    4.20    0.72
 -14  15  -2    4.94    0.83
  14 -15   2    4.51    0.53
  14 -15   2    4.37    0.55
 -15   1   2    4.08    0.57
 -14  16  -2    4.11    0.79
 -14  16  -2    3.62    0.69
 -16   2   2    4.21    0.57
  14 -16   2    4.32    0.52
 -14  17  -2    3.24    0.70
 -14  17  -2    3.20    0.77
 -17   3   2    5.55    0.61
  18  -4  -2    0.96    0.38
 -14  18  -2    1.76    0.59
 -14  18  -2    2.12    0.69
 -18   4   2    1.19    0.44
 -14  19  -2    0.37    0.53
 -14  19  -2    1.04    0.64
  19  -5  -2    0.99    0.42
 -19   5   2    0.81    0.46
 -14  20  -2    6.75    1.03
 -14  20  -2    4.70    0.89
  20  -6  -2    6.36    0.67
 -20   6   2    6.82    0.77
  21  -7  -2    2.24    0.51
 -14  21  -2    2.55    0.69
 -21   7   2    3.16    0.57
  22  -8  -2    1.76    0.51
 -14  22  -2    2.10    0.65
 -22   8   2    1.47    0.54
  23  -9  -2    1.86    0.51
 -14  23  -2    1.79    0.64
 -23   9   2    0.65    0.47
  23 -15  -2    0.70    0.49
  22 -15  -2    1.17    0.52
  21 -15  -2    3.48    0.64
  20 -15  -2    0.19    0.48
 -15  -5  -2    0.62    0.39
  -5  20  -2    0.35    0.50
 -15  -4  -2    1.91    0.47
  -4  19  -2    2.92    0.64
  19 -15  -2    2.33    0.51
 -15  -3  -2    3.99    0.59
  -3  18  -2    4.75    0.76
  18 -15  -2    4.33    0.63
  15   3   2    4.73    0.51
  -2  17  -2    6.25    0.87
 -15  -2  -2    7.61    0.74
  15   2   2    4.68    0.58
 -15  -1  -2    1.02    0.41
  -1  16  -2    1.56    0.54
  15   1   2    2.15    0.38
 -15   0  -2    4.46    0.66
   0  15  -2    5.62    0.84
   0 -15   2    7.64    0.72
  15   0   2    7.26    0.63
 -15   1  -2    1.20    0.40
  -1 -14   2    2.22    0.37
  15  -1   2    1.37    0.37
 -15   2  -2    3.70    0.59
  15  -2   2    6.37    0.57
  -2 -13   2    5.58    0.61
 -15   3  -2   20.75    1.66
  15  -3   2   19.83    1.49
  -3 -12   2   20.09    1.63
  15  -4   2   26.35    1.86
  -4 -11   2   26.59    2.07
  15  -5   2    2.21    0.40
  -5 -10   2    2.42    0.39
  15  -6   2    8.89    0.80
  -6  -9   2    8.14    0.80
  -7  -8   2   11.13    0.96
  15  -7   2   10.88    0.92
  -8  -7   2   26.70    2.10
  15  -8   2   26.60    1.88
  15  -9   2   16.51    1.28
  -9  -6   2   16.71    1.36
 -15  10  -2    1.07    0.54
 -10  -5   2    1.67    0.36
  15 -10   2    1.61    0.38
 -15  11  -2   13.19    1.49
  15 -11   2   12.57    1.03
 -11  -4   2   11.80    1.09
 -15  12  -2   21.90    2.36
  15 -12   2   22.42    1.63
 -12  -3   2   23.33    1.82
 -15  13  -2    9.70    1.21
 -13  -2   2    9.81    0.92
  15 -13   2    7.35    0.80
 -15  14  -2    5.30    0.78
 -15  14  -2    5.35    0.86
 -14  -1   2    4.72    0.62
  15 -14   2    3.68    0.54
 -15  15  -2    8.32    1.06
 -15  15  -2    8.84    1.17
  15 -15   2    8.20    0.80
 -15   0   2    7.15    0.84
 -15  16  -2    8.56    1.15
 -15  16  -2    7.68    1.04
  15 -16   2    7.06    0.73
 -16   1   2    7.33    0.83
 -15  17  -2    1.00    0.66
 -15  17  -2    0.82    0.56
 -17   2   2    2.30    0.50
 -15  18  -2    6.43    1.05
 -15  18  -2    6.30    0.96
 -18   3   2    7.55    0.82
 -15  19  -2    1.98    0.63
 -15  19  -2    0.67    0.65
 -19   4   2    0.90    0.48
 -15  20  -2    3.76    0.79
 -15  20  -2    5.28    0.88
 -20   5   2    3.10    0.62
 -15  21  -2    1.45    0.64
  21  -6  -2    0.90    0.44
 -21   6   2    1.43    0.51
  22  -7  -2    0.94    0.46
 -22   7   2    2.06    0.56
  23  -8  -2    0.29    0.45
 -23   8   2    0.06    0.47
  23 -16  -2    0.22    0.48
  22 -16  -2    3.37    0.61
 -16  -5  -2    0.41    0.42
  21 -16  -2    0.42    0.50
 -16  -4  -2   14.88    1.30
  20 -16  -2   14.08    1.22
  19 -16  -2    6.35    0.77
 -16  -3  -2    7.34    0.82
 -16  -2  -2    4.76    0.60
  16   2   2    2.97    0.48
 -16  -1  -2    2.78    0.54
  16   1   2    3.31    0.45
   0  16  -2   15.18    1.55
 -16   0  -2   14.25    1.29
  16   0   2   13.46    1.12
 -16   1  -2    1.55    0.46
  -1 -15   2    2.33    0.40
  16  -1   2    1.93    0.39
 -16   2  -2    5.51    0.71
  16  -2   2    6.10    0.61
  -2 -14   2    6.48    0.69
 -16   3  -2    3.09    0.53
  -3 -13   2    3.55    0.46
  16  -3   2    3.27    0.46
 -16   4  -2    4.01    0.52
  16  -4   2    1.80    0.43
  -4 -12   2    2.39    0.41
  -5 -11   2    3.16    0.43
  16  -5   2    2.98    0.45
  16  -6   2    1.66    0.37
  -6 -10   2    1.30    0.35
  16  -7   2    5.58    0.61
  -7  -9   2    5.90    0.64
  -8  -8   2   47.58    3.60
  16  -8   2   46.81    3.21
  -9  -7   2    2.04    0.40
  16  -9   2    2.83    0.43
  16 -10   2    1.77    0.43
 -10  -6   2    2.56    0.40
 -16  11  -2    5.29    0.88
  16 -11   2    4.93    0.57
 -11  -5   2    5.03    0.60
 -16  12  -2    0.15    0.55
 -12  -4   2    0.73    0.34
  16 -12   2    0.88    0.38
 -16  13  -2    1.06    0.66
 -13  -3   2    1.23    0.39
  16 -13   2    1.57    0.42
 -16  14  -2    3.58    0.80
  16 -14   2    3.34    0.51
 -14  -2   2    4.37    0.56
 -16  15  -2    8.25    1.10
 -15  -1   2    7.29    0.81
  16 -15   2    5.96    0.69
 -16  16  -2    7.60    1.22
  16 -16   2   10.42    0.88
 -16   0   2   10.22    0.98
 -16  17  -2    1.68    0.68
 -17   1   2    1.99    0.49
  16 -17   2    2.30    0.45
 -16  18  -2    0.34    0.64
 -18   2   2    0.76    0.47
 -16  19  -2    4.91    0.96
 -19   3   2    5.89    0.74
 -16  20  -2   12.60    1.58
 -20   4   2   12.89    1.23
 -16  21  -2    1.25    0.72
 -21   5   2    0.47    0.48
 -22   6   2    1.98    0.55
 -23   7   2    0.43    0.48
  22 -17  -2   -0.05    0.48
 -17  -4  -2    2.61    0.54
  21 -17  -2    2.72    0.60
  20 -17  -2    5.65    0.73
 -17  -3  -2    6.52    0.74
 -17  -2  -2    4.71    0.64
  19 -17  -2    4.39    0.63
 -17  -1  -2    3.47    0.61
  17   1   2    4.19    0.51
 -17   0  -2    1.17    0.47
  17   0   2    1.13    0.40
 -17   1  -2    2.88    0.54
  17  -1   2    3.09    0.48
 -17   2  -2    6.64    0.68
  -2 -15   2    4.21    0.58
  17  -2   2    4.37    0.56
 -17   3  -2    1.42    0.49
  -3 -14   2    1.03    0.35
  17  -3   2    1.14    0.40
 -17   4  -2    2.09    0.48
  -4 -13   2    1.27    0.36
  17  -4   2    1.23    0.41
 -17   5  -2    6.51    0.74
  17  -5   2    6.26    0.66
  -5 -12   2    6.80    0.71
  17  -6   2    1.51    0.40
  -6 -11   2    0.90    0.35
  -7 -10   2    2.36    0.42
  17  -7   2    1.46    0.40
  -8  -9   2    2.15    0.39
  17  -8   2    2.29    0.44
  17  -9   2    6.72    0.72
  -9  -8   2    7.64    0.77
 -10  -7   2    1.66    0.41
  17 -10   2    2.46    0.44
  17 -11   2    0.31    0.38
 -11  -6   2    0.56    0.34
  17 -12   2    5.20    0.62
 -12  -5   2    5.34    0.64
 -17  13  -2    0.84    0.63
  17 -13   2    0.37    0.36
 -13  -4   2    0.81    0.38
 -17  14  -2    4.34    0.90
 -14  -3   2    5.75    0.68
  17 -14   2    5.12    0.61
 -17  15  -2    0.79    0.65
  17 -15   2    2.81    0.47
 -15  -2   2    1.83    0.46
 -17  16  -2    1.78    0.75
 -16  -1   2    2.32    0.50
  17 -16   2    2.59    0.48
 -17  17  -2   13.44    1.43
 -17   0   2    9.63    1.05
  17 -17   2    8.23    0.87
 -17  18  -2    2.58    0.82
 -18   1   2    3.71    0.60
  17 -18   2    3.95    0.55
 -17  19  -2    2.49    0.76
 -19   2   2    2.05    0.56
 -17  20  -2    1.22    0.70
 -20   3   2    3.26    0.60
 -17  21  -2    7.11    1.11
 -21   4   2    8.04    0.90
 -22   5   2   -0.01    0.51
  22 -18  -2    0.85    0.51
 -18  -4  -2    0.33    0.43
  21 -18  -2    3.33    0.64
 -18  -3  -2    2.92    0.58
 -18  -2  -2    1.91    0.50
  20 -18  -2    1.70    0.55
 -18  -1  -2    1.99    0.52
  19 -18  -2    2.81    0.58
  18   1   2    2.39    0.46
 -18   0  -2   -0.24    0.46
  18   0   2    1.06    0.41
 -18   1  -2    3.52    0.61
  18  -1   2    3.30    0.50
 -18   2  -2    4.58    0.65
  18  -2   2    3.34    0.53
 -18   3  -2    4.76    0.67
  18  -3   2    4.93    0.60
  -3 -15   2    4.73    0.58
 -18   4  -2    1.49    0.48
  18  -4   2    0.19    0.37
  -4 -14   2    0.63    0.35
 -18   5  -2    0.50    0.44
  18  -5   2    0.76    0.41
  -5 -13   2    1.20    0.37
 -18   6  -2   18.96    1.44
  18  -6   2   15.47    1.28
  -6 -12   2   14.21    1.34
  18  -7   2    0.42    0.41
  -7 -11   2    0.83    0.34
  18  -8   2    7.02    0.72
  -8 -10   2    7.69    0.80
  18  -9   2    7.81    0.78
  -9  -9   2    7.66    0.80
 -10  -8   2   12.97    1.14
  18 -10   2   12.03    1.06
 -11  -7   2    1.69    0.41
  18 -11   2    1.57    0.44
 -12  -6   2    9.92    0.93
  18 -12   2    8.86    0.88
  18 -13   2    1.69    0.45
 -13  -5   2    2.25    0.47
  18 -14   2    1.37    0.43
 -14  -4   2    1.49    0.47
 -15  -3   2   10.14    0.98
  18 -15   2    8.91    0.87
 -18  16  -2    0.31    0.69
  18 -16   2    1.09    0.44
 -16  -2   2    0.82    0.44
 -18  17  -2    2.07    0.82
  18 -17   2    4.20    0.56
 -17  -1   2    3.69    0.61
 -18  18  -2    3.57    0.82
 -18   0   2    0.76    0.50
  18 -18   2    1.04    0.47
 -18  19  -2    1.77    0.77
 -19   1   2    2.82    0.58
 -18  20  -2    1.60    0.74
 -20   2   2    0.50    0.50
 -21   3   2    3.39    0.61
 -22   4   2    1.13    0.52
  21 -19  -2    0.11    0.52
 -19  -2  -2    0.51    0.45
 -19  -1  -2    0.19    0.45
  20 -19  -2    0.69    0.51
  19 -19  -2    6.87    0.80
 -19   0  -2    6.98    0.83
  19   0   2    7.14    0.70
  18 -19  -2    2.15    0.57
 -19   1  -2    2.45    0.59
  19  -1   2    2.78    0.49
 -19   2  -2    3.71    0.64
  19  -2   2    3.96    0.55
 -19   3  -2    7.36    0.83
  19  -3   2    5.98    0.70
 -19   4  -2    2.03    0.53
  19  -4   2    3.36    0.53
 -19   5  -2    0.34    0.45
  19  -5   2   -0.25    0.37
  -5 -14   2    0.66    0.38
 -19   6  -2    0.59    0.47
  -6 -13   2    2.14    0.42
  19  -6   2    1.89    0.45
 -19   7  -2    1.53    0.51
  -7 -12   2    3.46    0.48
  19  -7   2    2.45    0.48
 -19   8  -2    0.80    0.48
  -8 -11   2    0.28    0.37
  19  -8   2    0.56    0.43
  -9 -10   2    6.37    0.69
  19  -9   2    5.27    0.63
  19 -10   2    1.47    0.44
 -10  -9   2    1.89    0.41
 -11  -8   2    0.58    0.37
  19 -11   2    0.63    0.42
 -12  -7   2    2.02    0.47
  19 -12   2    2.80    0.50
 -13  -6   2    1.26    0.42
  19 -13   2    0.74    0.45
 -14  -5   2    0.89    0.41
  19 -14   2    0.77    0.45
 -15  -4   2    0.82    0.46
  19 -15   2    0.97    0.45
  19 -16   2    5.64    0.69
 -16  -3   2    5.65    0.74
  19 -17   2    3.14    0.54
 -17  -2   2    3.21    0.60
 -18  -1   2    2.45    0.57
  19 -18   2    2.97    0.52
 -19   0   2    2.72    0.61
  19 -19   2    3.49    0.56
 -20   1   2    0.25    0.49
 -21   2   2   -0.38    0.46
 -20  -1  -2    0.37    0.48
  20 -20  -2    2.06    0.57
 -20   0  -2    2.59    0.56
 -20   1  -2    0.91    0.51
  19 -20  -2    0.85    0.51
  20  -1   2    0.61    0.41
  18 -20  -2    2.42    0.57
 -20   2  -2    1.59    0.57
  20  -2   2    3.37    0.50
 -20   3  -2    5.82    0.78
  20  -3   2    6.08    0.68
 -20   4  -2   14.43    1.36
  20  -4   2   14.64    1.19
 -20   5  -2    0.63    0.50
  20  -5   2    1.55    0.46
 -20   6  -2    7.04    0.85
  20  -6   2    7.12    0.75
  -6 -14   2    6.88    0.77
 -20   7  -2    3.81    0.69
  20  -7   2    3.99    0.59
  -7 -13   2    4.05    0.55
 -20   8  -2    4.74    0.76
  20  -8   2    6.81    0.72
  -8 -12   2    7.43    0.75
 -20   9  -2    1.81    0.52
  20  -9   2    1.27    0.47
  -9 -11   2    1.17    0.42
 -20  10  -2    2.16    0.56
 -10 -10   2    2.78    0.50
  20 -10   2    3.24    0.53
 -11  -9   2    0.64    0.39
  20 -11   2    0.90    0.45
  20 -12   2    8.09    0.82
 -12  -8   2    8.29    0.88
  20 -13   2    2.12    0.54
 -13  -7   2    2.98    0.55
  20 -14   2    6.35    0.76
 -14  -6   2    7.40    0.81
  20 -15   2    2.69    0.54
 -15  -5   2    2.88    0.54
  20 -16   2   11.00    1.10
 -16  -4   2   12.57    1.16
 -17  -3   2    2.54    0.55
  20 -17   2    2.67    0.56
  20 -18   2    0.33    0.47
 -18  -2   2    0.44    0.49
  20 -19   2    0.62    0.48
 -19  -1   2   -0.33    0.47
 -20   0   2    2.65    0.59
 -21   1   2    0.18    0.49
 -21   1  -2    0.68    0.48
  19 -21  -2    1.21    0.53
 -21   2  -2    0.65    0.50
  21  -2   2   -0.01    0.41
  18 -21  -2    3.40    0.61
 -21   3  -2    3.21    0.64
  21  -3   2    1.85    0.49
  17 -21  -2    2.96    0.58
 -21   4  -2    3.20    0.62
  21  -4   2    2.25    0.50
 -21   5  -2    0.34    0.50
  21  -5   2   -0.39    0.45
 -21   6  -2    4.07    0.64
  21  -6   2    1.35    0.49
 -21   7  -2    3.99    0.65
  21  -7   2    3.60    0.59
  -7 -14   2    3.87    0.55
 -21   8  -2    2.68    0.63
  -8 -13   2    2.89    0.50
  21  -8   2    2.95    0.55
 -21   9  -2    3.85    0.65
  21  -9   2    2.24    0.53
  -9 -12   2    2.38    0.51
 -21  10  -2    1.50    0.50
  21 -10   2    0.66    0.46
 -10 -11   2    0.24    0.40
 -21  11  -2    0.39    0.52
  21 -11   2    1.66    0.49
 -11 -10   2    1.94    0.46
 -21  12  -2    1.70    0.57
 -12  -9   2    2.14    0.48
  21 -12   2    2.67    0.51
  21 -13   2    6.47    0.74
 -13  -8   2    6.53    0.75
 -14  -7   2    3.04    0.58
  21 -14   2    4.28    0.61
 -15  -6   2    1.84    0.52
  21 -15   2    1.58    0.52
  21 -16   2    0.68    0.48
 -16  -5   2    0.24    0.44
 -17  -4   2    6.36    0.82
  21 -17   2    8.20    0.82
  21 -18   2    4.84    0.64
 -18  -3   2    3.66    0.64
 -19  -2   2    0.08    0.48
  21 -19   2    0.57    0.48
 -20  -1   2    0.44    0.50
 -22   4  -2    0.78    0.54
  18 -22  -2    1.36    0.53
  22  -4   2    0.77    0.45
 -22   5  -2    0.41    0.51
  17 -22  -2    0.74    0.50
  22  -5   2    0.31    0.43
 -22   6  -2    2.68    0.60
  22  -6   2    3.22    0.58
 -22   7  -2    1.11    0.54
  22  -7   2    1.55    0.48
 -22   8  -2    0.01    0.49
  22  -8   2    0.26    0.44
 -22   9  -2    0.99    0.54
  22  -9   2    1.12    0.47
  -9 -13   2    0.62    0.43
 -22  10  -2    0.88    0.57
  22 -10   2    0.33    0.46
 -10 -12   2    1.14    0.44
 -22  11  -2    0.94    0.53
  22 -11   2    0.54    0.46
 -11 -11   2    1.01    0.43
 -22  12  -2   -0.06    0.49
  22 -12   2    1.14    0.49
 -12 -10   2    1.20    0.46
 -22  13  -2    0.01    0.50
  22 -13   2    0.78    0.46
 -13  -9   2    0.14    0.43
 -22  14  -2    1.39    0.54
 -14  -8   2    1.88    0.49
  22 -14   2    1.19    0.48
  22 -15   2    1.53    0.50
 -15  -7   2    2.36    0.53
 -16  -6   2    1.36    0.50
  22 -16   2    1.24    0.48
  22 -17   2   -0.14    0.44
 -17  -5   2   -0.03    0.47
  22 -18   2    1.04    0.50
 -18  -4   2    1.27    0.51
 -23   7  -2    0.62    0.50
  23  -7   2    0.61    0.44
 -23   8  -2   -0.04    0.50
  23  -8   2    0.14    0.44
 -23   9  -2    1.35    0.54
  23  -9   2    1.97    0.49
 -23  10  -2    0.44    0.51
  23 -10   2    1.49    0.48
 -10 -13   2    0.36    0.43
 -23  11  -2    1.45    0.60
  23 -11   2    4.16    0.59
 -11 -12   2    3.84    0.56
 -23  12  -2    2.69    0.62
  23 -12   2    0.90    0.49
 -12 -11   2    1.13    0.48
 -23  13  -2    1.25    0.56
  23 -13   2    1.25    0.49
 -13 -10   2    1.14    0.50
 -23  14  -2    1.24    0.52
 -14  -9   2    0.28    0.46
  23 -14   2    0.75    0.46
 -23  15  -2    0.65    0.51
  23 -15   2    0.09    0.45
 -15  -8   2   -0.03    0.43
 -23  16  -2    0.78    0.53
 -16  -7   2    0.05    0.46
  23 -16   2    0.22    0.45
   0   0  -3   29.62    2.40
   0   0   3   29.47    2.13
   1   0   3    3.08    0.31
  -1   1   3    3.03    0.32
   0  -1   3    3.18    0.34
   1   0   3    2.90    0.30
   1   0  -3    7.62    0.63
   1   0  -3    7.81    0.62
  -1   1  -3    7.87    0.61
   0  -1  -3    7.72    0.62
   1  -1   3    5.95    0.57
  -1   0   3    6.24    0.57
   0   1   3    6.00    0.56
   2  -1  -3    0.78    0.15
   2  -1  -3    0.81    0.20
  -1  -1  -3    0.69    0.16
  -1   2  -3    0.98    0.15
   1   1   3    1.12    0.16
   1  -2   3    1.10    0.20
   1   1   3    1.16    0.17
  -1   3  -3  106.00    8.54
   3  -2  -3  102.10    8.55
   3  -2  -3  107.20    8.56
  -2  -1  -3  105.69    8.55
  -1   3  -3  108.34    8.53
   2   1   3  112.54    7.52
   1  -3   3  107.27    7.54
   2   1   3  109.06    8.55
   0   2  -3    1.68    0.21
   0   2  -3    1.58    0.23
  -2   0  -3    1.31    0.21
   2  -2  -3    1.44    0.21
   2  -2  -3    1.40    0.24
   2   0   3    2.32    0.22
   2   0   3    2.29    0.23
   0  -2   3    2.27    0.26
   1  -2  -3    0.94    0.17
   1   1  -3    0.74    0.17
  -2   1  -3    0.92    0.15
   1   1  -3    1.02    0.15
   2  -1   3    1.07    0.18
  -1  -1   3    1.03    0.20
   2  -1   3    0.96    0.16
   2   0  -3    1.39    0.19
  -2   2  -3    1.33    0.19
   0  -2  -3    1.34    0.21
   2   0  -3    1.14    0.22
   0   2   3    1.64    0.21
   2  -2   3    1.79    0.22
   0   2   3    1.58    0.18
   2  -2   3    1.75    0.20
  -1  -2  -3   43.78    3.65
  -2   3  -3   41.40    3.63
   3  -1  -3   43.13    3.66
   2  -3   3   48.40    3.24
   1   2   3   47.21    3.66
   1   2   3   49.54    3.21
   4  -2  -3   45.32    3.65
  -2   4  -3   47.54    3.62
  -2   4  -3   44.35    3.61
  -2  -2  -3   45.63    3.64
   2  -4   3   43.42    3.22
   2   2   3   45.51    3.19
   2   2   3   44.38    3.64
   2  -5   3   30.09    2.13
   2  -5   3   29.04    2.23
   3   2   3   29.63    2.38
   3   2   3   28.82    1.96
   4  -3  -3   49.56    4.07
  -1   4  -3   51.09    4.03
  -3  -1  -3   52.10    4.06
   4  -3  -3   50.47    4.06
  -1   4  -3   52.66    4.04
   3   1   3   48.13    4.05
   1  -4   3   50.93    3.60
   3   1   3   49.44    3.57
  -3   0  -3   97.03    7.93
   0   3  -3   99.72    7.93
   0   3  -3   96.21    7.91
   3  -3  -3   93.80    7.95
   3  -3  -3   98.04    7.94
   3   0   3  102.81    6.99
   3   0   3  103.52    7.93
   0  -3   3  105.27    7.01
  -3   1  -3  107.11    8.60
   1   2  -3  105.99    8.61
   2  -3  -3  106.58    8.61
   1   2  -3  104.46    8.60
   3  -1   3  112.86    8.60
   3  -1   3  109.56    7.59
  -1  -2   3  110.04    7.60
  -3   2  -3   42.56    3.54
   1  -3  -3   42.54    3.56
   2   1  -3   43.49    3.56
   3  -2   3   47.13    3.14
   3  -2   3   45.87    3.54
   0  -3  -3  112.62    8.84
  -3   3  -3  111.45    8.82
   3   0  -3  112.03    8.85
   0   3   3  109.87    8.84
   3  -3   3  111.52    7.79
   3  -3   3  108.09    8.82
   0   3   3  110.99    7.76
  -3   4  -3   19.42    1.75
  -1  -3  -3   18.78    1.78
   4  -1  -3   20.76    1.80
   3  -4   3   24.42    1.60
   1   3   3   22.70    1.78
   1   3   3   25.17    1.55
   5  -2  -3   57.48    4.26
  -3   5  -3   60.12    4.20
  -3   5  -3   60.54    4.21
  -2  -3  -3   57.85    4.24
   2   3   3   47.74    3.47
   3  -5   3   47.88    3.75
   3  -5   3   47.12    3.95
   2   3   3   48.37    4.23
   2   3   3   47.23    3.71
  -3   6  -3   33.96    2.69
   6  -3  -3   33.22    2.75
  -3  -3  -3   33.03    2.73
   3   3   3   34.91    2.73
   3  -6   3   33.22    2.43
   3  -6   3   33.86    2.56
   3   3   3   33.76    2.24
  -4  -3  -3    3.21    0.35
   7  -4  -3    2.77    0.37
   3  -7   3    2.68    0.33
   4   3   3    3.02    0.34
   4   3   3    2.84    0.29
   3  -7   3    2.99    0.35
  -2   6  -3   32.28    2.44
   6  -4  -3   32.74    2.51
  -2   6  -3   31.79    2.44
  -4  -2  -3   33.46    2.50
   2  -6   3   29.00    2.22
   4   2   3   28.40    2.48
  -6   4   3   29.97    2.05
   4   2   3   28.77    2.04
   2  -6   3   28.44    2.32
  -4  -1  -3    9.85    0.82
  -1   5  -3   10.30    0.78
  -1   5  -3    9.72    0.77
   5  -4  -3    9.50    0.83
   5  -4  -3    8.76    0.80
   4   1   3    8.90    0.80
   4   1   3    8.64    0.68
   1  -5   3    8.74    0.77
  -5   4   3    9.65    0.69
   1  -5   3    8.69    0.76
   0   4  -3   95.61    7.82
   4  -4  -3   95.54    7.85
  -4   0  -3   97.77    7.85
   0   4  -3   95.33    7.83
   4  -4  -3   92.36    7.87
   4   0   3  102.19    6.44
   4   0   3  100.97    7.85
   0  -4   3  105.31    6.94
   0  -4   3  101.05    7.32
   1   3  -3   52.37    4.03
  -4   1  -3   52.32    4.04
   3  -4  -3   48.56    4.04
   3  -4  -3   49.17    4.06
  -1  -3   3   49.50    3.58
   4  -1   3   50.17    4.04
   2  -4  -3   46.30    3.61
   2   2  -3   44.14    3.60
  -4   2  -3   45.21    3.59
   4  -2   3   43.96    3.59
   4  -2   3   44.04    3.18
   3   1  -3   19.10    1.79
   1  -4  -3   18.76    1.78
  -4   3  -3   19.59    1.77
   4  -3   3   25.59    1.77
  -1   4   3   24.22    1.79
   4  -3   3   24.49    1.60
  -4   4  -3  203.36   14.54
   0  -4  -3  195.16   14.57
   4   0  -3  195.56   14.57
   0   4   3  175.28   11.94
   4  -4   3  166.24   12.83
   4  -4   3  174.04   14.54
   0   4   3  172.03   14.56
  -4   5  -3    3.88    0.36
   5  -1  -3    3.70    0.42
  -1  -4  -3    4.64    0.41
   4  -5   3    3.63    0.40
   4  -5   3    4.72    0.44
   1   4   3    3.93    0.32
   1   4   3    3.91    0.39
   1   4   3    4.29    0.37
  -2  -4  -3   49.13    4.28
  -4   6  -3   51.04    4.23
  -4   6  -3   49.23    4.23
   4  -6   3   53.94    3.79
   2   4   3   57.33    4.28
   2   4   3   53.57    3.51
   2   4   3   56.83    3.73
   4  -6   3   55.30    4.00
  -3  -4  -3    1.43    0.26
   7  -3  -3    1.01    0.25
   3   4   3    1.74    0.25
   3   4   3    2.21    0.24
   3   4   3    1.92    0.18
   4  -7   3    2.00    0.28
   4  -7   3    2.04    0.29
   4  -8   3    3.48    0.41
   4  -8   3    3.81    0.40
   4   4   3    3.43    0.34
  -8   4   3    3.75    0.39
   5   4   3   11.02    0.82
  -9   5   3   11.79    0.90
   4  -9   3   10.13    0.89
   4  -9   3   10.92    0.93
   3  -8   3   24.73    1.84
   5   3   3   23.26    1.62
   3  -8   3   23.58    1.76
   7  -5  -3    0.57    0.20
  -5  -2  -3    0.47    0.20
   5   2   3    0.57    0.17
   2  -7   3    0.63    0.19
  -7   5   3    0.24    0.19
   2  -7   3    0.44    0.23
   5   2   3    0.50    0.18
   5   1   3   18.08    1.49
   1  -6   3   17.77    1.36
  -6   5   3   18.14    1.24
   5   1   3   18.08    1.24
   1  -6   3   18.04    1.40
   0   5  -3   14.72    1.09
   5  -5  -3   14.42    1.13
   0   5  -3   15.41    1.10
   5  -5  -3   14.10    1.16
  -5   0  -3   15.28    1.14
   0  -5   3   11.62    1.02
   5   0   3   12.57    1.12
  -5   5   3   11.72    0.94
   0  -5   3   10.95    1.05
   5   0   3   11.71    0.93
   1   4  -3   10.01    0.81
   4  -5  -3   10.20    0.85
  -5   1  -3    9.58    0.82
   4  -5  -3    9.68    0.83
   5  -1   3    8.90    0.69
  -4   5   3    9.61    0.71
  -1  -4   3    8.94    0.77
  -1  -4   3    9.30    0.77
   5  -1   3    9.41    0.82
  -2  -3   3   29.91    2.22
  -3   5   3   29.43    1.96
   5  -2   3   28.95    1.95
   5  -2   3   28.90    2.36
  -5   3  -3   60.33    4.31
   2  -5  -3   60.63    4.33
   3   2  -3   59.78    4.32
  -3  -2   3   46.94    4.02
   5  -3   3   47.87    4.30
  -2   5   3   47.84    3.54
   1  -5  -3    3.91    0.42
   4   1  -3    4.40    0.43
  -5   4  -3    4.18    0.38
  -4  -1   3    3.90    0.43
  -1   5   3    3.89    0.37
  -1   5   3    3.86    0.40
   5  -4   3    4.45    0.38
   5  -4   3    4.29    0.42
   5   0  -3   22.22    1.81
   0  -5  -3   22.97    1.80
  -5   5  -3   23.22    1.76
   5  -5   3   21.13    1.60
   0   5   3   21.97    1.80
  -5   0   3   20.90    1.67
   0   5   3   21.58    1.48
   5  -5   3   21.21    1.76
  -5   0   3   21.35    1.81
   6  -1  -3    1.58    0.23
  -1  -5  -3    1.42    0.22
   5  -6   3    0.57    0.21
   5  -6   3    0.67    0.22
   1   5   3    0.30    0.17
   1   5   3    0.37    0.16
  -6   1   3    0.61    0.17
  -6   1   3    0.63    0.23
   7  -2  -3    1.04    0.26
  -2  -5  -3    1.00    0.22
  -7   2   3    1.12    0.26
   5  -7   3    1.06    0.25
   5  -7   3    1.50    0.26
  -7   2   3    1.38    0.22
   2   5   3    1.43    0.22
   2   5   3    1.42    0.21
   3   5   3   20.78    1.42
   5  -8   3   19.06    1.54
   5  -8   3   21.90    1.63
  -8   3   3   21.17    1.60
  -9   4   3   17.86    1.37
   5  -9   3   16.26    1.32
   4   5   3   17.75    1.21
   5  -9   3   17.58    1.39
 -10   5   3    0.51    0.21
   5   5   3    0.26    0.19
   5 -10   3    0.75    0.25
   5 -10   3    0.36    0.25
 -11   6   3   14.37    1.22
   5 -11   3   15.46    1.25
   6   5   3   15.22    1.09
   5 -11   3   15.86    1.20
   4 -10   3    1.45    0.30
   6   4   3    1.57    0.24
   4 -10   3    1.30    0.31
 -10   6   3    1.72    0.26
   6   3   3   18.84    1.31
   3  -9   3   18.87    1.49
   3  -9   3   18.83    1.44
   2  -8   3   32.00    2.49
   6   2   3   33.86    2.20
   2  -8   3   32.42    2.39
   7  -6  -3   23.96    2.04
  -1   7  -3   24.15    1.97
  -6  -1  -3   25.50    2.03
  -1   7  -3   23.84    1.97
   1  -7   3   24.79    1.89
   6   1   3   25.10    1.67
   1  -7   3   24.68    1.82
   6   1   3   25.62    2.03
   6  -6  -3  106.96    8.58
   0   6  -3  115.03    8.55
  -6   0  -3  115.82    8.59
   6  -6  -3  108.59    8.60
   6   0   3  101.27    7.03
   6   0   3  104.20    8.57
   0  -6   3  106.60    8.00
  -6   6   3  105.16    7.04
   0  -6   3  102.88    7.58
  -1  -5   3   17.36    1.36
  -1  -5   3   17.22    1.31
   6  -1   3   18.11    1.44
  -5   6   3   17.34    1.21
   6  -1   3   17.03    1.20
   4  -6  -3   31.17    2.49
   4  -6  -3   30.25    2.51
   2   4  -3   32.20    2.47
  -6   2  -3   33.86    2.95
  -6   2  -3   31.70    2.48
   6  -2   3   29.08    2.05
   6  -2   3   29.38    2.48
  -4   6   3   28.90    2.05
  -2  -4   3   29.07    2.32
  -6   3  -3   35.75    3.28
   3   3  -3   33.48    2.77
   3  -6  -3   34.31    2.78
  -6   3  -3   31.98    2.76
  -3  -3   3   34.48    2.78
   6  -3   3   36.18    2.76
   6  -3   3   34.25    2.28
  -3   6   3   33.23    2.28
  -3  -3   3   34.85    2.59
  -6   4  -3   49.50    4.96
   4   2  -3   47.52    4.21
  -6   4  -3   48.59    4.19
   2  -6  -3   50.25    4.21
  -4  -2   3   56.54    4.23
  -2   6   3   53.49    3.46
   6  -4   3   55.64    3.46
   6  -4   3   56.41    4.19
  -4  -2   3   53.76    3.93
   1  -6  -3    1.39    0.20
  -6   5  -3    1.75    0.31
  -5  -1   3    0.52    0.22
   6  -5   3    0.35    0.13
   6  -5   3    0.57    0.17
  -1   6   3    0.67    0.18
  -5  -1   3    0.42    0.17
  -1   6   3    0.57    0.17
  -6   6  -3   74.07    6.33
  -6   6  -3   80.06    7.18
   0  -6  -3   73.94    6.37
   6   0  -3   69.02    6.37
  -6   0   3   83.79    6.39
   6  -6   3   81.47    5.63
   0   6   3   83.36    6.37
   0   6   3   80.55    5.22
  -6   0   3   82.88    5.94
   6  -6   3   86.46    6.33
   7  -1  -3   32.13    2.81
  -6   7  -3   33.78    2.75
  -6   7  -3   35.38    3.18
  -7   1   3   36.02    2.83
   1   6   3   34.89    2.30
  -7   1   3   35.02    2.61
   6  -7   3   33.21    2.49
   1   6   3   35.42    2.80
  -6   8  -3   23.57    2.22
   2   6   3   23.70    1.59
  -8   2   3   23.26    1.80
   6  -8   3   23.28    1.73
  -6   9  -3   24.04    2.30
   6  -9   3   24.81    1.89
   6  -9   3   23.51    1.79
  -9   3   3   25.34    1.86
   3   6   3   23.09    1.64
  -6  10  -3    1.63    0.39
   4   6   3    0.74    0.20
   6 -10   3    0.86    0.27
 -10   4   3    0.53    0.23
   6 -10   3    0.80    0.26
  -6  11  -3   19.71    1.71
   6 -11   3   16.11    1.38
   6 -11   3   16.02    1.31
   5   6   3   17.18    1.20
 -11   5   3   16.24    1.35
  -6  12  -3    6.61    0.72
   6   6   3    4.52    0.41
   6 -12   3    3.26    0.46
   6 -12   3    3.14    0.47
 -12   6   3    3.86    0.44
  -6  13  -3    8.73    1.20
   6 -13   3   11.13    0.92
   7   6   3   11.06    0.84
 -13   7   3   10.47    0.93
   6 -13   3   12.13    0.98
  -5  12  -3   12.27    1.55
   7   5   3   16.60    1.10
 -12   7   3   15.16    1.24
   5 -12   3   16.14    1.27
   5 -12   3   16.62    1.23
  -7  -4  -3   10.76    0.86
   4 -11   3    9.93    0.87
   4 -11   3   10.08    0.92
   7   4   3   10.21    0.78
   3 -10   3   13.33    1.11
   7   3   3   14.14    1.01
   3 -10   3   14.62    1.15
   2  -9   3    2.28    0.33
   2  -9   3    2.78    0.35
   7   2   3    2.24    0.29
   7   1   3   13.16    0.94
   1  -8   3   13.50    1.06
   1  -8   3   12.32    1.02
  -7   0  -3   21.36    1.92
  -7   0  -3   20.33    2.24
   7   0   3   25.14    1.92
   7   0   3   25.02    1.58
   0  -7   3   23.73    1.79
   0  -7   3   22.84    1.72
  -7   7   3   24.34    1.60
   6  -7  -3   23.05    2.05
   1   6  -3   24.38    2.00
  -7   1  -3   23.45    2.40
  -7   1  -3   26.03    2.04
  -1  -6   3   24.27    1.83
   7  -1   3   24.99    2.03
  -1  -6   3   25.43    1.90
   7  -1   3   25.65    1.68
  -6   7   3   25.59    1.69
   5  -7  -3    0.66    0.23
  -7   2  -3    0.75    0.20
   2   5  -3    0.66    0.16
  -7   2  -3    0.83    0.30
   5  -7  -3    0.74    0.19
  -2  -5   3    0.51    0.17
  -5   7   3    1.05    0.21
   7  -2   3    0.71    0.19
  -2  -5   3    0.60    0.18
   7  -2   3    0.21    0.16
  -7   3  -3    3.24    0.37
  -7   3  -3    3.77    0.52
   3   4  -3    3.44    0.36
   4  -7  -3    3.41    0.38
   7  -3   3    3.20    0.36
   7  -3   3    3.56    0.33
  -3  -4   3    3.01    0.36
  -4   7   3    3.37    0.34
  -3  -4   3    2.84    0.34
  -7   4  -3    1.52    0.41
   3  -7  -3    1.36    0.25
  -7   4  -3    1.60    0.24
   4   3  -3    1.27    0.24
   7  -4   3    1.89    0.23
  -3   7   3    1.98    0.24
  -4  -3   3    2.12    0.28
  -4  -3   3    1.93    0.24
   7  -4   3    1.87    0.24
  -7   5  -3    1.05    0.19
   5   2  -3    1.12    0.23
  -7   5  -3    1.27    0.40
   2  -7  -3    1.03    0.22
  -7   5  -3    1.19    0.29
  -2   7   3    1.34    0.22
   7  -5   3    1.49    0.22
  -5  -2   3    1.30    0.26
  -5  -2   3    1.66    0.23
   7  -5   3    1.28    0.18
  -7   6  -3   34.28    2.84
  -7   6  -3   36.09    3.25
   6   1  -3   33.65    2.87
  -7   6  -3   33.63    3.41
  -1   7   3   35.17    2.87
  -1   7   3   36.28    2.36
   7  -6   3   35.87    2.83
  -6  -1   3   34.32    2.67
  -6  -1   3   36.99    2.89
   7  -6   3   37.12    2.36
   7   0  -3   30.79    2.25
  -7   7  -3   29.39    2.55
  -7   7  -3   29.87    2.69
  -7   0   3   25.68    2.08
   0   7   3   25.98    1.84
   7  -7   3   24.55    1.99
   7  -7   3   26.29    1.84
  -7   0   3   26.45    2.27
  -7   8  -3   13.68    1.33
  -8   1   3   12.98    1.06
   1   7   3   13.04    0.94
   7  -8   3   12.54    1.03
   7  -8   3   13.77    0.95
   7  -9   3   11.85    0.83
   7  -9   3   10.61    0.90
  -9   2   3   11.99    0.94
   2   7   3   11.08    0.83
  -7  10  -3   10.62    1.10
 -10   3   3    9.58    0.86
   3   7   3   10.14    0.74
   7 -10   3    9.45    0.84
  -7  11  -3   11.27    1.18
   7 -11   3   10.70    0.90
   4   7   3   10.05    0.81
 -11   4   3   11.01    0.92
  -7  12  -3   31.39    2.81
   7 -12   3   27.51    2.17
   5   7   3   29.89    1.99
 -12   5   3   28.98    2.27
  -7  13  -3   16.91    1.44
 -13   6   3   11.93    1.11
   7 -13   3   12.94    1.16
   6   7   3   13.51    0.98
   7 -13   3   11.85    1.08
  -7  14  -3    3.70    0.67
   7   7   3    3.95    0.42
   7 -14   3    4.62    0.52
   7 -14   3    3.42    0.50
 -14   7   3    3.93    0.48
  -7  15  -3    5.84    0.82
 -15   8   3    4.47    0.56
   8   7   3    5.21    0.50
   7 -15   3    5.41    0.60
  -6  14  -3    0.84    0.45
   6 -14   3    0.56    0.33
   8   6   3    0.38    0.24
 -14   8   3    0.16    0.27
   6 -14   3    0.56    0.31
  -5  13  -3    0.73    0.43
   5 -13   3    0.96    0.32
   8   5   3    1.05    0.25
   5 -13   3    0.86    0.32
  -8  -4  -3   59.63    4.80
   4 -12   3   64.79    4.59
   4 -12   3   65.68    4.84
   8   4   3   66.56    4.25
  -8  -3  -3    1.55    0.26
   3 -11   3    0.42    0.29
   3 -11   3    0.60    0.25
   8   3   3    0.33    0.23
   2 -10   3    6.78    0.62
   8   2   3    6.21    0.54
   2 -10   3    5.78    0.61
   8   1   3   18.49    1.29
   1  -9   3   18.48    1.41
   1  -9   3   18.30    1.46
  -8   0  -3   55.22    6.01
   8   0   3   67.36    4.22
  -8   8   3   66.21    4.23
   0  -8   3   67.03    4.79
   0  -8   3   63.74    4.55
  -8   1  -3   13.74    1.39
   8  -1   3   12.84    0.97
   8  -1   3   13.95    1.15
  -1  -7   3   13.15    1.08
  -8   2  -3   39.82    2.91
  -8   2  -3   37.28    3.43
   2   6  -3   38.57    2.88
  -2  -6   3   35.18    2.88
  -6   8   3   33.33    2.39
   8  -2   3   33.18    2.39
  -2  -6   3   33.77    2.71
   8  -2   3   34.23    2.89
  -8   3  -3   21.20    2.29
   3   5  -3   19.77    1.91
  -8   3  -3   20.83    1.92
  -3  -5   3   25.04    1.81
  -3  -5   3   25.54    1.93
   8  -3   3   25.01    1.60
   8  -3   3   26.09    1.92
  -5   8   3   24.44    1.60
  -8   4  -3    3.86    0.57
  -8   4  -3    3.69    0.40
   4   4  -3    3.53    0.40
  -4   8   3    4.06    0.37
   8  -4   3    3.77    0.36
  -4  -4   3    3.62    0.42
   8  -4   3    3.76    0.39
  -4  -4   3    3.48    0.41
   5   3  -3   21.34    1.78
  -8   5  -3   21.30    1.77
  -8   5  -3   22.36    2.03
  -8   5  -3   21.56    2.16
   8  -5   3   22.48    1.77
  -5  -3   3   20.75    1.67
  -5  -3   3   21.78    1.81
   8  -5   3   21.95    1.49
  -3   8   3   21.00    1.48
  -8   6  -3   22.86    2.20
  -8   6  -3   22.14    2.33
  -8   6  -3   22.98    1.91
   6   2  -3   22.07    1.94
   8  -6   3   24.79    1.61
   8  -6   3   25.42    1.91
  -6  -2   3   24.16    1.97
  -6  -2   3   23.70    1.81
  -2   8   3   23.03    1.60
  -8   7  -3   14.11    1.47
  -8   7  -3   13.87    1.36
   7   1  -3   14.30    1.18
   8  -7   3   14.08    0.99
  -1   8   3   13.24    0.98
  -7  -1   3   12.75    1.10
  -8   8  -3   91.16    7.38
   8  -8   3   76.93    5.11
   0   8   3   74.40    5.11
   8  -8   3   70.42    5.51
  -8   0   3   76.91    5.82
  -8   9  -3    8.75    1.25
  -8   9  -3    8.87    1.15
   8  -9   3   12.15    0.82
  -9   1   3   12.19    0.94
   8  -9   3   12.13    0.92
   1   8   3   11.89    0.83
  -8  10  -3    5.13    0.79
  -8  10  -3    5.76    0.74
   2   8   3    5.41    0.51
   8 -10   3    5.44    0.56
 -10   2   3    5.95    0.57
   8 -10   3    5.52    0.49
  -8  11  -3    3.04    0.48
  -8  11  -3    2.23    0.53
   3   8   3    0.34    0.22
 -11   3   3    0.48    0.26
   8 -11   3    0.50    0.27
  -8  12  -3   89.91    8.43
  -8  12  -3   89.51    8.07
   8 -12   3   86.69    6.31
   4   8   3   89.22    5.84
 -12   4   3   88.90    6.65
  -8  13  -3    1.20    0.52
  -8  13  -3    0.93    0.42
   5   8   3    0.56    0.23
 -13   5   3    0.85    0.30
   8 -13   3    0.63    0.31
  -8  14  -3    3.36    0.55
   6   8   3    1.12    0.28
 -14   6   3    0.91    0.31
   8 -14   3    1.24    0.35
  -8  15  -3    2.53    0.65
  -8  15  -3    2.78    0.58
   7   8   3    1.90    0.33
 -15   7   3    2.49    0.41
   8 -15   3    1.85    0.42
  -8  16  -3    0.76    0.48
  -8  16  -3    0.61    0.59
   8   8   3    0.33    0.27
 -16   8   3    0.63    0.33
   8 -16   3    0.73    0.36
  -8  17  -3    3.75    0.68
  -8  17  -3    3.82    0.75
   9   8   3    2.27    0.37
 -17   9   3    1.46    0.42
  -7  16  -3    8.26    1.16
   7 -16   3   10.77    0.91
   9   7   3    9.79    0.80
  -6  15  -3   13.41    1.58
   9   6   3   15.68    1.12
   6 -15   3   15.84    1.24
   6 -15   3   14.67    1.30
  -5  14  -3   11.76    1.33
   5 -14   3   11.15    1.05
   9   5   3   12.09    0.92
   5 -14   3   12.76    1.04
  -9  -4  -3    7.58    0.69
  -4  13  -3    8.31    0.94
   9   4   3    7.15    0.65
   4 -13   3    6.24    0.70
   4 -13   3    6.90    0.75
  -9  -3  -3   30.57    2.13
   3 -12   3   26.07    2.06
   9   3   3   26.38    1.89
   3 -12   3   26.70    2.14
   2 -11   3   21.76    1.68
   9   2   3   21.11    1.48
   2 -11   3   21.10    1.63
   9   1   3    7.96    0.66
   1 -10   3    8.41    0.74
   1 -10   3    8.26    0.74
   0  -9   3   30.83    2.30
   0  -9   3   31.08    2.40
   9   0   3   32.09    2.12
  -9   1  -3   18.94    1.89
   9  -1   3   19.62    1.33
  -1  -8   3   18.39    1.49
  -8   9   3   18.71    1.33
  -2  -7   3    2.29    0.32
   9  -2   3    2.43    0.31
  -7   9   3    2.33    0.32
  -9   3  -3   17.95    1.56
  -9   3  -3   18.04    1.88
   3   6  -3   18.48    1.54
  -3  -6   3   18.91    1.55
  -3  -6   3   19.38    1.47
  -6   9   3   18.69    1.31
   9  -3   3   18.50    1.30
   9  -3   3   19.52    1.56
   4   5  -3    7.38    0.82
  -9   4  -3    7.26    0.83
  -9   4  -3    8.06    0.96
  -9   4  -3    7.52    1.07
  -4  -5   3   11.84    0.87
   9  -4   3   11.31    0.85
   9  -4   3   11.17    0.76
  -5   9   3   11.12    0.74
  -4  -5   3   11.58    0.81
   5   4  -3   20.14    1.62
  -9   5  -3   20.94    1.84
  -9   5  -3   20.97    1.61
  -9   5  -3   21.09    1.97
   9  -5   3   18.28    1.59
  -5  -4   3   17.59    1.51
  -4   9   3   18.36    1.35
   9  -5   3   18.80    1.36
  -5  -4   3   18.54    1.63
  -9   6  -3   23.66    2.44
  -9   6  -3   23.79    2.01
  -9   6  -3   25.10    2.31
   6   3  -3   24.61    2.03
   9  -6   3   25.33    2.00
  -6  -3   3   24.35    1.89
  -6  -3   3   25.26    2.05
  -3   9   3   24.19    1.68
   9  -6   3   24.77    1.69
  -7  -2   3   11.37    0.93
  -2   9   3   11.08    0.84
   9  -7   3   11.43    0.85
  -9   8  -3    8.43    1.23
  -9   8  -3    8.76    1.13
   9  -8   3   12.88    0.84
  -8  -1   3   11.82    0.91
  -1   9   3   11.90    0.82
  -9   9  -3   25.84    2.40
  -9   9  -3   24.29    2.52
   9  -9   3   24.67    1.73
   9  -9   3   25.06    1.88
  -9   0   3   25.95    1.96
   0   9   3   25.48    1.72
  -9  10  -3    4.32    0.81
   9 -10   3    5.97    0.56
   1   9   3    6.95    0.54
 -10   1   3    7.04    0.62
   9 -10   3    6.92    0.63
  -9  11  -3    4.18    0.82
   9 -11   3    6.47    0.58
 -11   2   3    7.31    0.66
   2   9   3    6.43    0.55
   9 -11   3    6.67    0.63
  -9  12  -3   22.04    2.66
  -9  12  -3   22.28    2.54
   3   9   3   28.74    1.82
 -12   3   3   29.86    2.09
   9 -12   3   29.64    2.00
  -9  13  -3    4.13    0.74
  -9  13  -3    3.33    0.66
   9 -13   3    5.38    0.54
 -13   4   3    4.54    0.52
   4   9   3    4.85    0.45
  -9  14  -3    9.02    1.09
  -9  14  -3    9.69    1.22
 -14   5   3    8.09    0.85
   5   9   3    8.73    0.72
   9 -14   3    8.97    0.82
  -9  15  -3   12.85    1.53
  -9  15  -3   13.76    1.66
   6   9   3   14.93    1.06
 -15   6   3   14.97    1.23
   9 -15   3   14.27    1.18
  16  -7  -3    5.23    0.63
  -9  16  -3    4.55    0.85
  -9  16  -3    5.97    0.95
 -16   7   3    7.06    0.72
   9 -16   3    8.08    0.74
   7   9   3    6.92    0.61
  17  -8  -3    0.81    0.39
  -9  17  -3    0.85    0.51
  -9  17  -3    0.64    0.60
 -17   8   3    0.25    0.37
  -9  18  -3    5.34    0.92
  -9  18  -3    4.42    0.82
  18  -9  -3    5.60    0.64
 -18   9   3    4.61    0.61
  19 -10  -3    1.63    0.50
  -9  19  -3    2.16    0.65
  -9  19  -3    3.00    0.79
  -8  18  -3    4.45    0.86
  -8  18  -3    4.80    0.81
  18 -10  -3    4.27    0.60
  -7  17  -3    0.88    0.64
  -7  17  -3    1.07    0.54
  10   7   3    2.10    0.35
  -6  16  -3   10.78    1.22
   6 -16   3    9.67    0.97
  10   6   3    9.18    0.82
   6 -16   3   10.13    0.92
  -5  15  -3    1.69    0.56
   5 -15   3    2.47    0.45
   5 -15   3    3.07    0.46
  10   5   3    2.94    0.38
 -10  -4  -3    5.04    0.56
  -4  14  -3    4.67    0.75
  10   4   3    5.42    0.51
   4 -14   3    4.93    0.57
   4 -14   3    4.62    0.58
  10   3   3    5.79    0.51
   3 -13   3    4.86    0.58
   3 -13   3    4.75    0.56
 -10  -2  -3    8.34    0.88
   2 -12   3   10.76    0.89
  10   2   3   10.63    0.79
   2 -12   3   10.70    0.91
   1 -11   3    0.70    0.26
  10   1   3    0.73    0.26
   1 -11   3    0.36    0.28
   0 -10   3   30.01    2.33
  10   0   3   30.39    2.06
  10  -1   3    8.98    0.73
  -1  -9   3    9.10    0.82
 -10   2  -3    7.54    0.85
  -8  10   3    6.71    0.62
  -2  -8   3    6.12    0.63
  10  -2   3    6.40    0.59
 -10   3  -3   14.61    1.56
  -7  10   3   13.97    1.08
  -3  -7   3   15.14    1.20
  10  -3   3   15.28    1.07
 -10   4  -3    0.98    0.42
 -10   4  -3    0.91    0.29
  -6  10   3    1.93    0.28
  10  -4   3    1.42    0.27
  -4  -6   3    1.39    0.27
  10  -4   3    1.20    0.25
 -10   5  -3    0.25    0.25
 -10   5  -3    0.43    0.20
   5   5  -3    0.47    0.19
 -10   5  -3    0.11    0.35
  -5  10   3    0.34    0.23
  10  -5   3    0.42    0.18
  -5  -5   3    0.35    0.24
  10  -5   3    0.87    0.24
  -5  -5   3    0.40    0.21
 -10   6  -3    2.33    0.37
 -10   6  -3    1.91    0.48
   6   4  -3    1.97    0.28
 -10   6  -3    1.78    0.26
  10  -6   3    0.96    0.26
  -4  10   3    0.86    0.24
  -6  -4   3    0.63    0.25
 -10   7  -3   10.91    1.12
 -10   7  -3   10.16    1.23
  -7  -3   3   10.29    0.90
  -3  10   3   11.12    0.82
  10  -7   3   11.03    0.83
 -10   8  -3    5.82    0.80
 -10   8  -3    6.14    0.74
  -2  10   3    5.54    0.51
  10  -8   3    5.23    0.53
  -8  -2   3    5.72    0.57
  -9  -1   3    6.66    0.67
  10  -9   3    7.92    0.62
  -1  10   3    6.82    0.60
 -10  10  -3   17.27    1.54
 -10  10  -3   16.37    1.66
   0  10   3   13.85    1.08
  10 -10   3   13.88    1.11
 -10   0   3   14.54    1.23
  10 -10   3   15.39    1.20
 -10  11  -3    1.64    0.55
 -10  11  -3    2.00    0.46
   1  10   3    1.78    0.29
 -11   1   3    1.70    0.34
  10 -11   3    2.16    0.33
  10 -11   3    2.09    0.36
 -10  12  -3   17.54    1.68
 -10  12  -3   16.98    1.80
  12  -2  -3   17.39    1.20
   2  10   3   16.23    1.17
 -12   2   3   16.36    1.36
  10 -12   3   15.96    1.20
  10 -12   3   14.88    1.29
 -10  13  -3    2.32    0.51
 -10  13  -3    1.93    0.61
  13  -3  -3    2.48    0.36
  10 -13   3    0.74    0.32
 -13   3   3    1.01    0.33
   3  10   3    0.94    0.28
 -10  14  -3    2.92    0.68
  14  -4  -3    3.05    0.41
 -10  14  -3    2.98    0.59
   4  10   3    3.50    0.38
 -14   4   3    3.02    0.46
  10 -14   3    2.79    0.46
  15  -5  -3    5.07    0.49
 -10  15  -3    4.79    0.82
 -10  15  -3    4.83    0.71
   5  10   3    2.88    0.41
  10 -15   3    3.18    0.50
 -15   5   3    2.90    0.48
 -10  16  -3    4.72    0.91
  16  -6  -3    5.38    0.60
 -10  16  -3    5.84    0.87
   6  10   3    5.96    0.54
 -16   6   3    6.57    0.67
 -10  17  -3    0.59    0.63
  17  -7  -3   -0.04    0.37
 -10  17  -3    0.65    0.52
 -17   7   3    1.25    0.39
  18  -8  -3    0.70    0.42
 -10  18  -3    0.83    0.56
 -10  18  -3    0.24    0.60
 -18   8   3    1.74    0.43
 -10  19  -3    5.62    0.91
  19  -9  -3    5.90    0.68
 -10  19  -3    5.09    0.97
 -19   9   3    5.32    0.67
 -10  20  -3    0.40    0.65
  20 -10  -3    0.44    0.47
 -10  20  -3    0.86    0.60
  21 -11  -3    8.78    0.90
 -10  21  -3    9.85    1.23
  -9  20  -3    5.61    0.96
  20 -11  -3    7.41    0.77
  -9  20  -3    6.75    1.06
  -8  19  -3    4.19    0.78
  19 -11  -3    4.47    0.62
  -8  19  -3    3.98    0.86
  18 -11  -3    0.04    0.43
  -7  18  -3    0.36    0.61
  -7  18  -3   -0.07    0.50
  11   7   3    0.57    0.31
  -6  17  -3    4.35    0.88
   6 -17   3    7.69    0.79
  11   6   3    7.58    0.68
  -5  16  -3    8.30    1.06
   5 -16   3    8.48    0.82
   5 -16   3    7.34    0.85
  11   5   3    7.52    0.71
 -11  -4  -3   10.82    0.91
  -4  15  -3   10.90    1.22
   4 -15   3   10.09    0.92
   4 -15   3    9.15    0.97
  11   4   3   10.07    0.84
  -3  14  -3    3.43    0.64
 -11  -3  -3    3.60    0.43
   3 -14   3    3.09    0.45
   3 -14   3    2.84    0.47
  11   3   3    2.87    0.40
 -11  -2  -3    0.89    0.32
   2 -13   3    1.18    0.33
   2 -13   3    1.69    0.37
  11   2   3    1.13    0.29
 -11  -1  -3    1.85    0.34
   1 -12   3    1.15    0.33
  11   1   3    1.59    0.30
  11   0   3    8.78    0.74
   0 -11   3    9.03    0.82
  -1 -10   3    0.53    0.26
  11  -1   3    0.75    0.28
  -2  -9   3   21.51    1.71
  11  -2   3   21.91    1.53
 -11   3  -3    1.40    0.41
  -3  -8   3    0.44    0.24
  11  -3   3    0.56    0.25
  -8  11   3    0.19    0.24
 -11   4  -3   11.78    1.23
  -4  -7   3   10.28    0.90
  11  -4   3   10.05    0.82
  -7  11   3    9.99    0.84
 -11   5  -3    9.47    1.37
 -11   5  -3   10.53    1.26
  11  -5   3   14.16    0.97
  -5  -6   3   14.50    1.06
  -6  11   3   15.09    0.96
 -11   6  -3   17.65    1.84
 -11   6  -3   20.13    1.70
  -6  -5   3   16.54    1.39
  11  -6   3   17.47    1.26
  -5  11   3   15.95    1.24
 -11   7  -3   11.18    1.34
 -11   7  -3   12.42    1.22
  11  -7   3   11.89    0.92
  -7  -4   3   11.46    0.99
  -4  11   3   11.49    0.89
 -11   8  -3    2.73    0.52
  -3  11   3    0.65    0.25
  11  -8   3    0.69    0.26
  -8  -3   3    0.56    0.25
  11  -9   3    6.88    0.64
  -2  11   3    7.33    0.62
  -9  -2   3    7.15    0.68
 -11  10  -3    1.61    0.52
 -11  10  -3    2.39    0.47
  -1  11   3    1.60    0.29
 -10  -1   3    1.80    0.32
  11 -10   3    1.54    0.33
 -11  11  -3    5.85    0.68
   0  11   3    3.36    0.37
  11 -11   3    3.43    0.46
  11 -11   3    3.28    0.42
 -11   0   3    2.85    0.44
 -11  12  -3    9.99    1.10
 -11  12  -3    9.09    0.95
  11 -12   3    6.01    0.69
  11 -12   3    6.06    0.65
 -12   1   3    6.59    0.71
   1  11   3    6.79    0.61
 -11  13  -3    2.78    0.55
 -11  13  -3    2.06    0.63
  11 -13   3    1.39    0.38
 -13   2   3    2.10    0.40
   2  11   3    2.05    0.32
 -11  14  -3    5.52    0.95
  14  -3  -3    6.05    0.59
 -11  14  -3    5.36    0.85
 -14   3   3    6.39    0.68
   3  11   3    7.31    0.59
  11 -14   3    6.70    0.68
  15  -4  -3    8.09    0.82
 -11  15  -3    8.07    1.23
 -11  15  -3    8.31    1.14
   4  11   3   10.88    0.77
 -15   4   3   10.91    0.95
  11 -15   3   10.17    0.89
  16  -5  -3    5.15    0.57
 -11  16  -3    4.32    0.87
 -11  16  -3    4.99    0.81
 -16   5   3    4.64    0.60
 -11  17  -3   20.53    2.15
  17  -6  -3   19.49    1.46
 -11  17  -3   19.17    2.01
 -17   6   3   18.35    1.62
 -11  18  -3    2.89    0.69
  18  -7  -3    2.16    0.49
 -11  18  -3    2.27    0.76
 -18   7   3    2.83    0.50
 -11  19  -3    6.12    1.00
  19  -8  -3    6.24    0.69
 -11  19  -3    4.97    0.89
 -19   8   3    5.44    0.68
 -11  20  -3    2.77    0.72
 -11  20  -3    2.91    0.79
  20  -9  -3    2.93    0.57
  21 -10  -3    8.60    0.84
 -11  21  -3    7.22    1.08
  22 -11  -3    2.15    0.57
 -11  22  -3    2.00    0.66
  23 -12  -3    0.12    0.47
 -11  23  -3   -0.11    0.56
 -10  22  -3    1.11    0.59
  22 -12  -3    0.41    0.48
  -9  21  -3    4.69    0.88
  21 -12  -3    5.93    0.72
  20 -12  -3    2.01    0.53
  -8  20  -3    2.20    0.65
  19 -12  -3    0.12    0.42
  -7  19  -3    0.21    0.63
  -7  19  -3    0.75    0.55
  -6  18  -3    6.14    0.91
  12   6   3    5.68    0.60
  -5  17  -3    4.67    0.85
  12   5   3    6.87    0.61
   5 -17   3    5.97    0.69
 -12  -4  -3    7.53    0.80
  -4  16  -3    6.08    1.01
  12   4   3    9.88    0.75
   4 -16   3    9.11    0.86
 -12  -3  -3    3.73    0.48
  -3  15  -3    3.29    0.67
   2 -14   3    4.58    0.54
  12   2   3    3.99    0.48
 -12  -1  -3   11.07    1.10
   1 -13   3   13.69    1.12
  12   1   3   13.33    0.98
  12   0   3   15.14    1.17
   0 -12   3   16.73    1.32
  -1 -11   3    1.43    0.32
  12  -1   3    1.64    0.33
  -2 -10   3   10.53    0.91
  12  -2   3   10.12    0.84
  -3  -9   3   27.80    2.12
  12  -3   3   26.47    1.88
 -12   4  -3   60.10    6.16
  -4  -8   3   66.72    4.88
  12  -4   3   67.27    4.31
 -12   5  -3   13.92    1.71
  12  -5   3   17.58    1.21
  -5  -7   3   16.03    1.32
  -7  12   3   18.06    1.22
 -12   6  -3    5.63    0.74
  12  -6   3    3.71    0.46
  -6  12   3    4.50    0.45
  -6  -6   3    3.83    0.46
 -12   7  -3   31.91    2.86
 -12   7  -3   33.33    3.05
  -7  -5   3   30.30    2.37
  -5  12   3   28.24    2.09
  12  -7   3   29.74    2.11
 -12   8  -3   88.72    7.97
 -12   8  -3   88.37    8.34
  -8  -4   3   88.27    6.61
  -4  12   3   88.02    5.81
  12  -8   3   87.34    5.82
 -12   9  -3   25.17    2.64
 -12   9  -3   23.53    2.79
  -3  12   3   31.26    1.92
  12  -9   3   29.11    1.94
  -9  -3   3   29.83    2.17
 -12  10  -3   19.20    1.72
 -12  10  -3   19.11    1.89
  12 -10   3   16.25    1.27
  -2  12   3   16.31    1.23
 -10  -2   3   15.14    1.39
 -12  11  -3    9.27    1.09
 -12  11  -3    9.90    0.98
 -11  -1   3    7.27    0.78
  12 -11   3    6.70    0.68
  -1  12   3    6.77    0.66
 -12  12  -3   12.87    1.51
 -12  12  -3   13.81    1.65
   0  12   3   15.28    1.07
 -12   0   3   16.45    1.24
  12 -12   3   13.04    1.11
  12 -12   3   15.48    1.20
 -12  13  -3    9.23    1.27
 -12  13  -3    9.55    1.13
 -13   1   3    9.78    0.90
  12 -13   3    9.30    0.87
  12 -13   3    9.30    0.84
   1  12   3   10.07    0.77
 -12  14  -3    4.26    0.79
 -12  14  -3    5.88    0.75
 -14   2   3    3.52    0.52
  12 -14   3    3.62    0.51
   2  12   3    3.40    0.42
 -12  15  -3    0.90    0.50
 -12  15  -3    0.99    0.61
 -15   3   3    1.29    0.38
 -12  16  -3   17.50    1.88
  16  -4  -3   18.38    1.26
 -12  16  -3   17.39    1.77
 -16   4   3   13.40    1.41
  17  -5  -3    7.05    0.69
 -12  17  -3    6.65    1.08
 -12  17  -3    6.68    0.98
 -17   5   3    7.86    0.83
 -12  18  -3    3.89    0.87
 -12  18  -3    3.20    0.74
  18  -6  -3    3.58    0.55
 -18   6   3    5.06    0.61
 -12  19  -3    0.18    0.65
  19  -7  -3    0.89    0.42
 -12  19  -3    0.58    0.56
 -19   7   3    0.21    0.44
 -12  20  -3    8.74    1.23
  20  -8  -3    9.22    0.86
 -12  20  -3    7.86    1.14
  21  -9  -3    0.67    0.49
 -12  21  -3    0.61    0.61
 -12  21  -3    0.57    0.70
 -21   9   3    1.71    0.48
  22 -10  -3    1.45    0.50
 -12  22  -3    0.84    0.63
  23 -11  -3    0.88    0.47
 -12  23  -3    0.87    0.57
  22 -13  -3    0.62    0.50
  -9  22  -3    0.66    0.57
  21 -13  -3    2.87    0.59
  -8  21  -3    1.47    0.64
  20 -13  -3    0.39    0.47
  -7  20  -3    0.70    0.55
  -6  19  -3    1.39    0.60
  19 -13  -3    1.67    0.52
  -6  19  -3    2.55    0.73
  -5  18  -3    5.11    0.84
   5 -18   3    5.49    0.67
  13   5   3    4.61    0.54
 -13  -4  -3    2.05    0.42
  -4  17  -3    2.35    0.61
   4 -17   3    1.65    0.44
  13   4   3    2.37    0.41
  -3  16  -3    5.74    0.90
 -13  -3  -3    6.33    0.70
   3 -16   3    6.52    0.70
  13   3   3    6.01    0.61
 -13  -2  -3   10.59    0.93
  -2  15  -3    9.83    1.19
  13   2   3    9.09    0.84
   2 -15   3    9.38    0.91
 -13  -1  -3    0.76    0.36
  13   1   3    1.10    0.32
   1 -14   3    0.94    0.34
 -13   0  -3    5.31    0.67
   0 -13   3    7.33    0.73
  13   0   3    7.08    0.64
  -1 -12   3   13.96    1.20
  13  -1   3   13.71    1.07
  13  -2   3    0.74    0.33
  -2 -11   3    1.07    0.31
  -3 -10   3    5.41    0.60
  13  -3   3    5.41    0.55
  -4  -9   3    6.85    0.69
  13  -4   3    6.14    0.61
 -13   5  -3    1.45    0.48
  -5  -8   3    0.98    0.30
  13  -5   3    0.62    0.30
 -13   6  -3    8.36    1.27
  -7  13   3   11.73    0.90
  -6  -7   3   12.17    0.98
  13  -6   3   11.62    0.90
 -13   7  -3   17.52    1.59
  -6  13   3   13.15    1.07
  13  -7   3   13.40    1.11
  -7  -6   3   13.27    1.17
 -13   8  -3    0.89    0.37
 -13   8  -3    1.45    0.53
  -5  13   3    0.72    0.28
  -8  -5   3    0.70    0.29
  13  -8   3    0.98    0.31
 -13   9  -3    4.40    0.64
 -13   9  -3    4.31    0.76
  13  -9   3    5.01    0.51
  -4  13   3    4.11    0.46
  -9  -4   3    4.76    0.51
 -13  10  -3    2.09    0.56
 -13  10  -3    2.10    0.44
  -3  13   3    0.84    0.29
  13 -10   3    0.76    0.34
 -10  -3   3    0.98    0.30
 -13  11  -3    2.21    0.63
 -13  11  -3    2.25    0.50
 -11  -2   3    2.17    0.39
  13 -11   3    1.52    0.38
  -2  13   3    2.33    0.33
 -13  12  -3   10.14    1.17
 -13  12  -3   10.38    1.31
  13 -12   3   10.05    0.87
 -12  -1   3    9.70    0.92
  -1  13   3    9.55    0.80
 -13  13  -3   11.78    1.24
 -13  13  -3   10.75    1.42
   0  13   3   10.66    0.83
  13 -13   3    9.91    0.94
  13 -13   3    9.31    0.90
 -13   0   3   11.36    0.99
 -13  14  -3    0.08    0.56
 -13  14  -3    0.25    0.45
   1  13   3    0.74    0.27
 -14   1   3    0.51    0.34
  13 -14   3    0.48    0.35
 -13  15  -3    5.41    0.84
 -13  15  -3    5.77    0.97
 -13  16  -3    1.86    0.61
 -13  16  -3    2.32    0.71
 -16   3   3    2.95    0.50
 -13  17  -3    1.32    0.58
 -13  17  -3    2.04    0.73
 -17   4   3    1.81    0.48
 -13  18  -3    4.23    0.87
 -13  18  -3    3.82    0.75
  18  -5  -3    3.77    0.52
 -18   5   3    3.39    0.57
 -13  19  -3    0.88    0.60
  19  -6  -3    0.03    0.42
 -13  19  -3    0.43    0.66
 -19   6   3    0.95    0.46
 -13  20  -3    3.16    0.78
  20  -7  -3    3.46    0.55
 -13  20  -3    3.52    0.85
 -20   7   3    3.28    0.58
 -13  21  -3    3.25    0.75
 -13  21  -3    3.45    0.85
  21  -8  -3    2.67    0.53
 -21   8   3    2.84    0.57
  22  -9  -3    1.03    0.48
 -13  22  -3    1.14    0.60
 -22   9   3    1.23    0.48
  -8  22  -3    0.93    0.60
  22 -14  -3    1.61    0.54
  21 -14  -3    3.21    0.60
  -7  21  -3    3.04    0.72
  20 -14  -3    3.65    0.62
  -6  20  -3    3.82    0.76
  19 -14  -3    0.43    0.48
  -5  19  -3    0.30    0.53
  14   5   3   -0.09    0.35
 -14  -4  -3   17.44    1.38
  -4  18  -3   16.08    1.73
  14   4   3   14.63    1.20
   4 -18   3   15.28    1.39
 -14  -3  -3    0.72    0.40
  -3  17  -3    0.71    0.55
   3 -17   3    2.65    0.46
  14   3   3    2.10    0.40
  -2  16  -3    0.86    0.54
 -14  -2  -3    0.62    0.38
   2 -16   3    1.09    0.39
  14   2   3    0.45    0.34
 -14  -1  -3    1.84    0.41
   1 -15   3    1.18    0.38
  14   1   3    0.92    0.36
 -14   0  -3    7.49    0.87
   0 -14   3    8.67    0.84
  14   0   3    8.13    0.74
 -14   1  -3    1.26    0.37
  14  -1   3    1.22    0.34
  -1 -13   3    0.89    0.34
  -2 -12   3    4.14    0.51
  14  -2   3    3.91    0.51
  14  -3   3    2.64    0.44
  -3 -11   3    3.10    0.45
  14  -4   3    4.59    0.54
  -4 -10   3    4.98    0.56
  -5  -9   3   12.17    1.07
  14  -5   3   12.71    1.00
 -14   6  -3    1.00    0.51
  -6  -8   3    0.60    0.30
  14  -6   3    0.72    0.32
 -14   7  -3    4.43    0.73
  -7  14   3    4.12    0.46
  14  -7   3    3.63    0.47
  -7  -7   3    3.32    0.47
  14  -8   3    0.93    0.34
  -8  -6   3    1.13    0.31
  -6  14   3    0.67    0.31
 -14   9  -3    7.43    1.12
  -5  14   3    8.87    0.74
  14  -9   3    8.68    0.76
  -9  -5   3    8.41    0.81
 -14  10  -3    3.51    0.73
 -14  10  -3    3.65    0.58
  -4  14   3    3.50    0.41
  14 -10   3    2.88    0.44
 -10  -4   3    3.00    0.46
 -14  11  -3    6.00    0.84
 -14  11  -3    5.06    0.97
  -3  14   3    6.79    0.63
  14 -11   3    7.79    0.70
 -11  -3   3    7.07    0.70
 -14  12  -3    4.90    0.68
 -14  12  -3    4.94    0.81
 -12  -2   3    3.39    0.52
  14 -12   3    3.77    0.51
  -2  14   3    3.73    0.44
 -14  13  -3    0.18    0.54
 -14  13  -3    0.09    0.40
  -1  14   3    0.28    0.27
  14 -13   3    0.08    0.34
 -13  -1   3    0.03    0.35
 -14  14  -3    7.49    1.09
 -14  14  -3    7.47    1.00
 -14   0   3    7.55    0.83
  14 -14   3    7.09    0.71
 -14  15  -3    1.78    0.57
 -14  15  -3    1.78    0.72
 -15   1   3    0.95    0.40
  14 -15   3    1.64    0.39
 -14  16  -3    0.05    0.50
 -14  16  -3    0.22    0.66
 -16   2   3    0.85    0.40
 -14  17  -3    8.54    1.15
 -14  17  -3    9.11    1.27
 -14  18  -3    4.62    0.87
 -14  18  -3    4.33    0.95
 -18   4   3    6.69    0.72
 -14  19  -3    1.24    0.60
 -14  19  -3    0.48    0.67
 -19   5   3    1.31    0.47
 -14  20  -3    1.41    0.69
 -14  20  -3    1.69    0.63
 -20   6   3    2.65    0.54
 -14  21  -3    6.32    0.97
 -14  21  -3    7.09    1.04
 -21   7   3    5.54    0.75
 -14  22  -3    0.31    0.59
 -22   8   3    1.03    0.45
  22 -15  -3    1.31    0.54
  -7  22  -3    0.97    0.59
  21 -15  -3    2.07    0.56
  -6  21  -3    2.52    0.66
  -5  20  -3    4.30    0.77
  20 -15  -3    3.10    0.61
  -4  19  -3    1.47    0.58
  15   4   3    1.47    0.40
 -15  -3  -3    5.92    0.71
  -3  18  -3    5.54    0.91
  15   3   3    7.25    0.65
 -15  -2  -3    9.02    0.97
  -2  17  -3    7.77    1.15
  15   2   3   10.35    0.85
   2 -17   3    9.83    0.97
 -15  -1  -3    1.38    0.42
  -1  16  -3    1.44    0.56
  15   1   3    0.47    0.36
   1 -16   3    0.28    0.37
 -15   0  -3   19.10    1.37
  15   0   3   12.61    1.17
   0 -15   3   14.36    1.30
 -15   1  -3    1.79    0.44
  15  -1   3    0.66    0.36
  -1 -14   3    0.62    0.34
 -15   2  -3   10.36    0.98
  15  -2   3    9.50    0.86
  -2 -13   3    9.26    0.94
  15  -3   3    0.54    0.35
  -3 -12   3    1.05    0.34
  15  -4   3    9.53    0.86
  -4 -11   3    9.72    0.93
  -5 -10   3    2.92    0.44
  15  -5   3    2.85    0.47
  -6  -9   3   15.45    1.30
  15  -6   3   15.54    1.20
 -15   7  -3    6.17    0.89
  -7  -8   3    5.25    0.60
  15  -7   3    5.09    0.59
 -15   8  -3    2.60    0.65
  -8  -7   3    2.32    0.40
  15  -8   3    2.56    0.44
 -15   9  -3   14.60    1.76
  -6  15   3   15.92    1.19
  -9  -6   3   16.44    1.33
  15  -9   3   15.28    1.21
 -15  10  -3    5.05    0.78
  -5  15   3    2.72    0.42
 -10  -5   3    2.73    0.45
  15 -10   3    2.57    0.46
 -15  11  -3    8.03    1.26
 -11  -4   3   10.52    0.97
  -4  15   3   10.47    0.83
  15 -11   3   10.51    0.88
 -15  12  -3    0.78    0.45
 -15  12  -3    0.89    0.62
  -3  15   3    0.68    0.30
  15 -12   3    0.58    0.37
 -12  -3   3    0.45    0.34
 -15  13  -3    6.61    1.00
 -15  13  -3    5.93    1.10
 -13  -2   3    8.65    0.87
  -2  15   3    9.33    0.75
  15 -13   3   10.68    0.84
 -15  14  -3    2.44    0.75
 -15  14  -3    1.48    0.54
 -14  -1   3    1.57    0.43
  15 -14   3    1.90    0.43
 -15  15  -3    6.53    0.94
 -15  15  -3    6.86    1.07
 -15  16  -3    1.89    0.59
 -15  16  -3    1.56    0.71
 -16   1   3    0.20    0.43
 -15  17  -3   10.64    1.30
 -15  17  -3    9.27    1.37
 -17   2   3   11.20    1.03
 -15  18  -3   10.39    1.30
 -15  18  -3    9.71    1.38
 -18   3   3   10.85    1.05
 -15  19  -3    0.56    0.56
 -15  19  -3    0.34    0.63
 -19   4   3   -0.25    0.43
 -15  20  -3    0.88    0.59
 -15  20  -3   -0.37    0.65
 -20   5   3    1.31    0.47
 -15  21  -3    4.49    0.85
 -15  21  -3    4.45    0.96
 -21   6   3    3.96    0.63
 -15  22  -3    1.12    0.70
 -15  22  -3    0.96    0.64
 -22   7   3    1.98    0.50
  -6  22  -3    0.64    0.57
  22 -16  -3    1.05    0.53
  21 -16  -3    0.34    0.50
  -5  21  -3    0.32    0.53
  20 -16  -3    0.28    0.48
  -4  20  -3    0.03    0.53
 -16  -3  -3   -0.01    0.39
  -3  19  -3   -0.01    0.53
  16   3   3    0.71    0.36
  -2  18  -3    0.38    0.52
 -16  -2  -3    0.55    0.42
  16   2   3    0.31    0.37
  -1  17  -3    0.17    0.52
 -16  -1  -3    0.45    0.40
  16   1   3    0.47    0.38
   1 -17   3   -0.08    0.38
 -16   0  -3    8.43    0.97
   0  16  -3    8.43    1.18
   0 -16   3   10.17    0.94
  16   0   3   10.65    0.88
 -16   1  -3    1.05    0.45
  16  -1   3    0.03    0.36
  -1 -15   3   -0.02    0.36
 -16   2  -3    0.62    0.43
  -2 -14   3    0.80    0.37
  16  -2   3    0.74    0.37
 -16   3  -3    6.29    0.73
  -3 -13   3    6.59    0.70
  16  -3   3    6.19    0.66
  16  -4   3   10.54    0.89
  -4 -12   3    9.02    0.93
  16  -5   3    8.26    0.80
  -5 -11   3    7.50    0.79
  -6 -10   3   10.62    0.96
  16  -6   3    9.83    0.94
  16  -7   3    9.91    0.96
  -7  -9   3   11.43    1.00
  16  -8   3    1.23    0.41
  -8  -8   3    0.67    0.36
 -16   9  -3    4.54    0.92
  16  -9   3    6.58    0.65
  -9  -7   3    6.29    0.67
 -16  10  -3    5.65    0.96
  16 -10   3    5.59    0.65
 -10  -6   3    6.67    0.73
 -16  11  -3    4.04    0.89
 -11  -5   3    4.58    0.58
  16 -11   3    4.10    0.54
  -5  16   3    4.98    0.52
 -12  -4   3   13.12    1.13
  16 -12   3   12.47    1.06
  -4  16   3   11.71    1.00
 -16  13  -3    1.99    0.73
 -13  -3   3    3.16    0.50
  16 -13   3    2.35    0.47
 -16  14  -3    0.71    0.52
 -16  14  -3    0.03    0.63
  16 -14   3    0.18    0.38
 -14  -2   3    0.94    0.40
 -16  15  -3    0.95    0.71
 -16  15  -3    1.51    0.57
  16 -15   3    1.09    0.41
 -15  -1   3    0.66    0.42
 -16  16  -3   19.02    1.96
 -16  16  -3   18.32    2.13
  16 -16   3   18.54    1.43
 -16   0   3   18.28    1.58
 -16  17  -3    0.03    0.53
 -16  17  -3    1.02    0.73
 -17   1   3   -0.03    0.41
 -16  18  -3    2.50    0.67
 -16  18  -3    2.02    0.79
 -18   2   3    0.59    0.45
 -16  19  -3    2.00    0.77
 -16  19  -3    1.51    0.65
 -19   3   3    1.28    0.51
 -16  20  -3    1.11    0.72
 -16  20  -3    1.41    0.65
 -20   4   3    1.31    0.50
 -16  21  -3    1.20    0.69
 -16  21  -3   -0.34    0.60
 -21   5   3   -0.16    0.44
 -16  22  -3    1.81    0.74
 -16  22  -3    1.81    0.70
 -22   6   3    0.87    0.51
  21 -17  -3    3.68    0.63
 -17  -3  -3    2.76    0.53
  -3  20  -3    2.56    0.68
  20 -17  -3    3.21    0.60
 -17  -2  -3    1.09    0.47
  -2  19  -3    1.05    0.59
  17   2   3    0.62    0.38
 -17  -1  -3    1.15    0.49
  -1  18  -3    0.81    0.58
  17   1   3    3.07    0.45
   0  17  -3    0.07    0.52
 -17   0  -3    0.66    0.43
   0 -17   3    0.12    0.41
  17   0   3    1.40    0.41
 -17   1  -3   -0.02    0.43
   1  16  -3    0.99    0.54
  -1 -16   3    0.02    0.38
  17  -1   3    0.14    0.38
 -17   2  -3    9.79    1.07
  17  -2   3    9.67    0.93
  -2 -15   3   11.27    1.01
 -17   3  -3    1.25    0.50
  -3 -14   3    3.16    0.49
  17  -3   3    2.69    0.49
 -17   4  -3    1.56    0.47
  17  -4   3    1.09    0.43
  -4 -13   3    1.57    0.43
  17  -5   3    5.70    0.64
  -5 -12   3    5.98    0.68
  17  -6   3    7.50    0.77
  -6 -11   3    8.58    0.86
  -7 -10   3    1.65    0.42
  17  -7   3    1.25    0.42
  17  -8   3    1.24    0.44
  -8  -9   3    1.52    0.41
  17  -9   3    0.26    0.38
  -9  -8   3    0.15    0.37
  17 -10   3    1.19    0.44
 -10  -7   3    0.08    0.33
 -17  11  -3   20.09    2.13
  17 -11   3   19.22    1.47
 -11  -6   3   18.10    1.57
 -17  12  -3    6.47    1.08
 -12  -5   3    6.99    0.79
  17 -12   3    7.56    0.74
 -17  13  -3    1.21    0.71
  17 -13   3    1.34    0.43
 -13  -4   3    1.31    0.42
 -17  14  -3    8.02    1.07
 -14  -3   3    4.40    0.65
  17 -14   3    4.95    0.62
 -17  15  -3   10.56    1.43
  17 -15   3   10.52    0.95
 -15  -2   3   10.23    1.03
 -17  16  -3    0.57    0.71
 -16  -1   3    0.62    0.46
  17 -16   3    0.23    0.38
 -17  17  -3    1.96    0.78
 -17   0   3    1.77    0.52
 -17  18  -3    2.66    0.78
 -18   1   3    1.77    0.51
 -17  19  -3    0.58    0.69
 -19   2   3   -0.34    0.44
 -17  20  -3    0.42    0.68
 -20   3   3   -0.01    0.46
 -17  21  -3    1.17    0.74
 -21   4   3    3.13    0.56
  21 -18  -3    2.26    0.56
  20 -18  -3    1.99    0.55
 -18  -2  -3    2.22    0.50
  18   2   3    0.95    0.41
 -18  -1  -3    0.62    0.47
  18   1   3    0.32    0.40
 -18   0  -3    6.68    0.75
  18   0   3    3.72    0.58
   1  17  -3    1.42    0.61
 -18   1  -3    1.69    0.52
  18  -1   3    2.39    0.49
  -1 -17   3    3.30    0.53
 -18   2  -3    0.02    0.45
  -2 -16   3    0.18    0.38
  18  -2   3    0.16    0.39
 -18   3  -3    4.68    0.78
  18  -3   3    7.87    0.73
  -3 -15   3    8.91    0.82
 -18   4  -3   16.04    1.39
  18  -4   3   15.25    1.26
  -4 -14   3   15.20    1.35
 -18   5  -3    4.14    0.67
  18  -5   3    5.12    0.61
  -5 -13   3    4.50    0.60
  -6 -12   3    5.17    0.65
  18  -6   3    5.74    0.64
  18  -7   3    0.92    0.44
  -7 -11   3    1.11    0.40
  18  -8   3    3.34    0.54
  -8 -10   3    3.04    0.52
  18  -9   3    3.65    0.59
  -9  -9   3    4.37    0.59
  18 -10   3    1.71    0.48
 -10  -8   3    0.97    0.41
 -11  -7   3    2.47    0.49
  18 -11   3    3.14    0.53
 -12  -6   3    4.44    0.61
  18 -12   3    4.77    0.60
 -18  13  -3    4.08    0.89
 -13  -5   3    3.29    0.56
  18 -13   3    3.54    0.56
 -18  14  -3    5.33    1.07
 -14  -4   3    6.37    0.76
  18 -14   3    6.75    0.70
 -18  15  -3   12.34    1.46
  18 -15   3   10.98    0.99
 -15  -3   3    9.41    1.08
 -18  16  -3    2.06    0.78
 -16  -2   3    1.04    0.48
  18 -16   3    0.23    0.44
 -18  17  -3    2.77    0.82
 -17  -1   3    2.60    0.53
  18 -17   3    2.51    0.50
 -18  18  -3    2.39    0.87
 -18   0   3    5.61    0.68
 -18  19  -3    0.40    0.72
 -19   1   3    1.85    0.52
 -18  20  -3    0.24    0.67
 -20   2   3   -0.01    0.46
 -18  21  -3    2.40    0.76
 -21   3   3    1.94    0.54
  20 -19  -3    2.20    0.57
 -19  -1  -3    2.58    0.54
  19   1   3    2.71    0.48
 -19   0  -3    2.88    0.61
  19   0   3    2.34    0.47
 -19   1  -3    0.43    0.48
  19  -1   3    0.01    0.40
 -19   2  -3    0.83    0.49
  19  -2   3    0.28    0.41
 -19   3  -3    0.46    0.48
  19  -3   3    0.37    0.42
  -3 -16   3    0.63    0.40
 -19   4  -3    1.24    0.54
  19  -4   3    1.04    0.45
  -4 -15   3    1.63    0.47
 -19   5  -3   -0.53    0.48
  19  -5   3   -0.17    0.43
  -5 -14   3   -0.16    0.39
 -19   6  -3    2.44    0.56
  19  -6   3    0.90    0.47
  -6 -13   3    0.93    0.43
  19  -7   3    0.18    0.40
  -7 -12   3    0.39    0.40
  -8 -11   3    6.17    0.71
  19  -8   3    5.24    0.68
  -9 -10   3    3.25    0.54
  19  -9   3    3.59    0.57
 -10  -9   3    5.16    0.66
  19 -10   3    4.88    0.65
  19 -11   3    5.68    0.67
 -11  -8   3    5.42    0.68
  19 -12   3   -0.14    0.43
 -12  -7   3   -0.17    0.40
 -13  -6   3    1.27    0.46
  19 -13   3    0.51    0.46
  19 -14   3    0.77    0.47
 -14  -5   3    0.59    0.46
 -15  -4   3    0.58    0.44
  19 -15   3    0.24    0.44
 -19  16  -3    2.25    0.84
 -16  -3   3    1.85    0.53
  19 -16   3    1.55    0.48
 -19  17  -3    0.34    0.73
  19 -17   3    0.58    0.45
 -17  -2   3   -0.24    0.44
 -19  18  -3    1.11    0.77
 -18  -1   3    1.85    0.53
 -19  19  -3    0.68    0.74
 -19   0   3    1.86    0.53
 -19  20  -3    1.89    0.77
 -20   1   3    0.96    0.50
 -20   1  -3    3.05    0.63
  20  -1   3    2.66    0.49
 -20   2  -3    1.89    0.58
  20  -2   3    0.42    0.45
 -20   3  -3    2.90    0.59
  20  -3   3    1.51    0.47
 -20   4  -3    0.63    0.51
  -4 -16   3    0.40    0.43
  20  -4   3    0.64    0.43
 -20   5  -3    4.63    0.68
  20  -5   3    3.73    0.58
  -5 -15   3    2.98    0.56
 -20   6  -3    3.98    0.66
  -6 -14   3    3.97    0.58
  20  -6   3    3.04    0.57
 -20   7  -3    1.27    0.50
  20  -7   3    1.25    0.49
  -7 -13   3    1.49    0.46
 -20   8  -3    2.05    0.59
  -8 -12   3    3.24    0.54
  20  -8   3    3.16    0.53
  -9 -11   3    4.90    0.66
  20  -9   3    5.44    0.68
 -10 -10   3    1.18    0.45
  20 -10   3    1.62    0.49
 -11  -9   3    5.05    0.68
  20 -11   3    5.21    0.65
 -12  -8   3    5.02    0.69
  20 -12   3    5.23    0.67
 -13  -7   3    2.98    0.56
  20 -13   3    3.44    0.58
  20 -14   3    2.40    0.53
 -14  -6   3    2.06    0.50
  20 -15   3    1.75    0.51
 -15  -5   3    2.03    0.53
  20 -16   3    1.05    0.47
 -16  -4   3    0.98    0.47
  20 -17   3    0.24    0.46
 -17  -3   3   -0.02    0.48
 -18  -2   3    0.28    0.47
  20 -18   3    0.02    0.44
 -19  -1   3    2.04    0.56
 -21   3  -3    2.13    0.58
  21  -3   3    2.73    0.50
 -21   4  -3    2.25    0.58
  21  -4   3    2.31    0.50
 -21   5  -3    0.65    0.51
  -5 -16   3   -0.18    0.43
  21  -5   3    0.75    0.43
 -21   6  -3    2.05    0.57
  -6 -15   3    3.41    0.55
  21  -6   3    2.95    0.56
 -21   7  -3    2.84    0.67
  -7 -14   3    4.28    0.61
  21  -7   3    3.70    0.59
 -21   8  -3    2.70    0.62
  21  -8   3    2.33    0.56
  -8 -13   3    3.67    0.56
 -21   9  -3    5.34    0.70
  21  -9   3    3.16    0.60
  -9 -12   3    3.57    0.60
 -21  10  -3    8.80    1.04
  21 -10   3   10.05    0.97
 -10 -11   3   10.96    1.01
 -11 -10   3    7.88    0.88
  21 -11   3    8.21    0.84
  21 -12   3    1.06    0.48
 -12  -9   3    1.14    0.49
  21 -13   3    2.64    0.57
 -13  -8   3    3.57    0.61
  21 -14   3    5.78    0.70
 -14  -7   3    5.65    0.74
 -15  -6   3    4.07    0.66
  21 -15   3    4.88    0.64
  21 -16   3    0.31    0.46
 -16  -5   3    0.65    0.48
 -17  -4   3    2.35    0.58
  21 -17   3    3.28    0.57
  21 -18   3    2.73    0.56
 -18  -3   3    2.94    0.59
 -22   6  -3    0.34    0.50
  22  -6   3    0.63    0.46
 -22   7  -3    1.00    0.52
  -7 -15   3    1.45    0.49
  22  -7   3    0.80    0.49
 -22   8  -3    1.99    0.60
  22  -8   3    1.52    0.51
  -8 -14   3    2.47    0.53
 -22   9  -3    0.63    0.55
  -9 -13   3    0.40    0.44
  22  -9   3    0.35    0.46
 -22  10  -3    0.56    0.52
  22 -10   3    0.48    0.46
 -10 -12   3    0.22    0.47
 -22  11  -3    2.18    0.60
  22 -11   3    1.63    0.50
 -11 -11   3    1.94    0.52
 -22  12  -3    1.65    0.57
 -12 -10   3    1.28    0.49
  22 -12   3    0.90    0.49
 -13  -9   3    0.52    0.47
  22 -13   3    0.92    0.49
  22 -14   3    0.62    0.47
 -14  -8   3    0.96    0.50
  22 -15   3    1.83    0.51
 -15  -7   3    1.65    0.53
 -16  -6   3    1.44    0.50
  22 -16   3    1.43    0.49
 -23  11  -3    0.79    0.55
  23 -11   3    0.92    0.49
 -11 -12   3    0.90    0.50
 -23  12  -3    0.67    0.53
  23 -12   3   -0.05    0.44
 -12 -11   3    0.68    0.50
   0   0  -4  218.36   18.79
   0   0   4  245.01   16.56
   0   0   4  246.48   15.42
   0   1  -4    9.58    0.83
   0   1  -4    9.51    0.85
   1  -1  -4    9.17    0.84
  -1   0  -4    9.06    0.83
   1  -1  -4    9.72    0.86
   1   0   4   10.12    0.71
   0  -1   4    9.96    0.78
   1   0   4   10.49    0.77
  -1   1   4   10.16    0.71
  -1   1  -4    5.04    0.45
   1   0  -4    5.30    0.49
   0  -1  -4    4.37    0.46
   1   0  -4    4.54    0.45
   2  -1  -4    6.31    0.59
   2  -1  -4    6.01    0.55
  -1  -1  -4    5.92    0.55
  -1   2  -4    5.90    0.53
  -1   2  -4    6.02    0.56
   1  -2   4    5.76    0.54
   1  -2   4    5.72    0.56
   1   1   4    6.17    0.52
   1   1   4    5.89    0.48
  -2   1   4    5.66    0.47
  -2  -1  -4    5.68    0.47
  -1   3  -4    5.90    0.44
   3  -2  -4    5.13    0.46
  -1   3  -4    5.69    0.47
   3  -2  -4    5.39    0.50
  -3   2   4    4.31    0.42
   1  -3   4    3.60    0.45
   2   1   4    3.69    0.44
   2   1   4    3.62    0.39
   1  -3   4    3.41    0.44
   2   1   4    3.98    0.42
   2   0   4    9.96    0.82
  -2   2   4    9.48    0.70
   0  -2   4    9.32    0.77
   2   0   4    9.66    0.70
   2   0   4    9.27    0.75
   0  -2   4    9.04    0.78
   1   1  -4    6.13    0.54
   1  -2  -4    6.13    0.56
   1   1  -4    5.91    0.56
  -2   1  -4    6.60    0.54
  -1  -1   4    5.20    0.53
   2  -1   4    5.55    0.52
  -1   2   4    5.24    0.49
   2  -1   4    5.75    0.48
  -1  -1   4    5.96    0.54
   2   0  -4   12.62    1.04
   0  -2  -4   14.00    1.06
  -2   2  -4   13.61    1.03
   2   0  -4   13.97    1.07
   2  -2   4   11.06    1.00
   0   2   4   10.79    0.92
   2  -2   4   11.10    0.96
   0   2   4   11.02    0.87
  -1  -2  -4    5.67    0.54
   3  -1  -4    5.63    0.56
   3  -1  -4    5.19    0.53
  -2   3  -4    5.41    0.51
   2  -3   4    6.09    0.56
   2  -3   4    6.06    0.53
   1   2   4    5.80    0.50
  -3   1   4    6.51    0.48
   1   2   4    5.69    0.48
   1   2   4    5.59    0.54
  -2  -2  -4    2.41    0.29
   4  -2  -4    2.40    0.30
  -2   4  -4    2.26    0.26
  -2   4  -4    2.49    0.29
   4  -2  -4    2.52    0.34
   2  -4   4    2.37    0.31
   2   2   4    2.04    0.27
  -4   2   4    2.13    0.27
   2  -4   4    2.09    0.32
   2   2   4    2.18    0.25
   2   2   4    2.22    0.28
  -2   5  -4   30.77    2.58
  -2   5  -4   32.03    2.59
   3   2   4   33.24    2.29
   2  -5   4   33.06    2.35
   2  -5   4   31.98    2.45
  -5   3   4   33.26    2.16
   3   2   4   33.57    2.16
   3   2   4   30.00    2.61
  -3  -1  -4    7.46    0.64
   4  -3  -4    7.58    0.69
  -1   4  -4    7.63    0.61
  -1   4  -4    7.84    0.63
   3   1   4    6.48    0.64
   3   1   4    6.52    0.56
  -4   3   4    7.11    0.58
   1  -4   4    6.39    0.62
   3   1   4    6.38    0.58
   1  -4   4    6.63    0.63
   3  -3  -4   29.25    2.40
  -3   0  -4   31.26    2.37
   0   3  -4   30.52    2.36
   0   3  -4   30.41    2.35
   3  -3  -4   31.05    2.37
   3   0   4   27.39    2.09
   3   0   4   27.99    1.95
   0  -3   4   28.40    2.21
   0  -3   4   27.15    2.12
   3   0   4   28.42    2.36
  -3   3   4   27.57    1.95
   1   2  -4    5.43    0.45
  -3   1  -4    5.57    0.46
   2  -3  -4    5.86    0.47
   1   2  -4    5.55    0.48
  -1  -2   4    3.63    0.43
   3  -1   4    4.19    0.41
   3  -1   4    4.38    0.46
  -2   3   4    3.97    0.42
   3  -1   4    3.91    0.44
  -1  -2   4    3.80    0.45
   1  -3  -4    5.55    0.53
   2   1  -4    5.66    0.51
   2   1  -4    5.46    0.54
  -3   2  -4    5.54    0.51
   3  -2   4    5.35    0.47
  -1   3   4    5.50    0.49
  -2  -1   4    5.31    0.52
   3  -2   4    5.69    0.51
   3  -2   4    5.68    0.54
   3  -2   4    5.94    0.51
  -3   3  -4   16.44    1.36
   3   0  -4   16.73    1.40
   0  -3  -4   17.78    1.39
   3   0  -4   16.91    1.37
  -3   0   4   16.28    1.28
   3  -3   4   16.02    1.24
   0   3   4   15.92    1.15
   3  -3   4   16.21    1.31
   3  -3   4   16.80    1.14
   4  -1  -4    9.45    1.05
   3  -4   4   12.77    1.00
   1   3   4   12.45    0.87
  -4   1   4   13.00    0.87
   3  -4   4   12.13    0.95
   1   3   4   13.07    0.90
  -4   1   4   11.95    0.96
   5  -2  -4   23.75    2.05
  -3   5  -4   23.18    1.99
  -3   5  -4   24.32    2.00
  -5   2   4   25.58    1.88
   3  -5   4   25.16    1.92
  -5   2   4   26.43    1.68
   2   3   4   25.78    1.77
   2   3   4   25.13    1.68
   3  -5   4   23.55    1.82
  -6   3   4    9.73    0.80
  -6   3   4    9.98    0.74
   3  -6   4    9.33    0.81
   3   3   4    9.49    0.73
   3  -6   4   10.12    0.85
   4   3   4    1.92    0.27
  -7   4   4    2.20    0.26
   3  -7   4    1.66    0.31
  -7   4   4    2.39    0.29
   3  -7   4    1.83    0.31
   4   2   4   27.68    1.87
   2  -6   4   27.37    2.12
   4   2   4   27.27    1.98
   2  -6   4   26.89    2.03
  -6   4   4   28.67    1.88
  -1   5  -4   10.38    0.86
  -1   5  -4   10.19    0.85
  -5   4   4   10.62    0.77
   4   1   4   10.04    0.76
   1  -5   4    9.91    0.86
   4   1   4   10.49    0.89
   4   1   4    9.98    0.79
   1  -5   4   10.30    0.84
  -4   0  -4   38.25    3.40
   0   4  -4   39.62    3.39
   0   4  -4   38.41    3.38
   4   0   4   44.48    3.40
   0  -4   4   46.40    3.19
  -4   4   4   45.18    2.81
   4   0   4   42.07    2.80
   0  -4   4   42.91    3.04
   4   0   4   43.22    3.00
   3  -4  -4    7.41    0.68
  -4   1  -4    7.56    0.64
   1   3  -4    7.18    0.61
   1   3  -4    8.06    0.64
  -1  -3   4    6.08    0.62
  -3   4   4    7.16    0.56
  -1  -3   4    6.34    0.61
   4  -1   4    6.51    0.56
   4  -1   4    6.78    0.62
   4  -1   4    6.27    0.58
   2   2  -4    2.34    0.30
   2   2  -4    2.60    0.27
  -4   2  -4    2.44    0.29
  -2   4   4    2.19    0.28
   4  -2   4    1.93    0.29
   4  -2   4    2.28    0.27
  -2  -2   4    2.20    0.28
   4  -2   4    1.85    0.26
   3   1  -4    8.61    0.95
  -4   3  -4    8.98    0.92
   3   1  -4    9.01    0.93
  -1   4   4   13.06    0.81
   4  -3   4   12.04    0.87
  -3  -1   4   12.62    0.89
   4  -3   4   12.50    0.80
   4  -3   4   13.03    0.93
   4   0  -4   51.20    4.03
   4   0  -4   46.00    4.01
  -4   4  -4   49.60    3.99
   4  -4   4   53.09    3.78
  -4   0   4   50.79    3.74
   4  -4   4   49.93    3.29
   0   4   4   50.14    3.30
   4  -4   4   48.78    3.56
   5  -1  -4    7.05    0.64
  -4   5  -4    7.27    0.56
   4  -5   4    6.10    0.62
   1   4   4    6.13    0.53
  -5   1   4    5.96    0.56
   4  -5   4    5.90    0.50
  -5   1   4    6.08    0.54
   4  -5   4    6.27    0.59
   4  -6   4   11.29    1.02
  -6   2   4   13.40    0.88
   4  -6   4   11.90    0.95
   2   4   4   11.43    0.87
  -6   2   4   11.46    0.95
   4  -7   4    6.20    0.61
   3   4   4    6.59    0.55
   4  -7   4    6.44    0.64
  -7   3   4    6.89    0.55
  -7   3   4    6.40    0.57
  -8   4   4   81.95    5.81
   4  -8   4   75.85    5.54
   4   4   4   76.81    5.13
   4  -8   4   76.59    5.85
   4  -9   4    9.29    0.85
   5   4   4    9.07    0.75
   4  -9   4    9.39    0.81
   3  -8   4    8.88    0.82
   5   3   4    8.77    0.70
   3  -8   4    8.85    0.78
   5   2   4    8.84    0.69
  -7   5   4    9.11    0.71
   2  -7   4    7.99    0.76
   2  -7   4    8.62    0.77
   5   2   4    8.71    0.68
   5   1   4    8.66    0.66
   1  -6   4    8.06    0.74
   5   1   4    8.36    0.68
  -6   5   4    8.58    0.68
   1  -6   4    8.48    0.74
  -5   0  -4   10.01    0.81
  -5   0  -4   10.07    0.99
   0   5  -4   10.06    0.78
   0   5  -4    9.49    0.76
   0  -5   4    8.16    0.77
  -5   5   4    8.17    0.69
   5   0   4    8.37    0.79
   5   0   4    8.50    0.69
   0  -5   4    8.61    0.77
   5   0   4    7.90    0.72
  -5   1  -4   10.12    1.12
   1   4  -4    9.53    0.87
  -5   1  -4   11.09    0.91
   1   4  -4   10.06    0.88
   5  -1   4   10.91    0.78
  -1  -4   4    9.55    0.84
  -1  -4   4   10.66    0.86
   5  -1   4   10.35    0.82
  -4   5   4   10.68    0.78
   5  -1   4   11.07    0.90
  -5   2  -4   33.37    3.12
   2   3  -4   30.55    2.60
   2   3  -4   31.24    2.61
  -5   2  -4   31.37    2.61
   5  -2   4   33.39    2.16
   5  -2   4   32.85    2.61
  -3   5   4   32.56    2.16
   5  -2   4   31.87    2.32
  -2  -3   4   33.17    2.45
  -5   3  -4   23.44    2.03
   3   2  -4   23.09    2.05
   5  -3   4   26.78    2.03
   5  -3   4   26.91    1.69
  -3  -2   4   24.93    1.91
   5  -3   4   24.23    1.82
  -2   5   4   25.50    1.70
  -5   4  -4    7.17    0.58
   4   1  -4    6.74    0.62
  -1   5   4    6.46    0.54
  -4  -1   4    6.22    0.58
   5  -4   4    5.54    0.57
   5  -4   4    6.44    0.57
   5  -4   4    6.23    0.53
  -5   5  -4    1.90    0.24
   5   0  -4    1.72    0.30
   0   5   4    3.00    0.29
   5  -5   4    2.52    0.31
   5  -6   4   10.83    0.91
   5  -6   4   10.78    0.76
  -6   1   4   10.12    0.85
   1   5   4   10.62    0.78
   5  -6   4    9.97    0.85
   5  -7   4    5.06    0.60
   5  -7   4    5.23    0.53
  -7   2   4    6.08    0.53
   2   5   4    5.91    0.49
   5  -8   4   13.59    1.12
  -8   3   4   13.88    1.13
   3   5   4   14.64    1.04
   5  -8   4   14.92    1.19
   4   5   4   17.34    1.19
   5  -9   4   16.52    1.36
   5  -9   4   15.46    1.29
  -9   4   4   16.77    1.31
   5   5   4    2.44    0.32
 -10   5   4    2.68    0.33
   5 -10   4    2.05    0.37
   5 -10   4    2.20    0.38
   5 -11   4    9.70    0.92
   5 -11   4   11.87    1.00
   6   5   4   10.51    0.85
   6   4   4    2.61    0.32
   4 -10   4    1.90    0.36
   4 -10   4    1.83    0.37
   3  -9   4   18.68    1.45
   6   3   4   17.67    1.26
   3  -9   4   17.08    1.39
   2  -8   4    9.94    0.89
   2  -8   4   10.88    0.91
   6   2   4   10.76    0.81
   1  -7   4    2.36    0.33
   1  -7   4    2.25    0.37
  -7   6   4    2.05    0.30
   6   1   4    2.11    0.29
  -6   0  -4   40.22    3.51
   0  -6   4   33.63    2.65
   6   0   4   35.69    2.45
   6   0   4   35.94    2.62
   0  -6   4   37.07    2.79
  -6   6   4   36.82    2.46
  -6   1  -4    7.99    0.96
  -6   1  -4    7.04    0.75
   6  -1   4    8.62    0.70
   6  -1   4    8.75    0.66
   6  -1   4    9.35    0.76
  -1  -5   4    8.58    0.74
  -5   6   4    8.83    0.67
  -1  -5   4    8.30    0.72
  -6   2  -4   30.02    2.32
   2   4  -4   28.14    2.29
  -6   2  -4   28.37    2.76
   2   4  -4   28.35    2.31
   6  -2   4   28.41    1.92
  -4   6   4   28.37    1.92
  -2  -4   4   27.96    2.17
   6  -2   4   28.87    2.31
   6  -2   4   26.71    2.06
   6  -3   4    9.02    0.73
   6  -3   4    9.24    0.79
  -3   6   4   10.35    0.74
  -3  -3   4    9.58    0.81
   6  -3   4   10.01    0.84
  -6   4  -4   11.18    1.14
  -6   4  -4   10.11    0.95
  -6   4  -4   10.62    1.23
   4   2  -4   10.10    0.98
  -4  -2   4   11.57    0.92
   6  -4   4   11.64    0.90
   6  -4   4   11.94    0.83
   6  -4   4   11.88    0.95
  -2   6   4   12.10    0.84
  -6   5  -4   12.44    1.14
   5   1  -4   11.61    0.98
  -1   6   4   11.12    0.81
   6  -5   4    9.97    0.86
  -5  -1   4   10.15    0.90
   6  -5   4   11.14    0.81
  -6   6  -4   15.21    1.68
  -6   0   4   17.70    1.36
   0   6   4   17.02    1.21
   6  -6   4   18.20    1.33
   6  -6   4   18.27    1.20
   1   6   4   12.04    0.86
   6  -7   4   11.13    0.81
  -7   1   4   11.72    0.93
   6  -7   4   10.11    0.92
  -6   8  -4    5.71    0.94
   6  -8   4    9.74    0.80
   6  -8   4    8.74    0.74
  -8   2   4    8.83    0.72
   2   6   4    8.60    0.67
  -6   9  -4   32.15    3.10
   6  -9   4   32.38    2.42
   6  -9   4   33.69    2.56
  -9   3   4   33.25    2.51
   3   6   4   33.19    2.23
  -6  10  -4    1.16    0.41
   6 -10   4    0.27    0.28
   4   6   4    0.73    0.25
   6 -10   4    0.55    0.29
 -10   4   4    0.34    0.22
  -6  11  -4    7.10    0.93
   6 -11   4    7.14    0.69
   6 -11   4    6.96    0.76
 -11   5   4    7.92    0.70
   5   6   4    7.63    0.66
   6 -12   4    3.23    0.48
   6   6   4    2.64    0.38
   6 -12   4    3.52    0.45
  -6  13  -4   10.67    1.35
   6 -13   4   11.98    1.04
   6 -13   4   13.02    1.13
   7   6   4   12.54    0.96
  -5  12  -4    8.27    1.06
   5 -12   4    8.54    0.89
   5 -12   4    9.50    0.84
   7   5   4    9.15    0.74
   7   4   4    1.39    0.29
   4 -11   4    1.37    0.34
   4 -11   4    1.38    0.36
   3 -10   4    3.21    0.42
   3 -10   4    2.86    0.44
   7   3   4    3.13    0.36
   2  -9   4    8.58    0.78
   7   2   4    8.02    0.68
   2  -9   4    8.58    0.77
   1  -8   4    2.20    0.32
  -8   7   4    1.64    0.31
   7   1   4    1.37    0.27
   1  -8   4    1.76    0.33
   7   0   4    8.18    0.66
   0  -7   4    8.01    0.74
   0  -7   4    8.56    0.75
  -7   7   4    8.06    0.67
  -7   1  -4    1.16    0.41
   7  -1   4    2.24    0.29
  -1  -6   4    2.40    0.35
  -1  -6   4    2.27    0.31
  -6   7   4    2.67    0.32
  -7   2  -4    8.87    1.04
   7  -2   4    9.31    0.79
  -2  -5   4    8.63    0.78
   7  -2   4    8.79    0.71
  -5   7   4    8.86    0.71
  -7   3  -4    2.56    0.31
   3   4  -4    3.07    0.34
  -7   3  -4    3.14    0.51
  -3  -4   4    1.86    0.31
   7  -3   4    2.15    0.30
   7  -3   4    2.33    0.32
  -4   7   4    2.17    0.30
   7  -3   4    2.14    0.29
  -4  -3   4    7.04    0.63
  -3   7   4    6.06    0.59
   7  -4   4    7.62    0.59
   7  -4   4    7.04    0.62
   7  -4   4    6.54    0.62
  -7   5  -4    6.85    0.73
   5   2  -4    5.70    0.58
  -7   5  -4    5.74    0.81
   7  -5   4    5.09    0.56
   7  -5   4    6.20    0.52
  -5  -2   4    5.60    0.56
  -2   7   4    5.86    0.52
  -7   6  -4   15.72    1.38
  -6  -1   4   11.41    0.99
  -1   7   4   11.34    0.89
   7  -6   4   12.57    0.88
   7  -6   4   10.56    0.96
  -7   7  -4    6.97    0.71
   7  -7   4    4.64    0.41
  -7   0   4    4.08    0.45
   0   7   4    3.77    0.42
   7  -7   4    4.17    0.47
  -7   8  -4    2.30    0.48
   7  -8   4    2.80    0.31
  -8   1   4    2.66    0.34
   7  -8   4    2.60    0.38
   1   7   4    2.81    0.33
  -7   9  -4    8.23    1.05
   2   7   4    9.62    0.73
   7  -9   4    8.81    0.80
  -9   2   4    9.97    0.81
  -7  10  -4    0.65    0.44
   3   7   4    2.29    0.31
 -10   3   4    2.77    0.34
   7 -10   4    2.36    0.38
  -7  11  -4   -0.06    0.38
 -11   4   4   -0.27    0.23
   7 -11   4   -0.30    0.27
   4   7   4    0.07    0.24
  -7  12  -4    4.12    0.68
 -12   5   4    4.09    0.47
   7 -12   4    3.80    0.51
   5   7   4    4.44    0.44
   7 -12   4    3.52    0.51
  -7  13  -4    8.33    1.17
 -13   6   4    9.19    0.88
   7 -13   4   10.64    0.90
   6   7   4    9.93    0.82
   7 -13   4   10.64    0.96
  -7  14  -4    1.62    0.54
   7   7   4    1.83    0.33
   7 -14   4    1.33    0.42
   7 -14   4    1.67    0.42
  -7  15  -4    4.81    0.84
   8   7   4    6.68    0.62
  -6  14  -4    2.89    0.62
   8   6   4    1.46    0.35
   6 -14   4    1.48    0.41
   6 -14   4    2.00    0.43
  -5  13  -4    4.59    0.73
   5 -13   4    4.19    0.55
   8   5   4    4.42    0.48
   5 -13   4    3.61    0.55
   4 -12   4   25.92    2.06
   4 -12   4   26.18    1.97
   8   4   4   25.72    1.81
   8   3   4    6.64    0.62
   3 -11   4    7.08    0.72
   3 -11   4    7.26    0.71
   2 -10   4    2.31    0.37
   2 -10   4    2.14    0.40
   8   2   4    2.27    0.34
   8   1   4   10.13    0.84
   1  -9   4   11.06    0.95
   1  -9   4   11.53    0.94
   8   0   4    3.00    0.35
   0  -8   4    3.09    0.42
   0  -8   4    2.74    0.38
  -8   8   4    3.00    0.39
  -8   1  -4    2.07    0.43
   8  -1   4    1.52    0.29
  -1  -7   4    1.92    0.31
  -7   8   4    1.50    0.31
  -8   2  -4   12.22    1.24
   8  -2   4   11.13    0.84
  -6   8   4   11.05    0.85
  -2  -6   4   10.29    0.93
  -8   3  -4    6.69    1.05
   8  -3   4    9.56    0.71
  -3  -5   4    9.38    0.78
   8  -3   4    9.56    0.80
  -5   8   4    8.53    0.71
   4   4  -4   82.40    6.66
  -8   4  -4   85.90    6.66
  -8   4  -4   84.12    7.86
  -8   4  -4   84.70    7.49
   8  -4   4   86.07    6.65
  -4  -4   4   81.00    6.22
   8  -4   4   81.85    5.48
  -4   8   4   79.08    5.48
  -8   5  -4   16.69    1.65
   5   3  -4   15.53    1.29
  -8   5  -4   16.09    1.49
   8  -5   4   14.24    1.17
  -5  -3   4   14.69    1.22
   8  -5   4   14.89    1.09
  -3   8   4   14.79    1.09
  -8   6  -4    6.15    0.90
  -8   6  -4    5.99    0.97
  -2   8   4    9.38    0.68
  -6  -2   4    9.49    0.74
   8  -6   4    9.79    0.68
   8  -6   4    9.12    0.72
  -8   7  -4    2.73    0.47
  -8   7  -4    2.18    0.53
  -7  -1   4    2.63    0.33
  -1   8   4    2.18    0.31
   8  -7   4    1.97    0.36
   8  -7   4    2.75    0.32
  -8   8  -4    8.20    0.90
   8  -8   4    5.19    0.51
  -8   0   4    5.38    0.56
   8  -8   4    5.33    0.56
   0   8   4    5.01    0.51
  -8   9  -4    2.50    0.66
  -8   9  -4    3.46    0.57
   1   8   4    3.35    0.39
   8  -9   4    4.50    0.38
   8  -9   4    3.31    0.44
  -9   1   4    3.40    0.41
  -8  10  -4    5.57    0.76
  -8  10  -4    5.69    0.86
   2   8   4    6.23    0.54
 -10   2   4    5.42    0.57
   8 -10   4    5.39    0.59
   8 -11   4    7.82    0.68
   3   8   4    5.51    0.58
 -11   3   4    6.32    0.66
  -8  12  -4   12.61    1.67
   8 -12   4   16.91    1.33
   4   8   4   18.50    1.22
 -12   4   4   17.95    1.36
  -8  13  -4    2.18    0.58
   8 -13   4    2.85    0.44
   5   8   4    3.20    0.39
 -13   5   4    3.07    0.43
  -8  14  -4    0.61    0.50
 -14   6   4    2.02    0.39
   6   8   4    1.77    0.34
   8 -14   4    1.92    0.42
  -8  15  -4   14.10    1.66
  -8  15  -4   14.02    1.55
   7   8   4   13.59    1.07
  -8  16  -4   25.45    2.63
  -8  16  -4   23.49    2.48
   8   8   4   25.67    1.76
  -8  17  -4    4.66    0.94
  -8  17  -4    4.23    0.81
   9   8   4    5.31    0.54
  -7  16  -4    0.47    0.54
   9   7   4    0.90    0.33
  -6  15  -4    1.23    0.62
   6 -15   4    3.54    0.54
   9   6   4    4.20    0.46
  -5  14  -4    4.02    0.69
   5 -14   4    3.03    0.50
   9   5   4    3.22    0.44
   5 -14   4    2.45    0.49
   4 -13   4    4.47    0.59
   4 -13   4    5.32    0.62
   9   4   4    5.11    0.51
   9   3   4    5.16    0.50
   3 -12   4    4.93    0.59
   3 -12   4    4.80    0.58
   2 -11   4    2.26    0.40
   2 -11   4    2.50    0.40
   9   2   4    2.40    0.37
   9   1   4   11.27    0.89
   1 -10   4   12.10    1.00
   1 -10   4   10.90    0.97
   0  -9   4   30.72    2.41
   9   0   4   31.37    2.13
   0  -9   4   31.16    2.31
  -9   1  -4   13.88    1.28
  -1  -8   4   10.78    0.98
   9  -1   4   10.87    0.87
  -8   9   4   10.30    0.89
  -9   2  -4    7.79    1.01
  -2  -7   4    8.31    0.76
   9  -2   4    8.92    0.72
  -7   9   4    8.25    0.70
  -9   3  -4   13.87    1.76
  -3  -6   4   18.25    1.38
  -6   9   4   17.20    1.23
   9  -3   4   18.94    1.23
  -9   4  -4   12.12    1.18
  -4  -5   4    9.84    0.89
  -5   9   4    9.44    0.81
   9  -4   4    9.45    0.81
  -9   5  -4   20.19    1.95
  -9   5  -4   20.99    1.82
   9  -5   4   18.46    1.33
  -5  -4   4   17.30    1.49
  -4   9   4   17.46    1.33
  -9   6  -4   32.60    3.08
  -9   6  -4   32.04    3.28
  -3   9   4   31.64    2.25
  -6  -3   4   35.26    2.55
   9  -6   4   32.90    2.43
   9  -6   4   34.73    2.25
  -9   7  -4    7.85    1.10
  -9   7  -4    7.72    0.96
   9  -7   4    9.14    0.78
  -7  -2   4    9.17    0.77
  -2   9   4    8.41    0.70
   9  -7   4    9.93    0.73
  -9   8  -4    3.59    0.67
  -9   8  -4    3.69    0.57
  -8  -1   4    3.58    0.43
   9  -8   4    4.33    0.41
  -1   9   4    3.59    0.40
   9  -8   4    3.48    0.45
  -9   9  -4   32.42    3.72
  -9   9  -4   34.80    3.55
   9  -9   4   40.46    2.57
  -9   0   4   40.06    2.92
   9  -9   4   38.92    2.78
   0   9   4   41.48    2.58
  -9  10  -4    9.76    1.14
  -9  10  -4   10.18    1.24
   1   9   4   11.20    0.82
 -10   1   4    9.94    0.89
   9 -10   4   10.63    0.81
   9 -10   4    9.41    0.88
  -9  11  -4   12.13    1.15
  -9  11  -4   10.81    1.27
 -11   2   4   10.07    0.89
   9 -11   4    8.62    0.86
   2   9   4    8.43    0.77
  -9  12  -4    7.79    0.86
  -9  12  -4    8.49    1.01
 -12   3   4    4.80    0.58
   9 -12   4    4.41    0.60
   3   9   4    4.71    0.52
  -9  13  -4    0.81    0.48
  -9  13  -4    1.73    0.62
   9 -13   4    1.85    0.40
   4   9   4    1.79    0.33
 -13   4   4    1.99    0.38
  -9  14  -4    2.36    0.73
  -9  14  -4    2.66    0.65
   5   9   4    4.24    0.45
 -14   5   4    3.81    0.49
  -9  15  -4   12.49    1.54
  -9  15  -4   13.79    1.40
   6   9   4   11.43    0.94
 -15   6   4   10.29    1.07
  -9  16  -4    6.36    0.88
  -9  16  -4    6.24    0.93
   7   9   4    4.35    0.53
 -16   7   4    4.27    0.61
  -9  17  -4    1.18    0.58
  -9  17  -4    0.72    0.63
   8   9   4    0.41    0.35
  -9  18  -4    0.43    0.57
  -9  18  -4    0.13    0.63
  18  -9  -4    0.25    0.42
   9   9   4    0.27    0.33
  19 -10  -4    3.02    0.53
  -9  19  -4    1.82    0.77
  -9  19  -4    1.65    0.66
  -8  18  -4    2.31    0.80
  -8  18  -4    3.26    0.76
  10   8   4    3.80    0.49
  -7  17  -4    2.53    0.67
  10   7   4    1.76    0.39
  -6  16  -4    2.18    0.62
  10   6   4    1.33    0.37
   6 -16   4    1.46    0.47
  -5  15  -4    4.91    0.78
  10   5   4    3.91    0.48
   5 -15   4    2.78    0.54
  -4  14  -4    1.07    0.52
  10   4   4    1.03    0.32
   4 -14   4    1.17    0.41
   3 -13   4    4.69    0.57
   3 -13   4    4.66    0.57
  10   3   4    4.08    0.49
  10   2   4    4.81    0.49
   2 -12   4    4.63    0.55
   2 -12   4    4.06    0.55
   1 -11   4    2.98    0.43
   1 -11   4    2.82    0.45
  10   1   4    2.74    0.39
  10   0   4    6.49    0.65
   0 -10   4    8.03    0.76
 -10   1  -4   10.93    1.30
  -1  -9   4   11.87    1.03
  10  -1   4   11.70    0.90
 -10   2  -4    3.33    0.55
  10  -2   4    2.61    0.36
  -2  -8   4    2.76    0.39
  -8  10   4    2.41    0.38
 -10   3  -4    3.85    0.61
  -7  10   4    3.12    0.40
  -3  -7   4    3.00    0.41
  10  -3   4    3.27    0.40
 -10   4  -4    4.04    0.59
  10  -4   4    2.41    0.35
  -6  10   4    2.06    0.34
  -4  -6   4    2.44    0.37
 -10   5  -4    3.18    0.60
 -10   5  -4    2.77    0.45
  10  -5   4    2.30    0.35
  -5  10   4    2.51    0.35
  -5  -5   4    2.55    0.37
 -10   6  -4    0.87    0.46
 -10   6  -4    1.31    0.35
  10  -6   4    0.69    0.27
  -6  -4   4    0.57    0.26
  -4  10   4    0.76    0.27
 -10   7  -4    0.98    0.51
 -10   7  -4    1.35    0.41
  -3  10   4    2.20    0.33
  10  -7   4    2.39    0.35
  -7  -3   4    2.70    0.34
  10  -7   4    2.50    0.38
 -10   8  -4    6.10    0.78
 -10   8  -4    5.92    0.87
  10  -8   4    5.45    0.60
  -8  -2   4    6.03    0.61
  -2  10   4    5.87    0.55
  10  -8   4    6.01    0.58
 -10   9  -4    9.85    1.11
 -10   9  -4    9.92    1.27
  -1  10   4   10.18    0.80
  10  -9   4   10.04    0.89
  -9  -1   4   10.03    0.89
  10  -9   4   10.83    0.82
 -10  10  -4   11.66    1.27
 -10  10  -4   11.49    1.45
  10 -10   4   12.10    0.98
 -10   0   4   11.30    1.00
   0  10   4   11.77    0.89
  10 -10   4   11.61    0.91
 -10  11  -4    5.90    0.83
 -10  11  -4    5.41    0.91
 -11   1   4    6.67    0.65
   1  10   4    6.78    0.59
  10 -11   4    6.17    0.66
 -10  12  -4   10.14    1.06
 -10  12  -4    9.69    1.17
   2  10   4    8.07    0.71
  10 -12   4    6.82    0.78
 -12   2   4    7.41    0.80
 -10  13  -4    2.05    0.56
 -10  13  -4    2.29    0.71
 -13   3   4    1.88    0.40
  10 -13   4    2.28    0.42
   3  10   4    1.95    0.35
 -10  14  -4    3.98    0.81
 -10  14  -4    3.83    0.71
   4  10   4    3.65    0.44
 -14   4   4    3.47    0.51
 -10  15  -4    0.44    0.48
 -10  15  -4    0.61    0.65
   5  10   4   -0.06    0.29
 -15   5   4    0.13    0.34
 -10  16  -4    0.32    0.63
  16  -6  -4    0.53    0.39
 -10  16  -4    0.85    0.54
 -16   6   4    1.42    0.42
   6  10   4    1.39    0.36
  17  -7  -4    0.96    0.41
 -10  17  -4    0.53    0.67
 -10  17  -4    0.78    0.57
 -17   7   4    1.20    0.41
   7  10   4    1.25    0.37
  18  -8  -4    3.44    0.55
 -10  18  -4    2.24    0.82
 -10  18  -4    2.75    0.71
   8  10   4    3.25    0.46
  19  -9  -4    0.75    0.48
 -10  19  -4    0.90    0.62
 -10  19  -4    2.03    0.76
  20 -10  -4    4.05    0.59
 -10  20  -4    1.98    0.72
 -10  20  -4    3.19    0.84
  21 -11  -4    1.28    0.52
 -10  21  -4    1.23    0.73
 -10  21  -4    1.09    0.66
  -9  20  -4    0.51    0.73
  -9  20  -4    0.64    0.60
  20 -11  -4    1.33    0.50
  -8  19  -4    0.09    0.65
  -8  19  -4    0.82    0.60
  19 -11  -4    0.68    0.49
  11   8   4    0.37    0.37
  -7  18  -4    3.22    0.84
  -7  18  -4    2.60    0.69
  11   7   4    2.93    0.47
  -6  17  -4    3.05    0.71
   6 -17   4    2.21    0.53
  11   6   4    2.46    0.43
  -5  16  -4    0.54    0.56
  11   5   4    0.54    0.35
   5 -16   4    0.45    0.44
  -4  15  -4    9.57    1.30
  11   4   4   10.74    0.92
   4 -15   4   12.19    1.07
  11   3   4   13.14    1.06
   3 -14   4   13.53    1.22
 -11  -2  -4    4.21    0.51
   2 -13   4    4.19    0.54
  11   2   4    3.31    0.47
   1 -12   4   11.05    0.98
  11   1   4   10.25    0.87
  11   0   4    9.44    0.79
   0 -11   4    9.14    0.91
  11  -1   4    3.03    0.41
  -1 -10   4    3.08    0.46
 -11   2  -4    0.96    0.47
  11  -2   4    2.52    0.37
  -2  -9   4    2.07    0.36
 -11   3  -4    4.58    0.80
  -3  -8   4    6.91    0.66
  -8  11   4    7.54    0.64
  11  -3   4    6.90    0.65
 -11   4  -4    1.54    0.50
  -7  11   4    1.69    0.33
  11  -4   4    1.68    0.33
  -4  -7   4    1.06    0.31
 -11   5  -4   13.67    1.39
  -6  11   4   10.49    0.92
  11  -5   4   11.70    0.93
  -5  -6   4   12.10    1.03
 -11   6  -4    7.96    0.88
 -11   6  -4    7.36    1.03
  11  -6   4    8.17    0.73
  -6  -5   4    7.26    0.74
  -5  11   4    7.95    0.68
 -11   7  -4    0.13    0.47
 -11   7  -4    0.16    0.32
  11  -7   4   -0.23    0.27
  -7  -4   4    0.24    0.25
  -4  11   4    0.17    0.27
 -11   8  -4    9.79    1.07
  11  -8   4    7.40    0.69
  11  -8   4    7.00    0.68
  -8  -3   4    6.29    0.69
  -3  11   4    7.16    0.65
 -11   9  -4   12.27    1.11
 -11   9  -4   11.93    1.26
  -2  11   4    7.95    0.76
  11  -9   4    8.40    0.85
  -9  -2   4    8.94    0.86
  11  -9   4    9.33    0.78
 -11  10  -4    6.17    0.89
 -11  10  -4    7.39    1.01
 -10  -1   4    7.26    0.70
  -1  11   4    6.43    0.62
  11 -10   4    6.91    0.71
  11 -10   4    7.57    0.66
 -11  11  -4   11.29    1.16
 -11  11  -4   11.00    1.35
   0  11   4    9.19    0.79
 -11   0   4    9.48    0.91
  11 -11   4    8.91    0.82
  11 -11   4    9.83    0.87
 -11  12  -4   12.01    1.51
 -11  12  -4   12.43    1.37
 -12   1   4   12.93    1.09
   1  11   4   11.94    0.96
  11 -12   4   11.96    1.05
 -11  13  -4    3.43    0.79
 -11  13  -4    4.02    0.67
 -13   2   4    3.19    0.49
   2  11   4    3.27    0.43
  11 -13   4    3.41    0.48
 -11  14  -4    2.92    0.76
 -11  14  -4    1.71    0.60
 -14   3   4    3.43    0.49
   3  11   4    3.26    0.42
 -11  15  -4    8.54    1.17
 -11  15  -4    8.95    1.29
 -15   4   4    9.07    0.91
   4  11   4    9.64    0.79
  16  -5  -4    1.44    0.41
 -11  16  -4    1.08    0.58
 -11  16  -4    1.68    0.74
 -16   5   4    1.11    0.42
   5  11   4    1.34    0.35
 -11  17  -4    1.27    0.61
 -11  17  -4    2.56    0.78
  17  -6  -4    1.67    0.44
 -17   6   4    0.78    0.43
   6  11   4    0.07    0.32
 -11  18  -4    3.32    0.75
  18  -7  -4    3.17    0.51
 -11  18  -4    2.42    0.80
 -18   7   4    1.95    0.49
 -11  19  -4    0.19    0.70
  19  -8  -4    1.30    0.49
 -11  19  -4    0.00    0.57
 -11  20  -4    0.81    0.71
  20  -9  -4    1.23    0.51
 -11  20  -4    0.64    0.63
 -11  21  -4    0.67    0.73
  21 -10  -4    0.16    0.48
 -11  21  -4    0.10    0.59
  22 -11  -4    0.34    0.49
 -11  22  -4    0.12    0.58
 -11  22  -4    0.41    0.67
  22 -12  -4    0.82    0.52
 -10  22  -4    1.01    0.63
  -9  21  -4    2.65    0.73
  -9  21  -4    1.47    0.80
  21 -12  -4    2.96    0.58
  20 -12  -4    1.45    0.52
  -8  20  -4    1.80    0.66
  -8  20  -4    1.68    0.76
  -7  19  -4    1.17    0.74
  -7  19  -4    0.58    0.60
  12   7   4    1.64    0.41
  -6  18  -4    8.94    1.17
  12   6   4    7.89    0.77
   5 -17   4    4.66    0.66
  12   5   4    4.48    0.55
  -4  16  -4    1.96    0.63
   4 -16   4    1.05    0.42
  12   4   4    0.93    0.38
  -3  15  -4    6.21    0.90
  12   3   4    5.26    0.58
   3 -15   4    4.86    0.67
 -12  -2  -4    5.57    0.63
   2 -14   4    5.08    0.67
  12   2   4    5.64    0.59
 -12  -1  -4    2.61    0.47
   1 -13   4    4.32    0.54
  12   1   4    4.15    0.48
   0 -12   4   30.82    2.42
  12   0   4   30.62    2.14
  -1 -11   4    9.76    0.99
  12  -1   4   11.08    0.88
  -2 -10   4    4.94    0.58
  12  -2   4    5.52    0.55
  12  -3   4    5.78    0.57
  -3  -9   4    5.58    0.64
 -12   4  -4   30.06    2.76
  12  -4   4   28.12    1.95
  -4  -8   4   27.32    2.16
  -8  12   4   24.86    1.92
 -12   5  -4    9.30    1.19
  -7  12   4    9.88    0.82
  -5  -7   4    8.84    0.85
  12  -5   4    9.54    0.81
  12  -6   4    3.07    0.44
  -6  -6   4    3.97    0.46
  -6  12   4    3.14    0.42
 -12   7  -4    4.63    0.62
 -12   7  -4    4.42    0.76
  -7  -5   4    4.63    0.54
  12  -7   4    4.36    0.49
  -5  12   4    4.35    0.48
 -12   8  -4   14.67    1.65
 -12   8  -4   13.13    1.83
  12  -8   4   18.94    1.25
  -8  -4   4   17.28    1.37
  -4  12   4   18.45    1.24
 -12   9  -4    8.40    0.96
  12  -9   4    4.52    0.56
  -9  -3   4    4.85    0.55
  12  -9   4    4.19    0.52
  -3  12   4    4.51    0.50
 -12  10  -4   10.81    1.04
 -12  10  -4    9.90    1.27
  12 -10   4    7.65    0.80
 -10  -2   4    7.42    0.82
  12 -10   4    7.92    0.78
  -2  12   4    8.69    0.73
 -12  11  -4   12.97    1.54
 -12  11  -4   11.36    1.35
  12 -11   4   12.67    1.00
 -11  -1   4   12.53    1.11
  12 -11   4   12.32    1.08
  -1  12   4   13.25    0.97
 -12  12  -4   17.79    2.32
 -12  12  -4   17.79    2.18
 -12   0   4   24.36    1.80
   0  12   4   23.61    1.57
  12 -12   4   24.10    1.59
  12 -12   4   24.80    1.74
 -12  13  -4    2.85    0.80
 -12  13  -4    3.37    0.65
 -13   1   4    3.05    0.46
   1  12   4    2.52    0.40
 -12  14  -4    7.25    1.07
 -12  14  -4    6.07    0.92
 -14   2   4    5.83    0.70
   2  12   4    6.88    0.65
 -12  15  -4    9.95    1.40
 -12  15  -4    8.51    1.24
 -15   3   4   11.21    1.00
   3  12   4   10.34    0.85
 -12  16  -4    1.01    0.57
 -12  16  -4    1.25    0.70
   4  12   4    0.48    0.34
 -16   4   4    0.23    0.39
 -12  17  -4    2.60    0.83
 -12  17  -4    1.51    0.65
 -17   5   4    2.73    0.51
   5  12   4    3.38    0.45
 -12  18  -4    3.24    0.82
 -12  18  -4    3.90    0.94
 -18   6   4    6.90    0.69
 -12  19  -4    2.57    0.72
 -12  19  -4    3.00    0.82
  19  -7  -4    2.31    0.51
 -19   7   4    1.93    0.51
 -12  20  -4    9.87    1.43
  20  -8  -4   10.75    1.00
 -12  20  -4    9.92    1.32
 -12  21  -4    1.22    0.63
  21  -9  -4    0.91    0.49
 -12  21  -4    1.06    0.71
 -12  22  -4   -0.12    0.58
 -12  22  -4    0.12    0.65
  22 -10  -4    0.25    0.47
  21 -13  -4    1.95    0.53
  -8  21  -4    1.34    0.65
  -8  21  -4    1.65    0.74
  -7  20  -4    2.40    0.77
  20 -13  -4    1.99    0.54
  -7  20  -4    2.36    0.71
  -6  19  -4    0.40    0.67
  -6  19  -4   -0.10    0.55
  13   6   4    0.70    0.36
  -5  18  -4    0.73    0.59
   5 -18   4    1.58    0.50
  13   5   4    1.92    0.44
  -4  17  -4    1.32    0.61
   4 -17   4    1.75    0.50
  13   4   4    1.08    0.40
  -3  16  -4    1.85    0.62
  13   3   4    0.61    0.36
   3 -16   4    0.64    0.44
 -13  -2  -4    1.87    0.42
   2 -15   4    2.79    0.51
  13   2   4    1.94    0.43
 -13  -1  -4    2.16    0.41
   1 -14   4    1.18    0.40
  13   1   4    0.69    0.36
  13   0   4    1.10    0.37
   0 -13   4    1.71    0.42
  -1 -12   4    3.70    0.51
  13  -1   4    3.33    0.49
  13  -2   4    2.81    0.46
  -2 -11   4    3.40    0.50
  13  -3   4    4.18    0.52
  -3 -10   4    4.53    0.56
 -13   4  -4    6.40    0.86
  -4  -9   4    5.12    0.61
  13  -4   4    5.28    0.58
 -13   5  -4    5.12    0.78
  -8  13   4    3.80    0.51
  -5  -8   4    4.25    0.54
  13  -5   4    4.01    0.51
 -13   6  -4   11.19    1.39
  -6  -7   4   11.69    1.05
  13  -6   4   12.27    0.99
  -7  13   4   13.03    1.00
 -13   7  -4    8.65    1.07
 -13   7  -4    8.57    1.28
  13  -7   4   10.78    0.89
  -7  -6   4   11.18    0.94
  -6  13   4   10.05    0.83
 -13   8  -4    2.22    0.48
 -13   8  -4    2.51    0.64
  -5  13   4    2.97    0.41
  -8  -5   4    2.46    0.44
  13  -8   4    2.90    0.42
 -13   9  -4    0.78    0.55
 -13   9  -4    0.97    0.41
  13  -9   4    2.31    0.40
  -9  -4   4    1.93    0.37
  -4  13   4    2.17    0.37
 -13  10  -4    1.91    0.70
 -13  10  -4    1.89    0.51
  -3  13   4    2.33    0.38
  13 -10   4    2.32    0.43
 -10  -3   4    1.97    0.39
  13 -10   4    2.16    0.41
 -13  11  -4    4.68    0.67
 -13  11  -4    3.82    0.79
  -2  13   4    3.05    0.44
 -11  -2   4    3.58    0.51
  13 -11   4    3.14    0.51
  13 -11   4    3.09    0.47
 -13  12  -4    2.98    0.60
 -13  12  -4    3.23    0.78
 -12  -1   4    2.75    0.45
  13 -12   4    2.10    0.41
  -1  13   4    2.30    0.40
 -13  13  -4    3.97    0.67
 -13  13  -4    3.25    0.78
  13 -13   4    2.51    0.43
 -13   0   4    3.20    0.50
   0  13   4    2.57    0.41
 -13  14  -4    0.53    0.63
 -13  14  -4    0.77    0.51
 -14   1   4    0.67    0.38
   1  13   4    1.53    0.34
 -13  15  -4    6.35    0.90
 -13  15  -4    6.73    1.08
   2  13   4    5.97    0.59
 -15   2   4    4.83    0.65
 -13  16  -4    2.57    0.67
 -13  16  -4    1.61    0.76
 -16   3   4    2.80    0.51
   3  13   4    2.51    0.41
 -13  17  -4    0.29    0.71
 -13  17  -4    0.61    0.55
 -17   4   4    0.91    0.44
 -13  18  -4    0.93    0.69
 -13  18  -4    0.86    0.59
 -18   5   4    1.22    0.45
 -13  19  -4    3.48    0.74
 -13  19  -4    2.27    0.82
 -19   6   4    2.55    0.53
 -13  20  -4    1.97    0.77
 -13  20  -4    0.90    0.64
 -20   7   4    1.64    0.49
 -13  21  -4    2.24    0.79
 -13  21  -4    2.56    0.74
  -7  21  -4    2.94    0.73
  21 -14  -4    3.10    0.61
  20 -14  -4    3.57    0.63
  -6  20  -4    3.92    0.81
  -6  20  -4    3.96    0.86
  -5  19  -4    0.66    0.60
  14   5   4    0.67    0.41
   5 -19   4    0.44    0.46
  -4  18  -4    0.50    0.57
   4 -18   4    0.34    0.45
  14   4   4    0.32    0.40
  -3  17  -4    2.87    0.74
   3 -17   4    3.03    0.56
  14   3   4    3.33    0.49
  -2  16  -4    1.87    0.67
 -14  -2  -4    2.49    0.48
   2 -16   4    3.26    0.55
  14   2   4    2.67    0.45
 -14  -1  -4    2.04    0.46
  14   1   4    1.84    0.41
   1 -15   4    1.52    0.45
 -14   0  -4    1.15    0.40
  14   0   4    1.15    0.41
   0 -14   4    1.25    0.41
  -1 -13   4    1.63    0.42
  14  -1   4    1.66    0.40
  14  -2   4    5.47    0.60
  -2 -12   4    5.50    0.66
  -3 -11   4   13.96    1.22
  14  -3   4   12.95    1.10
  -4 -10   4    1.00    0.36
  14  -4   4    0.92    0.37
 -14   5  -4    4.11    0.73
  14  -5   4    4.01    0.51
  -5  -9   4    3.24    0.50
 -14   6  -4    3.19    0.65
  -6  -8   4    1.31    0.40
  14  -6   4    1.87    0.44
  -8  14   4    1.81    0.39
 -14   7  -4    1.62    0.62
  14  -7   4    1.26    0.39
  -7  14   4    1.17    0.37
  -7  -7   4    1.89    0.38
 -14   8  -4    0.93    0.57
  14  -8   4    2.13    0.40
  -8  -6   4    1.75    0.39
  -6  14   4    1.33    0.36
 -14   9  -4    3.09    0.79
 -14   9  -4    2.34    0.57
  -9  -5   4    4.40    0.53
  -5  14   4    4.21    0.48
  14  -9   4    4.20    0.52
 -14  10  -4    4.36    0.83
 -14  10  -4    4.30    0.66
  -4  14   4    3.99    0.48
 -10  -4   4    3.76    0.52
  14 -10   4    3.85    0.53
 -14  11  -4    2.37    0.56
 -14  11  -4    2.58    0.72
  -3  14   4    3.27    0.44
  14 -11   4    3.52    0.48
 -11  -3   4    2.95    0.49
 -14  12  -4    6.36    1.02
 -14  12  -4    5.57    0.82
 -12  -2   4    6.60    0.71
  14 -12   4    5.54    0.61
  -2  14   4    5.35    0.58
 -14  13  -4    0.72    0.51
 -14  13  -4    0.91    0.71
 -13  -1   4    1.01    0.38
  14 -13   4    0.90    0.39
  -1  14   4    0.76    0.35
 -14  14  -4   10.12    1.33
 -14  14  -4    7.55    1.08
 -14   0   4    8.34    0.90
   0  14   4    8.42    0.77
 -14  15  -4    2.87    0.68
 -14  15  -4    3.07    0.82
   1  14   4    2.21    0.41
 -15   1   4    2.10    0.49
 -14  16  -4    5.37    1.02
 -14  16  -4    5.84    0.91
 -16   2   4    5.55    0.69
 -14  17  -4    1.36    0.62
 -14  17  -4    1.19    0.73
 -17   3   4    0.64    0.43
 -14  18  -4    0.69    0.70
 -14  18  -4    0.20    0.59
 -18   4   4    0.22    0.42
 -14  19  -4    1.06    0.65
 -14  19  -4    0.32    0.75
 -19   5   4    0.64    0.44
 -14  20  -4    5.49    1.06
 -14  20  -4    4.88    0.96
 -20   6   4    6.65    0.74
 -14  21  -4    1.46    0.68
 -14  21  -4    1.10    0.72
 -21   7   4    1.74    0.49
  21 -15  -4    2.96    0.59
  -6  21  -4    1.95    0.67
  -5  20  -4   -0.48    0.55
  20 -15  -4    0.52    0.50
  15   5   4    0.53    0.40
  -4  19  -4    1.39    0.66
  15   4   4    2.66    0.46
   4 -19   4    1.93    0.54
  -3  18  -4    1.82    0.67
   3 -18   4    2.28    0.54
  15   3   4    2.00    0.47
  -2  17  -4    4.88    0.82
   2 -17   4    3.72    0.62
  15   2   4    3.37    0.54
  -1  16  -4    2.11    0.68
 -15  -1  -4    2.60    0.51
   1 -16   4    3.54    0.58
  15   1   4    4.10    0.53
 -15   0  -4    1.98    0.52
  15   0   4    3.18    0.51
   0 -15   4    3.38    0.55
 -15   1  -4    1.71    0.47
  15  -1   4    2.20    0.46
  -1 -14   4    1.52    0.44
  15  -2   4    1.78    0.45
  -2 -13   4    2.47    0.48
  15  -3   4    5.96    0.66
  -3 -12   4    5.91    0.70
  -4 -11   4    9.99    0.96
  15  -4   4   10.25    0.92
  -5 -10   4    3.06    0.50
  15  -5   4    3.63    0.54
  -6  -9   4    4.33    0.58
  15  -6   4    4.31    0.56
 -15   7  -4    6.13    0.99
  15  -7   4    6.62    0.70
  -7  -8   4    6.97    0.75
 -15   8  -4   14.08    1.59
  -8  -7   4   13.60    1.19
  -7  15   4   13.13    1.09
  15  -8   4   12.27    1.12
 -15   9  -4   14.07    1.49
  -6  15   4   11.08    0.97
  15  -9   4   10.56    1.00
  -9  -6   4   12.11    1.12
 -15  10  -4   -0.13    0.58
  15 -10   4    0.51    0.40
 -10  -5   4    0.24    0.34
  -5  15   4    0.37    0.33
 -15  11  -4    9.88    1.10
 -15  11  -4    8.39    1.28
 -11  -4   4    8.66    0.89
  -4  15   4    9.30    0.83
  15 -11   4    8.97    0.88
 -15  12  -4    8.38    1.28
 -15  12  -4    9.48    1.14
  15 -12   4    9.00    0.89
  -3  15   4    9.65    0.84
 -12  -3   4   10.31    0.96
 -15  13  -4    7.63    1.06
 -15  13  -4    6.78    0.87
 -13  -2   4    5.42    0.69
  15 -13   4    5.18    0.62
  -2  15   4    4.60    0.57
 -15  14  -4    3.52    0.65
 -15  14  -4    2.21    0.79
 -14  -1   4    2.22    0.50
  15 -14   4    1.59    0.46
  -1  15   4    2.65    0.44
 -15  15  -4    2.52    0.64
 -15  15  -4    1.76    0.78
   0  15   4    2.83    0.44
 -15   0   4    2.93    0.51
 -15  16  -4    1.08    0.72
 -15  16  -4    2.08    0.62
 -16   1   4    1.24    0.47
 -15  17  -4    0.23    0.54
 -15  17  -4   -0.22    0.69
 -17   2   4    1.14    0.46
 -15  18  -4    5.02    0.93
 -15  18  -4    3.06    0.77
 -18   3   4    4.90    0.64
 -15  19  -4    1.44    0.64
 -15  19  -4    1.08    0.72
 -19   4   4    0.50    0.45
 -15  20  -4    2.62    0.79
 -15  20  -4    2.67    0.71
 -20   5   4    1.38    0.51
 -15  21  -4    0.99    0.74
 -15  21  -4    0.46    0.61
 -21   6   4   -0.16    0.41
  21 -16  -4   -0.01    0.48
  -5  21  -4    0.93    0.59
  -4  20  -4    7.77    1.10
  16   4   4    8.47    0.82
  -3  19  -4    3.60    0.76
   3 -19   4    3.10    0.61
  16   3   4    3.26    0.53
  -2  18  -4    1.74    0.66
   2 -18   4    1.39    0.50
  16   2   4    1.67    0.44
  -1  17  -4    1.71    0.64
 -16  -1  -4    1.17    0.47
   1 -17   4    2.04    0.51
  16   1   4    0.94    0.42
 -16   0  -4   10.10    0.98
  16   0   4    9.26    0.89
   0 -16   4    9.12    0.99
 -16   1  -4    2.51    0.60
  16  -1   4    5.28    0.60
  -1 -15   4    5.27    0.63
 -16   2  -4    2.11    0.53
  16  -2   4    2.80    0.50
  -2 -14   4    3.43    0.52
  16  -3   4    2.17    0.47
  -3 -13   4    1.60    0.45
  -4 -12   4    1.14    0.43
  16  -4   4    1.28    0.44
  -5 -11   4    0.57    0.41
  16  -5   4   -0.07    0.38
  -6 -10   4    0.92    0.40
  16  -6   4    1.64    0.48
  16  -7   4    1.06    0.46
  -7  -9   4    1.33    0.42
 -16   8  -4   26.45    2.85
  -8  -8   4   27.11    2.18
  16  -8   4   28.35    1.99
 -16   9  -4    6.41    0.95
  -9  -7   4    5.31    0.65
  -7  16   4    4.26    0.56
  16  -9   4    4.45    0.61
 -16  10  -4   -0.06    0.61
  16 -10   4    0.63    0.42
  -6  16   4    1.24    0.39
 -10  -6   4    0.84    0.40
 -16  11  -4    1.41    0.72
  16 -11   4    0.86    0.43
 -11  -5   4    1.41    0.43
  -5  16   4    0.93    0.38
 -16  12  -4    1.09    0.66
  -4  16   4    0.33    0.34
  16 -12   4   -0.19    0.40
 -12  -4   4    0.39    0.39
 -16  13  -4    2.03    0.61
 -16  13  -4    2.02    0.77
 -13  -3   4    2.99    0.50
  -3  16   4    2.37    0.43
  16 -13   4    2.99    0.50
 -16  14  -4    6.11    1.09
 -16  14  -4    5.73    0.88
  -2  16   4    5.35    0.59
  16 -14   4    6.19    0.66
 -14  -2   4    5.61    0.72
 -16  15  -4    2.11    0.61
 -16  15  -4    1.97    0.78
  16 -15   4    1.55    0.46
 -15  -1   4    1.04    0.48
 -16  16  -4    6.44    1.02
 -16  16  -4    6.90    1.16
 -16   0   4    8.93    0.89
 -16  17  -4    1.18    0.62
 -16  17  -4    1.73    0.77
 -17   1   4    1.85    0.48
 -16  18  -4    1.20    0.62
 -16  18  -4    1.26    0.77
 -18   2   4    1.74    0.50
 -16  19  -4    2.71    0.74
 -16  19  -4    2.21    0.83
 -19   3   4    3.82    0.59
 -16  20  -4   11.01    1.47
 -16  20  -4   10.88    1.37
 -20   4   4    9.87    1.04
 -16  21  -4    1.57    0.77
 -16  21  -4    1.07    0.65
 -21   5   4    0.46    0.44
  -3  20  -4    2.37    0.68
  17   3   4    2.00    0.48
  -2  19  -4    2.74    0.72
  17   2   4    3.18    0.50
   2 -19   4    2.87    0.61
 -17  -1  -4    3.10    0.56
  -1  18  -4    1.94    0.70
  17   1   4    3.22    0.51
   1 -18   4    3.01    0.58
 -17   0  -4    0.14    0.44
   0  17  -4    0.09    0.56
   0 -17   4    1.74    0.51
  17   0   4    1.09    0.45
 -17   1  -4    1.59    0.49
  -1 -16   4    2.19    0.51
  17  -1   4    1.97    0.48
 -17   2  -4    5.32    0.68
  -2 -15   4    3.53    0.60
  17  -2   4    3.49    0.55
 -17   3  -4    3.41    0.58
  17  -3   4    3.15    0.52
  -3 -14   4    3.08    0.54
  17  -4   4    1.57    0.45
  -4 -13   4    1.79    0.48
  -5 -12   4    5.24    0.69
  17  -5   4    5.80    0.68
  17  -6   4    2.49    0.53
  -6 -11   4    2.28    0.48
  17  -7   4    1.32    0.48
  -7 -10   4    1.72    0.45
  17  -8   4    5.33    0.66
  -8  -9   4    5.38    0.67
  17  -9   4    0.58    0.45
  -9  -8   4   -0.38    0.40
 -17  10  -4    0.51    0.67
  17 -10   4    1.15    0.46
 -10  -7   4    0.98    0.43
 -17  11  -4    0.63    0.68
 -11  -6   4    0.47    0.41
  17 -11   4    0.66    0.43
  -6  17   4    0.36    0.37
 -17  12  -4    2.09    0.83
 -12  -5   4    2.46    0.51
  17 -12   4    2.81    0.53
  -5  17   4    2.55    0.45
 -17  13  -4    0.56    0.74
 -13  -4   4    0.33    0.43
  17 -13   4    1.06    0.45
  -4  17   4    0.89    0.38
 -17  14  -4    0.92    0.74
  17 -14   4    0.87    0.44
 -14  -3   4    0.79    0.46
  -3  17   4    0.48    0.36
 -17  15  -4    0.29    0.72
  17 -15   4    1.45    0.47
 -15  -2   4    0.68    0.44
 -17  16  -4    1.42    0.77
 -17  16  -4    1.41    0.63
 -16  -1   4    2.40    0.51
 -17  17  -4    4.84    0.83
 -17  17  -4    3.71    0.94
 -17   0   4    2.95    0.58
 -17  18  -4    2.12    0.85
 -17  18  -4    3.25    0.75
 -18   1   4    2.40    0.56
 -17  19  -4    1.46    0.67
 -17  19  -4    1.74    0.81
 -19   2   4    1.77    0.52
 -17  20  -4    2.41    0.73
 -17  20  -4    2.11    0.81
 -20   3   4    3.06    0.56
  -2  20  -4    0.50    0.57
  18   2   4    1.00    0.44
  -1  19  -4    1.71    0.65
  18   1   4    2.52    0.49
 -18   0  -4    0.48    0.48
   0  18  -4    0.38    0.57
   0 -18   4    0.43    0.49
  18   0   4    0.80    0.43
   1  17  -4    2.16    0.69
 -18   1  -4    2.21    0.54
  18  -1   4    2.66    0.50
  -1 -17   4    2.07    0.54
 -18   2  -4    2.12    0.53
  18  -2   4    1.46    0.48
  -2 -16   4    1.47    0.51
 -18   3  -4    1.49    0.56
  18  -3   4    2.22    0.50
  -3 -15   4    2.91    0.55
 -18   4  -4    0.51    0.48
  -4 -14   4   -0.54    0.41
  18  -4   4    0.48    0.42
  -5 -13   4    1.66    0.47
  18  -5   4    1.25    0.48
  -6 -12   4    7.70    0.84
  18  -6   4    7.07    0.78
  18  -7   4    2.32    0.55
  -7 -11   4    2.39    0.52
  -8 -10   4    3.89    0.61
  18  -8   4    3.88    0.61
  18  -9   4    0.67    0.48
  -9  -9   4    0.85    0.45
 -10  -8   4    2.50    0.51
  18 -10   4    2.75    0.56
  18 -11   4    2.35    0.52
 -11  -7   4    1.89    0.53
 -12  -6   4    7.37    0.86
  18 -12   4    7.93    0.80
 -18  13  -4    1.35    0.78
  18 -13   4    1.16    0.47
 -13  -5   4    1.11    0.45
 -18  14  -4    0.73    0.74
 -14  -4   4   -0.42    0.40
  18 -14   4    1.11    0.45
 -18  15  -4    6.27    1.11
  18 -15   4    5.83    0.68
 -15  -3   4    4.61    0.69
 -18  16  -4    1.68    0.79
 -16  -2   4    1.59    0.49
  18 -16   4    1.81    0.49
 -18  17  -4    2.71    0.88
 -17  -1   4    2.59    0.57
 -18  18  -4    4.05    0.94
 -18   0   4    1.76    0.54
 -18  19  -4    0.68    0.75
 -19   1   4    0.45    0.47
 -18  20  -4    0.74    0.73
 -20   2   4    0.24    0.47
 -19   0  -4    2.64    0.59
   0  19  -4    2.33    0.69
  19   0   4    3.14    0.51
 -19   1  -4    3.23    0.57
   1  18  -4    1.92    0.69
  -1 -18   4    3.24    0.58
  19  -1   4    2.41    0.51
 -19   2  -4    3.85    0.65
   2  17  -4    2.93    0.75
  -2 -17   4    3.29    0.59
  19  -2   4    3.34    0.56
 -19   3  -4    3.72    0.62
  -3 -16   4    2.72    0.56
  19  -3   4    2.62    0.54
 -19   4  -4    1.48    0.57
  -4 -15   4    1.74    0.51
  19  -4   4    2.09    0.51
 -19   5  -4    0.44    0.50
  19  -5   4    0.70    0.46
  -5 -14   4    0.63    0.45
 -19   6  -4    0.12    0.50
  -6 -13   4    0.03    0.44
  19  -6   4    0.36    0.45
  19  -7   4    2.24    0.50
  -7 -12   4    1.84    0.52
  19  -8   4    0.21    0.45
  -8 -11   4    0.46    0.45
  -9 -10   4    2.21    0.52
  19  -9   4    1.26    0.48
 -10  -9   4    1.81    0.52
  19 -10   4    2.30    0.55
  19 -11   4    1.44    0.50
 -11  -8   4    0.68    0.47
  19 -12   4    2.06    0.52
 -12  -7   4    1.84    0.53
  19 -13   4    2.27    0.53
 -13  -6   4    2.71    0.54
 -19  14  -4    1.93    0.85
  19 -14   4    0.46    0.47
 -14  -5   4    0.71    0.45
 -19  15  -4    1.78    0.79
 -15  -4   4    1.04    0.48
  19 -15   4    0.85    0.45
 -19  16  -4    2.04    0.87
  19 -16   4    4.19    0.56
 -16  -3   4    3.27    0.60
 -19  17  -4    1.20    0.77
 -17  -2   4    1.58    0.52
 -19  18  -4    0.13    0.70
 -18  -1   4    0.74    0.49
 -19  19  -4    2.37    0.82
 -19   0   4    2.81    0.60
 -20   2  -4    0.88    0.49
  -2 -18   4    1.31    0.52
  20  -2   4    1.34    0.46
 -20   3  -4    4.08    0.64
  -3 -17   4    2.35    0.57
  20  -3   4    3.23    0.57
 -20   4  -4    9.89    1.02
  -4 -16   4    8.53    0.92
  20  -4   4    7.87    0.85
 -20   5  -4    0.41    0.54
  20  -5   4    0.94    0.48
  -5 -15   4    1.05    0.51
 -20   6  -4    3.83    0.69
  20  -6   4    4.81    0.64
  -6 -14   4    4.47    0.66
 -20   7  -4    1.44    0.56
  -7 -13   4    2.19    0.54
  20  -7   4    1.69    0.51
  -8 -12   4    3.27    0.59
  20  -8   4    2.34    0.55
  -9 -11   4   -0.15    0.45
  20  -9   4    0.04    0.48
 -10 -10   4    2.79    0.58
  20 -10   4    3.05    0.59
 -11  -9   4    1.00    0.46
  20 -11   4    0.23    0.48
 -12  -8   4    9.04    1.00
  20 -12   4    9.82    0.97
  20 -13   4    1.83    0.52
 -13  -7   4    1.68    0.54
  20 -14   4    7.18    0.77
 -14  -6   4    5.81    0.79
 -15  -5   4    1.80    0.55
  20 -15   4    1.84    0.50
  20 -16   4   10.91    0.97
 -16  -4   4    8.29    0.98
 -17  -3   4    2.87    0.58
 -20  18  -4    1.23    0.81
 -18  -2   4    0.38    0.48
 -21   5  -4    0.03    0.50
  -5 -16   4    0.22    0.44
  21  -5   4    0.33    0.45
 -21   6  -4    2.80    0.65
  -6 -15   4    1.09    0.50
  21  -6   4    0.24    0.48
 -21   7  -4    3.64    0.67
  21  -7   4    3.02    0.60
  -7 -14   4    3.66    0.63
 -21   8  -4    2.18    0.60
  -8 -13   4    2.49    0.57
  21  -8   4    3.28    0.57
 -21   9  -4    3.26    0.63
  -9 -12   4    1.76    0.54
  21  -9   4    1.93    0.53
  21 -10   4    0.46    0.50
 -10 -11   4    0.89    0.52
 -11 -10   4    0.37    0.47
  21 -11   4   -0.03    0.48
  21 -12   4    0.79    0.50
 -12  -9   4    1.32    0.52
  21 -13   4    3.20    0.58
 -13  -8   4    3.04    0.60
 -14  -7   4    1.14    0.53
  21 -14   4    2.23    0.53
  21 -15   4   -0.64    0.44
 -15  -6   4   -0.17    0.48
 -16  -5   4    0.82    0.51
  21 -16   4    0.92    0.47
 -22  10  -4    1.60    0.57
 -10 -12   4    0.52    0.52
  22 -10   4    0.45    0.48
 -22  11  -4    0.04    0.51
 -11 -11   4    0.33    0.48
  22 -11   4    0.89    0.49
  22 -12   4    0.91    0.51
 -12 -10   4    0.99    0.50
   0   0   5   14.80    1.23
   0   0   5   15.72    1.10
   0   0   5   15.85    1.18
   0   1  -5    5.30    0.45
   0  -1   5    4.02    0.41
   0  -1   5    3.78    0.36
  -1   1   5    3.36    0.39
   0  -1   5    2.72    0.38
  -1   1   5    3.67    0.37
   1   0   5    3.07    0.40
   1   0   5    3.61    0.40
   1   0   5    3.08    0.36
  -1   1  -5    1.84    0.27
  -1   0   5    0.58    0.21
   0   1   5    0.71    0.23
   1  -1   5    0.90    0.25
   1  -1   5    0.57    0.25
   1  -1   5    0.78    0.22
  -1   0   5    0.89    0.23
   0   1   5    0.43    0.22
   0   1   5    0.97    0.23
  -1   2  -5    0.17    0.21
  -1   2  -5    0.24    0.16
   1   1   5    0.28    0.21
   1  -2   5    0.23    0.23
   1   1   5    0.24    0.20
  -2   1   5    0.59    0.21
   1  -2   5    0.32    0.24
  -2   1   5    0.27    0.19
   1  -2   5    0.54    0.20
   2   1   5   32.61    2.31
  -3   2   5   31.41    2.16
   2   1   5   32.21    2.16
   1  -3   5   31.97    2.35
   1  -3   5   32.65    2.15
   1  -3   5   31.56    2.46
   0   2  -5    2.22    0.32
   0   2  -5    2.95    0.38
   2   0   5    3.17    0.36
   2   0   5    2.70    0.33
   0  -2   5    4.00    0.33
  -2   2   5    3.42    0.35
   0  -2   5    3.34    0.38
   0  -2   5    3.47    0.39
   1   1  -5    0.41    0.22
   2  -1   5    0.24    0.20
  -1  -1   5    0.46    0.20
   2  -1   5    0.29    0.23
  -1   2   5    0.13    0.22
  -1  -1   5    0.42    0.21
   2  -1   5    0.57    0.23
  -2   2  -5    0.52    0.17
  -2   0   5    0.60    0.21
   2  -2   5    0.60    0.20
   2  -2   5    0.64    0.25
   2  -2   5    0.65    0.25
  -2   0   5    0.59    0.21
   0   2   5    0.52    0.22
  -3   1   5    7.50    0.69
   2  -3   5    7.86    0.75
   2  -3   5    7.78    0.62
   1   2   5    8.61    0.65
  -3   1   5    7.72    0.63
   2  -3   5    8.14    0.70
   2  -4   5    6.25    0.63
   2  -4   5    6.27    0.64
  -4   2   5    6.48    0.59
   2   2   5    6.94    0.56
  -4   2   5    6.91    0.58
   2  -5   5    3.30    0.42
   3   2   5    3.17    0.37
  -5   3   5    3.53    0.38
   2  -5   5    3.70    0.44
   1  -4   5    8.60    0.75
   1  -4   5    7.67    0.75
   3   1   5    8.89    0.68
   3   1   5    8.09    0.68
  -4   3   5    8.16    0.68
  -3   3   5   38.13    2.47
   3   0   5   35.61    2.46
   3   0   5   36.86    2.64
   0  -3   5   35.83    2.67
   0  -3   5   37.25    2.80
   1   2  -5   31.55    2.58
   1   2  -5   30.33    2.56
   3  -1   5   31.92    2.13
  -1  -2   5   31.81    2.41
   3  -1   5   31.21    2.28
  -2   3   5   32.16    2.13
  -3   2  -5    6.52    0.69
  -2  -1   5    8.06    0.70
  -1   3   5    8.46    0.63
   3  -2   5    8.60    0.64
  -2  -1   5    8.01    0.61
   3  -2   5    7.98    0.69
   3  -3   5   40.18    3.02
   3  -3   5   42.49    2.79
   3  -3   5   42.12    3.20
   0   3   5   42.18    2.80
  -3   0   5   41.61    3.17
  -3   0   5   42.85    2.79
   3  -4   5   17.06    1.37
  -4   1   5   17.86    1.25
  -4   1   5   17.91    1.40
   3  -4   5   17.79    1.45
   3  -4   5   17.69    1.24
   1   3   5   18.79    1.27
  -5   2   5    7.61    0.69
   2   3   5    7.98    0.67
  -5   2   5    7.96    0.65
   3  -5   5    8.10    0.72
   3  -5   5    8.05    0.75
   3  -6   5   17.27    1.26
   3   3   5   15.09    1.15
  -6   3   5   16.10    1.14
   3  -6   5   14.89    1.31
   3  -7   5    2.42    0.40
   4   3   5    1.91    0.31
  -7   4   5    2.60    0.33
   3  -7   5    2.19    0.38
  -6   4   5    7.45    0.65
   4   2   5    7.66    0.64
   2  -6   5    7.49    0.71
   2  -6   5    7.32    0.72
   4   1   5    1.22    0.26
   1  -5   5    1.57    0.34
  -5   4   5    1.53    0.29
   1  -5   5    1.40    0.29
   4   0   5   56.86    3.98
  -4   4   5   58.66    3.73
   0  -4   5   53.00    4.01
   4   0   5   56.97    3.72
   0  -4   5   54.59    4.22
  -1  -3   5    7.73    0.74
   4  -1   5    7.68    0.67
   4  -1   5    8.34    0.64
  -3   4   5    8.17    0.65
   2   2  -5    7.06    0.67
   2   2  -5    7.48    0.64
   4  -2   5    6.72    0.59
  -2   4   5    6.89    0.61
  -2  -2   5    6.43    0.63
   4  -2   5    6.57    0.61
   4  -3   5   16.49    1.34
  -1   4   5   17.99    1.26
   4  -3   5   18.51    1.24
  -3  -1   5   17.83    1.40
  -4   0   5   60.36    4.59
   4  -4   5   62.04    4.04
   0   4   5   61.44    4.06
   4  -4   5   59.23    4.37
   4  -4   5   60.86    4.62
  -4   0   5   63.08    4.04
  -5   1   5    4.76    0.42
   1   4   5    3.75    0.42
   4  -5   5    3.77    0.46
   4  -5   5    4.23    0.42
  -5   1   5    4.16    0.46
   4  -5   5    3.93    0.49
   4  -6   5   13.57    1.16
  -6   2   5   14.09    0.98
   4  -6   5   12.88    1.08
   2   4   5   13.26    0.99
  -6   2   5   13.04    1.08
   4  -7   5    2.95    0.44
   4  -7   5    3.48    0.45
  -7   3   5    3.57    0.39
   3   4   5    3.17    0.37
   4  -8   5    1.23    0.32
   4   4   5    1.16    0.30
   4  -8   5    1.29    0.34
   4  -9   5    3.23    0.48
   4  -9   5    3.36    0.48
   5   4   5    3.59    0.40
   3  -8   5   14.91    1.25
   3  -8   5   14.64    1.29
   5   3   5   16.14    1.14
  -8   5   5   16.13    1.15
   2  -7   5    0.32    0.27
   2  -7   5    0.73    0.31
   5   2   5    0.53    0.25
  -7   5   5    0.60    0.27
   1  -6   5    3.84    0.44
   1  -6   5    3.96    0.47
   5   1   5    3.68    0.40
  -6   5   5    2.90    0.40
   0  -5   5    2.10    0.36
   5   0   5    1.81    0.29
   5   0   5    2.04    0.31
  -5   5   5    2.14    0.32
   0  -5   5    1.95    0.33
  -5   1  -5    1.77    0.42
   5  -1   5    0.84    0.26
  -4   5   5    1.42    0.27
  -1  -4   5    1.46    0.29
   5  -1   5    1.26    0.27
  -3   5   5    3.30    0.39
   5  -2   5    3.40    0.40
  -2  -3   5    3.88    0.42
   5  -2   5    4.13    0.38
  -2   5   5    8.26    0.65
  -3  -2   5    7.62    0.71
   5  -3   5    7.86    0.63
   5  -3   5    7.09    0.67
   5  -4   5    4.02    0.48
  -4  -1   5    4.57    0.51
   5  -4   5    4.98    0.46
  -1   5   5    4.87    0.47
  -5   0   5    4.45    0.45
   5  -5   5    4.47    0.43
   0   5   5    3.68    0.43
   5  -5   5    4.32    0.48
   1   5   5    0.85    0.25
  -6   1   5    0.44    0.23
   5  -6   5    0.36    0.27
  -6   1   5    0.64    0.23
   5  -6   5    0.45    0.27
   5  -6   5    0.73    0.21
   5  -7   5    1.87    0.36
  -7   2   5    2.14    0.30
   5  -7   5    1.42    0.35
   2   5   5    1.91    0.32
  -8   3   5    8.77    0.77
   5  -8   5    8.24    0.85
   5  -8   5    8.93    0.79
   3   5   5    8.48    0.72
   5  -9   5   17.40    1.41
   4   5   5   17.88    1.28
   5  -9   5   18.23    1.51
   5   5   5    0.84    0.29
   5 -10   5    0.52    0.35
   5 -10   5    0.48    0.34
   5 -11   5    5.99    0.70
   6   5   5    6.55    0.62
   5 -11   5    7.16    0.78
   6   4   5    0.43    0.28
   4 -10   5    0.97    0.37
   4 -10   5    0.79    0.33
   6   3   5    7.79    0.69
   3  -9   5    7.22    0.79
   3  -9   5    8.25    0.77
   2  -8   5   13.00    1.11
   2  -8   5   13.34    1.14
   6   2   5   12.54    1.02
  -8   6   5   14.23    1.03
   6   1   5    8.88    0.73
   1  -7   5    9.24    0.81
  -7   6   5    9.00    0.73
   1  -7   5    8.36    0.81
  -6   6   5   41.06    2.68
   6   0   5   41.03    2.67
   0  -6   5   37.20    2.89
   0  -6   5   39.21    3.03
  -6   1  -5    5.76    0.69
  -1  -5   5    3.64    0.43
  -5   6   5    3.39    0.40
   6  -1   5    3.00    0.37
   6  -1   5    3.34    0.40
   6  -2   5    6.92    0.64
  -4   6   5    7.06    0.61
  -2  -4   5    7.05    0.67
   6  -2   5    7.07    0.62
  -6   3  -5   17.12    1.68
  -3  -3   5   15.08    1.27
   6  -3   5   15.76    1.13
   6  -3   5   15.73    1.23
  -3   6   5   15.95    1.15
  -6   4  -5   12.76    1.31
  -6   4  -5   11.66    1.42
   6  -4   5   13.96    1.05
  -4  -2   5   13.80    1.07
   6  -4   5   12.30    0.96
  -2   6   5   13.23    0.97
  -6   5  -5    0.36    0.32
  -1   6   5    0.60    0.25
   6  -5   5    0.58    0.22
   6  -5   5    0.58    0.27
  -5  -1   5    0.49    0.24
  -6   6  -5   16.41    1.85
   6  -6   5   18.29    1.46
  -6   0   5   20.05    1.51
   0   6   5   19.01    1.35
   6  -6   5   20.90    1.33
  -6   7  -5   16.52    1.71
  -7   1   5   17.47    1.36
   6  -7   5   16.07    1.33
   1   6   5   17.80    1.23
  -6   8  -5    5.22    0.73
  -8   2   5    4.85    0.51
   2   6   5    4.90    0.50
   6  -8   5    4.96    0.54
  -6   9  -5    9.11    1.06
  -9   3   5    9.40    0.80
   6  -9   5    8.42    0.87
   3   6   5    8.12    0.76
   6  -9   5    8.65    0.82
  -6  10  -5    0.30    0.43
   6 -10   5    0.29    0.33
   4   6   5    0.05    0.27
   6 -10   5    0.03    0.31
  -6  11  -5    8.01    1.12
   6 -11   5    9.42    0.92
   6 -11   5    9.85    0.87
   5   6   5    9.01    0.77
  -6  12  -5    4.38    0.73
   6   6   5    3.40    0.43
   6 -12   5    2.85    0.53
  -6  13  -5    0.68    0.54
   7   6   5    2.36    0.39
   6 -13   5    2.85    0.50
  -5  12  -5    2.34    0.61
   5 -12   5    1.99    0.49
   7   5   5    2.53    0.41
   4 -11   5    7.88    0.83
   7   4   5    7.85    0.71
   4 -11   5    7.37    0.78
   7   3   5    9.73    0.81
   3 -10   5    9.76    0.94
   3 -10   5    9.59    0.90
   2  -9   5    1.85    0.41
   7   2   5    2.13    0.35
   2  -9   5    2.41    0.42
  -8   7   5    3.10    0.43
   1  -8   5    3.15    0.44
   7   1   5    3.44    0.41
   1  -8   5    3.43    0.45
  -7   7   5   20.88    1.47
   0  -7   5   20.04    1.58
   0  -7   5   20.60    1.64
   7   0   5   20.36    1.44
   7  -1   5    8.74    0.73
   7  -1   5    8.36    0.72
  -6   7   5    8.97    0.73
  -1  -6   5    8.81    0.81
  -7   2  -5    0.82    0.41
  -5   7   5    0.16    0.25
   7  -2   5    0.39    0.25
   7  -2   5    0.10    0.24
  -2  -5   5    0.33    0.25
  -7   3  -5    1.65    0.50
   7  -3   5    2.10    0.33
  -4   7   5    2.38    0.33
   7  -3   5    2.37    0.31
  -3  -4   5    2.06    0.33
  -7   4  -5    1.35    0.52
  -3   7   5    2.90    0.36
   7  -4   5    3.46    0.36
   7  -4   5    2.67    0.38
  -4  -3   5    3.26    0.38
  -7   5  -5    2.43    0.43
  -7   5  -5    1.50    0.51
   7  -5   5    1.41    0.32
  -5  -2   5    1.34    0.29
  -2   7   5    1.83    0.31
   7  -5   5    1.45    0.28
  -7   6  -5   15.06    1.80
  -7   6  -5   16.06    1.68
  -6  -1   5   17.99    1.37
   7  -6   5   17.67    1.21
  -1   7   5   16.96    1.22
   7  -6   5   17.58    1.33
  -7   0   5    3.97    0.46
   7  -7   5    4.71    0.41
   0   7   5    3.58    0.43
   7  -7   5    3.86    0.49
  -7   8  -5    4.02    0.64
  -8   1   5    4.08    0.46
   1   7   5    4.07    0.45
   7  -8   5    3.28    0.48
  -7   9  -5    6.05    0.72
   7  -9   5    3.47    0.49
  -9   2   5    3.98    0.47
   2   7   5    3.25    0.44
  -7  10  -5    0.72    0.45
   3   7   5    0.99    0.32
   7 -10   5    0.79    0.34
 -10   3   5    0.91    0.29
  -7  11  -5    1.52    0.54
   4   7   5    1.45    0.36
   7 -11   5    1.77    0.42
 -11   4   5    2.43    0.37
  -7  12  -5   15.71    1.62
   5   7   5   14.25    1.12
  -7  13  -5    5.44    0.84
   6   7   5    4.36    0.54
  -7  14  -5    0.68    0.55
   7   7   5   -0.02    0.32
  -7  15  -5    1.33    0.60
   8   7   5    1.27    0.39
  -6  14  -5    0.04    0.52
   6 -14   5    0.04    0.41
   8   6   5    0.11    0.33
  -5  13  -5    1.21    0.55
   5 -13   5    0.08    0.42
   8   5   5    0.22    0.32
   4 -12   5   46.03    3.60
   8   4   5   46.95    3.16
   3 -11   5    0.40    0.35
   3 -11   5    0.44    0.35
   8   3   5    0.11    0.32
   2 -10   5    1.95    0.41
   8   2   5    1.97    0.36
   2 -10   5    2.11    0.40
  -9   8   5    8.73    0.77
   8   1   5    8.45    0.75
   1  -9   5    8.30    0.80
   1  -9   5    8.04    0.85
  -8   8   5   36.27    2.47
   8   0   5   35.11    2.44
   0  -8   5   36.54    2.78
  -1  -7   5    3.46    0.44
   8  -1   5    2.66    0.38
  -7   8   5    3.10    0.42
  -8   2  -5   15.01    1.49
  -6   8   5   12.99    1.02
  -2  -6   5   13.41    1.14
   8  -2   5   12.64    1.07
   8  -2   5   13.74    1.02
  -8   3  -5   12.71    1.57
   8  -3   5   14.47    1.07
  -3  -5   5   14.53    1.20
   8  -3   5   15.90    1.15
  -5   8   5   14.43    1.08
  -8   4  -5    1.68    0.50
   8  -4   5    1.24    0.29
  -4  -4   5    1.05    0.29
   8  -4   5    1.22    0.31
  -4   8   5    1.29    0.31
  -8   5  -5    7.73    1.14
  -5  -3   5    9.46    0.82
  -3   8   5    8.29    0.75
   8  -5   5    9.13    0.73
   8  -5   5    8.47    0.76
  -8   6  -5    5.15    0.77
  -8   6  -5    5.15    0.67
  -2   8   5    4.96    0.49
  -6  -2   5    4.71    0.52
   8  -6   5    4.97    0.47
   8  -6   5    4.26    0.52
  -8   7  -5    4.34    0.63
  -8   7  -5    5.03    0.76
  -1   8   5    4.05    0.46
  -7  -1   5    3.99    0.46
   8  -7   5    3.31    0.48
   8  -7   5    4.12    0.42
  -8   8  -5   69.21    5.67
  -8   8  -5   69.83    5.96
   8  -8   5   54.45    4.43
   0   8   5   57.49    4.11
  -8   0   5   60.51    4.66
   8  -8   5   60.48    4.09
  -8   9  -5    2.26    0.69
  -8   9  -5    2.35    0.57
  -9   1   5    4.68    0.47
   8  -9   5    4.07    0.49
   1   8   5    3.69    0.43
  -8  10  -5    5.22    0.77
  -8  10  -5    5.08    0.88
   2   8   5    5.13    0.53
   8 -10   5    5.65    0.60
 -10   2   5    5.19    0.56
  -8  11  -5    2.26    0.54
   3   8   5    1.53    0.34
   8 -11   5    0.90    0.37
 -11   3   5    1.30    0.33
  -8  12  -5   34.02    3.38
 -12   4   5   37.74    2.74
   4   8   5   34.42    2.44
  -8  13  -5    1.03    0.53
   5   8   5    0.61    0.35
  -8  14  -5    1.29    0.57
   6   8   5    0.12    0.34
  -8  15  -5    1.92    0.64
  -8  15  -5    1.89    0.78
   7   8   5    0.74    0.38
  -8  16  -5    0.64    0.73
  -8  16  -5    0.20    0.58
   8   8   5    0.17    0.36
  -8  17  -5    3.56    0.77
  -8  17  -5    2.90    0.82
   9   8   5    2.15    0.46
  -7  16  -5    4.70    0.89
   9   7   5    5.85    0.60
  -6  15  -5    4.10    0.83
   6 -15   5    4.16    0.66
   9   6   5    4.18    0.54
  -5  14  -5    4.18    0.82
   9   5   5    5.58    0.58
   5 -14   5    4.75    0.69
   4 -13   5    2.87    0.54
   9   4   5    2.74    0.44
   9   3   5    4.22    0.54
   3 -12   5    5.10    0.63
   2 -11   5   10.33    0.97
   2 -11   5   10.49    1.01
   9   2   5   11.02    0.88
   9   1   5    2.72    0.40
   1 -10   5    2.32    0.43
   0  -9   5    5.62    0.62
   9   0   5    5.47    0.54
  -9   9   5    5.19    0.57
  -1  -8   5    8.04    0.79
   9  -1   5    8.07    0.70
  -8   9   5    7.40    0.72
  -2  -7   5    1.96    0.39
   9  -2   5    1.66    0.34
   9  -2   5    1.97    0.36
  -7   9   5    2.13    0.38
  -3  -6   5    8.12    0.73
   9  -3   5    7.06    0.70
  -6   9   5    6.96    0.67
   9  -3   5    7.06    0.69
  -9   4  -5    2.35    0.63
  -5   9   5    4.05    0.44
   9  -4   5    3.84    0.46
  -4  -5   5    3.57    0.45
   9  -4   5    4.04    0.44
  -9   5  -5   19.99    1.96
  -5  -4   5   16.96    1.48
  -4   9   5   18.18    1.33
   9  -5   5   19.19    1.32
   9  -5   5   17.21    1.40
  -9   6  -5    8.82    0.99
  -9   6  -5    8.65    1.15
  -3   9   5    8.36    0.77
   9  -6   5    8.89    0.75
  -6  -3   5    9.07    0.84
   9  -6   5    9.05    0.79
   9  -7   5    3.70    0.39
  -7  -2   5    2.93    0.43
   9  -7   5    2.79    0.43
  -2   9   5    2.86    0.40
  -9   8  -5    2.71    0.57
  -9   8  -5    2.11    0.67
  -8  -1   5    4.41    0.47
  -1   9   5    4.09    0.46
   9  -8   5    4.49    0.42
   9  -8   5    3.76    0.48
  -9   9  -5   15.19    1.71
  -9   9  -5   17.95    1.91
   9  -9   5   18.01    1.23
   9  -9   5   15.92    1.35
   0   9   5   16.41    1.26
  -9   0   5   18.06    1.39
  -9  10  -5    0.62    0.55
  -9  10  -5    0.76    0.45
   9 -10   5    1.80    0.40
   1   9   5    1.32    0.33
 -10   1   5    1.87    0.36
  -9  11  -5    1.45    0.52
  -9  11  -5    1.65    0.68
   9 -11   5    2.17    0.44
   2   9   5    2.41    0.39
 -11   2   5    2.55    0.39
  -9  12  -5   12.91    1.69
  -9  12  -5   12.23    1.54
   3   9   5   15.66    1.11
 -12   3   5   15.73    1.23
  -9  13  -5    3.08    0.78
  -9  13  -5    2.86    0.67
 -13   4   5    3.19    0.48
   4   9   5    2.66    0.44
  -9  14  -5    2.88    0.69
  -9  14  -5    3.44    0.82
   5   9   5    3.70    0.48
  -9  15  -5    3.66    0.75
  -9  15  -5    3.74    0.88
   6   9   5    3.50    0.49
  -9  16  -5    2.96    0.76
  -9  16  -5    3.09    0.87
   7   9   5    4.38    0.53
  -9  17  -5   -0.13    0.58
  -9  17  -5    0.59    0.72
   8   9   5    0.04    0.36
  -9  18  -5    3.57    0.80
  -9  18  -5    3.69    0.90
   9   9   5    2.63    0.50
  -9  19  -5    0.15    0.62
  -9  19  -5    0.60    0.68
  19 -10  -5    1.48    0.48
  10   9   5    1.16    0.41
  -8  18  -5    1.14    0.76
  -8  18  -5    1.24    0.67
  10   8   5    1.53    0.43
  -7  17  -5    0.33    0.62
  10   7   5    0.42    0.37
  -6  16  -5    4.59    0.86
  10   6   5    4.11    0.55
   6 -16   5    4.38    0.67
  -5  15  -5   -0.23    0.53
  10   5   5    0.23    0.36
   5 -15   5    0.58    0.46
  -4  14  -5    2.96    0.71
   4 -14   5    2.42    0.54
  10   4   5    2.72    0.47
   3 -13   5    0.37    0.40
  10   3   5    0.13    0.35
  10   2   5    6.12    0.64
   2 -12   5    6.68    0.75
  10   1   5    0.60    0.32
   1 -11   5    0.40    0.36
  10   0   5   14.45    1.10
   0 -10   5   13.83    1.24
  -9  10   5    2.31    0.43
  10  -1   5    2.67    0.41
  -1  -9   5    2.78    0.46
  -8  10   5    1.46    0.37
  10  -2   5    2.03    0.36
  -2  -8   5    1.74    0.38
 -10   3  -5   10.25    1.21
  -7  10   5    9.62    0.87
  10  -3   5    9.75    0.88
  10  -3   5   10.51    0.84
  -3  -7   5    9.64    0.91
 -10   4  -5    0.71    0.49
  10  -4   5    1.22    0.33
  -6  10   5    0.78    0.32
  10  -4   5    1.27    0.32
  -4  -6   5    0.86    0.31
 -10   5  -5    1.00    0.52
  10  -5   5    1.01    0.34
  -5  -5   5    0.54    0.30
  10  -5   5    0.80    0.31
  -5  10   5    0.25    0.30
 -10   6  -5    1.06    0.52
  10  -6   5   -0.09    0.28
  10  -6   5   -0.02    0.26
  -6  -4   5    0.06    0.27
  -4  10   5    0.63    0.31
 -10   7  -5    0.83    0.40
 -10   7  -5    0.67    0.57
  10  -7   5    0.82    0.31
  -7  -3   5    1.05    0.33
  10  -7   5    0.72    0.30
  -3  10   5    0.35    0.31
 -10   8  -5    4.14    0.82
 -10   8  -5    4.16    0.67
  10  -8   5    4.92    0.49
  -2  10   5    4.60    0.50
  10  -8   5    5.17    0.57
  -8  -2   5    5.20    0.55
 -10   9  -5    0.67    0.60
 -10   9  -5    0.66    0.43
  10  -9   5    1.72    0.39
  -9  -1   5    1.75    0.36
  -1  10   5    1.54    0.33
  10  -9   5    1.72    0.34
 -10  10  -5    3.33    0.76
 -10  10  -5    4.34    0.63
 -10   0   5    2.64    0.43
  10 -10   5    2.71    0.44
   0  10   5    2.47    0.41
 -10  11  -5    0.34    0.45
 -10  11  -5    0.01    0.62
   1  10   5    0.24    0.32
 -11   1   5    0.46    0.29
 -10  12  -5    5.49    0.81
 -10  12  -5    4.68    0.92
   2  10   5    4.52    0.55
 -12   2   5    5.32    0.58
 -10  13  -5    0.52    0.49
 -10  13  -5   -0.35    0.64
 -13   3   5   -0.52    0.32
   3  10   5    0.19    0.33
 -10  14  -5    0.31    0.66
 -10  14  -5   -0.11    0.50
 -14   4   5    0.32    0.38
   4  10   5    0.26    0.33
 -10  15  -5    4.63    0.95
 -10  15  -5    4.12    0.78
   5  10   5    3.43    0.50
 -15   5   5    3.47    0.56
 -10  16  -5    0.93    0.61
 -10  16  -5    0.54    0.68
   6  10   5    0.51    0.37
 -10  17  -5    0.57    0.73
 -10  17  -5    0.66    0.60
   7  10   5    0.18    0.39
 -10  18  -5    0.60    0.61
  18  -8  -5    0.54    0.42
 -10  18  -5    0.27    0.72
   8  10   5    0.87    0.40
 -10  19  -5    1.07    0.79
 -10  19  -5    1.89    0.69
  19  -9  -5    1.30    0.50
   9  10   5    2.19    0.45
 -10  20  -5   -0.10    0.63
  20 -10  -5    0.44    0.47
 -10  20  -5   -0.06    0.71
  20 -11  -5    3.71    0.60
  -9  20  -5    2.51    0.84
  -9  20  -5    2.14    0.73
  -8  19  -5    2.59    0.84
  -8  19  -5    2.51    0.76
  11   8   5    3.33    0.50
  -7  18  -5    0.46    0.68
  -7  18  -5    0.62    0.61
  11   7   5    0.58    0.39
  -6  17  -5    1.82    0.73
  11   6   5    4.49    0.53
  -5  16  -5    1.19    0.66
   5 -16   5    1.80    0.55
  11   5   5    1.09    0.41
  -4  15  -5    9.27    1.19
  11   4   5    7.30    0.76
   4 -15   5    7.72    0.90
  11   3   5    1.60    0.44
   3 -14   5    2.14    0.53
   2 -13   5    0.54    0.44
  11   2   5    0.14    0.36
  11   1   5    0.49    0.36
   1 -12   5    0.93    0.41
   0 -11   5    5.87    0.69
  11   0   5    5.92    0.63
  -1 -10   5   -0.18    0.35
  11  -1   5    0.40    0.32
  11  -2   5   11.12    0.90
  -2  -9   5   11.83    1.00
  -9  11   5    9.12    0.91
 -11   3  -5    0.66    0.46
  -8  11   5    0.16    0.36
  -3  -8   5    0.20    0.32
  11  -3   5    0.61    0.33
  11  -3   5    0.49    0.35
 -11   4  -5    8.74    1.08
  -4  -7   5    7.52    0.78
  -7  11   5    6.38    0.69
  11  -4   5    8.25    0.74
  11  -4   5    7.48    0.72
  11  -5   5    6.97    0.70
  -6  11   5    7.67    0.71
  -5  -6   5    7.22    0.75
  11  -5   5    7.40    0.72
 -11   6  -5    8.47    1.17
  -6  -5   5    8.25    0.84
  11  -6   5    9.59    0.81
  -5  11   5    8.79    0.78
  11  -6   5    9.20    0.82
 -11   7  -5    2.31    0.64
  -4  11   5    1.64    0.38
  11  -7   5    1.93    0.37
  -7  -4   5    1.66    0.39
  11  -7   5    1.51    0.37
 -11   8  -5    2.54    0.67
 -11   8  -5    2.84    0.52
  -3  11   5    2.06    0.38
  -8  -3   5    1.33    0.36
  11  -8   5    1.26    0.37
  11  -8   5    1.41    0.36
 -11   9  -5    1.50    0.50
 -11   9  -5    0.99    0.67
  11  -9   5    2.68    0.44
  -2  11   5    2.93    0.40
  11  -9   5    2.72    0.41
  -9  -2   5    3.01    0.43
 -11  10  -5    0.31    0.42
 -11  10  -5    0.14    0.60
  11 -10   5    0.98    0.33
 -10  -1   5    0.53    0.33
  -1  11   5    0.55    0.33
 -11  11  -5    2.58    0.56
 -11  11  -5    2.04    0.75
   0  11   5    1.77    0.38
 -11   0   5    1.41    0.39
 -11  12  -5    3.25    0.84
 -11  12  -5    3.99    0.67
   1  11   5    2.37    0.42
 -12   1   5    2.35    0.45
 -11  13  -5    1.81    0.79
 -11  13  -5    1.38    0.55
   2  11   5    1.64    0.39
 -13   2   5    1.12    0.40
 -11  14  -5    0.69    0.53
 -11  14  -5    0.64    0.72
 -14   3   5    0.59    0.38
   3  11   5    0.84    0.36
 -11  15  -5    2.48    0.68
 -11  15  -5    2.64    0.82
   4  11   5    2.93    0.46
 -15   4   5    3.07    0.52
 -11  16  -5    2.64    0.84
 -11  16  -5    2.33    0.68
   5  11   5    2.71    0.46
 -16   5   5    2.33    0.51
 -11  17  -5    5.40    1.07
 -11  17  -5    5.31    0.92
   6  11   5    5.44    0.62
 -11  18  -5    2.15    0.84
 -11  18  -5    2.12    0.70
   7  11   5    1.88    0.43
 -11  19  -5    1.57    0.71
 -11  19  -5    2.01    0.84
   8  11   5    2.18    0.44
 -11  20  -5    2.21    0.75
 -11  20  -5    2.13    0.82
  20 -12  -5    1.13    0.53
  -8  20  -5    1.24    0.67
  -8  20  -5    1.92    0.81
  12   8   5    1.78    0.44
  -7  19  -5    0.79    0.65
  -7  19  -5    0.98    0.77
  12   7   5    0.46    0.41
  -6  18  -5    2.94    0.77
  12   6   5    1.48    0.44
  -5  17  -5    1.95    0.69
   5 -17   5    1.76    0.57
  12   5   5    1.73    0.43
  -4  16  -5    5.61    1.01
   4 -16   5    6.84    0.85
  12   4   5    7.30    0.71
  -3  15  -5    2.37    0.68
   3 -15   5    1.35    0.51
  12   3   5    0.69    0.42
  12   2   5    4.21    0.57
   2 -14   5    4.70    0.68
  12   1   5    6.05    0.67
   1 -13   5    8.08    0.84
   0 -12   5    8.02    0.96
  12   0   5    9.95    0.88
  -1 -11   5    0.46    0.41
  12  -1   5    1.04    0.39
  12  -2   5    5.95    0.65
  -2 -10   5    6.65    0.72
 -12   3  -5    5.74    0.81
  -3  -9   5    4.86    0.61
  -9  12   5    4.48    0.56
  12  -3   5    4.92    0.56
 -12   4  -5   45.53    4.50
  12  -4   5   45.77    3.38
  -8  12   5   45.90    3.17
  12  -4   5   48.12    3.15
  -4  -8   5   46.43    3.56
 -12   5  -5    2.66    0.65
  -7  12   5    2.65    0.43
  12  -5   5    2.72    0.45
  -5  -7   5    2.32    0.46
  12  -5   5    2.99    0.46
 -12   6  -5    5.09    0.78
  12  -6   5    2.88    0.48
  12  -6   5    3.34    0.47
  -6  -6   5    3.13    0.50
  -6  12   5    3.18    0.48
 -12   7  -5   16.60    1.67
  12  -7   5   13.14    1.18
  12  -7   5   13.87    1.13
  -7  -5   5   13.93    1.22
  -5  12   5   13.57    1.12
 -12   8  -5   40.47    3.60
 -12   8  -5   36.74    3.82
  12  -8   5   38.16    2.85
  -4  12   5   36.98    2.63
  -8  -4   5   38.93    2.99
  12  -8   5   39.52    2.64
 -12   9  -5   13.08    1.52
 -12   9  -5   13.40    1.70
  -3  12   5   14.82    1.16
  12  -9   5   15.49    1.15
  -9  -3   5   17.00    1.30
 -12  10  -5    5.37    0.77
 -12  10  -5    5.83    0.95
  12 -10   5    5.30    0.56
  -2  12   5    4.60    0.57
 -10  -2   5    4.89    0.62
 -12  11  -5    4.32    0.82
 -12  11  -5    4.20    0.66
  12 -11   5    2.76    0.42
 -11  -1   5    2.29    0.45
  -1  12   5    2.13    0.43
 -12  12  -5    5.99    0.96
 -12  12  -5    5.97    0.79
 -12   0   5    3.40    0.55
   0  12   5    3.22    0.49
 -12  13  -5    3.87    0.96
 -12  13  -5    5.14    0.82
   1  12   5    4.66    0.55
 -13   1   5    5.09    0.62
 -12  14  -5    3.52    0.73
 -12  14  -5    3.77    0.91
   2  12   5    3.86    0.50
 -14   2   5    3.58    0.55
 -12  15  -5   -0.32    0.52
 -12  15  -5    0.38    0.71
 -15   3   5    0.70    0.41
   3  12   5    0.27    0.36
 -12  16  -5   14.13    1.53
 -12  16  -5   13.69    1.66
 -16   4   5   11.47    1.16
   4  12   5   12.18    1.06
 -12  17  -5    2.90    0.77
 -12  17  -5    3.44    0.93
   5  12   5    3.76    0.50
 -17   5   5    3.03    0.55
 -12  18  -5    1.07    0.67
 -12  18  -5    1.13    0.80
   6  12   5    2.65    0.46
 -12  19  -5    0.76    0.75
 -12  19  -5    0.53    0.65
 -12  20  -5    5.72    0.97
 -12  20  -5    4.64    1.00
  20 -13  -5    1.21    0.51
  -7  20  -5    0.87    0.65
  -7  20  -5    0.17    0.70
  13   7   5    0.82    0.41
  -6  19  -5    2.34    0.71
  -6  19  -5    2.03    0.81
  13   6   5    2.24    0.46
  -5  18  -5    1.58    0.70
   5 -18   5    2.01    0.58
  13   5   5    2.01    0.45
  -4  17  -5    0.48    0.63
   4 -17   5    0.39    0.52
  13   4   5    0.11    0.40
  -3  16  -5    7.07    1.04
  13   3   5    6.38    0.69
   3 -16   5    5.34    0.79
  13   2   5    5.14    0.63
   2 -15   5    5.09    0.72
  13   1   5    0.19    0.39
   1 -14   5   -0.22    0.45
  13   0   5    3.61    0.54
   0 -13   5    3.55    0.58
  13  -1   5    7.07    0.72
  -1 -12   5    6.36    0.75
  13  -2   5    0.15    0.36
  -2 -11   5    0.15    0.38
  13  -3   5    0.07    0.36
  -3 -10   5   -0.20    0.38
 -13   4  -5    4.89    0.75
  -4  -9   5    3.27    0.53
  13  -4   5    2.50    0.48
  -9  13   5    2.81    0.49
 -13   5  -5    0.71    0.55
  -8  13   5    0.81    0.40
  13  -5   5    0.31    0.38
  -5  -8   5    0.04    0.35
 -13   6  -5    0.94    0.61
  -6  -7   5    2.59    0.45
  13  -6   5    2.60    0.46
  -7  13   5    2.41    0.43
 -13   7  -5    6.71    0.93
  -7  -6   5    4.94    0.61
  -6  13   5    3.31    0.52
  13  -7   5    4.89    0.58
 -13   8  -5    1.25    0.63
  -5  13   5    0.64    0.35
  -8  -5   5    0.60    0.36
  13  -8   5    0.95    0.36
 -13   9  -5    3.13    0.75
 -13   9  -5    3.26    0.56
  13  -9   5    2.54    0.46
  -4  13   5    2.15    0.45
  -9  -4   5    2.56    0.47
 -13  10  -5    0.63    0.68
 -13  10  -5    0.09    0.42
 -10  -3   5    0.07    0.38
  13 -10   5   -0.27    0.34
  -3  13   5   -0.21    0.34
 -13  11  -5    2.10    0.73
 -13  11  -5    1.34    0.51
 -11  -2   5    2.31    0.44
  13 -11   5    1.77    0.42
  -2  13   5    1.54    0.41
 -13  12  -5    4.39    0.94
 -13  12  -5    4.58    0.77
  -1  13   5    4.86    0.57
 -12  -1   5    5.27    0.62
 -13  13  -5   11.27    1.33
 -13  13  -5   11.53    1.60
   0  13   5   10.92    0.96
 -13   0   5   12.06    1.08
 -13  14  -5    0.30    0.52
 -13  14  -5   -0.11    0.67
   1  13   5    0.30    0.36
 -14   1   5    0.38    0.40
 -13  15  -5    2.81    0.87
 -13  15  -5    3.06    0.74
 -15   2   5    4.37    0.59
   2  13   5    4.13    0.52
 -13  16  -5    0.60    0.76
 -13  16  -5    0.71    0.59
   3  13   5    0.11    0.37
 -16   3   5    0.84    0.43
 -13  17  -5    4.24    0.95
 -13  17  -5    2.89    0.75
   4  13   5    2.63    0.49
 -17   4   5    3.61    0.56
 -13  18  -5    2.44    0.69
 -13  18  -5    1.33    0.82
   5  13   5    1.44    0.42
 -18   5   5    1.55    0.47
 -13  19  -5    1.11    0.64
 -13  19  -5    1.15    0.73
 -13  20  -5    0.31    0.71
 -13  20  -5    0.24    0.61
  -6  20  -5    2.57    0.79
  -6  20  -5    2.39    0.74
  14   6   5    1.64    0.45
  -5  19  -5   -0.12    0.59
  14   5   5   -0.64    0.36
  -4  18  -5    7.51    1.09
  14   4   5    6.34    0.71
   4 -18   5    7.30    0.88
  -3  17  -5    1.16    0.68
  14   3   5    2.25    0.49
   3 -17   5    2.05    0.57
  -2  16  -5    0.00    0.59
  14   2   5    0.12    0.41
   2 -16   5    0.37    0.50
   1 -15   5    0.71    0.47
  14   1   5    0.81    0.43
 -14   0  -5    4.94    0.68
  14   0   5    6.23    0.68
   0 -14   5    6.24    0.76
  -1 -13   5    0.22    0.40
  14  -1   5   -0.13    0.41
  -2 -12   5    3.69    0.61
  14  -2   5    4.13    0.57
  14  -3   5    2.22    0.49
  -3 -11   5    1.97    0.47
  14  -4   5    2.96    0.48
  -4 -10   5    2.45    0.50
 -14   5  -5    4.45    0.84
  14  -5   5    5.21    0.60
  -5  -9   5    4.44    0.61
 -14   6  -5   -0.45    0.56
  -8  14   5    0.39    0.37
  -6  -8   5   -0.07    0.35
  14  -6   5    0.08    0.37
 -14   7  -5    0.23    0.58
  -7  -7   5    0.43    0.39
  -7  14   5    0.33    0.39
  14  -7   5    0.09    0.40
 -14   8  -5    1.64    0.65
  14  -8   5    0.50    0.40
  -8  -6   5    0.59    0.37
  -6  14   5   -0.23    0.36
 -14   9  -5    3.27    0.79
  -5  14   5    3.53    0.49
  14  -9   5    3.02    0.49
  -9  -5   5    3.48    0.55
 -14  10  -5    0.50    0.62
 -14  10  -5   -0.07    0.40
  -4  14   5    0.66    0.38
 -10  -4   5    0.54    0.38
  14 -10   5    0.10    0.38
 -14  11  -5    1.00    0.45
 -14  11  -5    0.41    0.64
  -3  14   5    0.33    0.37
  14 -11   5    0.60    0.39
 -11  -3   5    0.59    0.41
 -14  12  -5    3.94    0.71
 -14  12  -5    2.72    0.90
  -2  14   5    4.37    0.54
  14 -12   5    4.12    0.53
 -12  -2   5    3.96    0.59
 -14  13  -5    0.51    0.75
 -14  13  -5    0.25    0.50
  -1  14   5    0.10    0.35
 -13  -1   5    0.19    0.39
 -14  14  -5    1.73    0.79
 -14  14  -5    1.72    0.59
   0  14   5    1.89    0.43
 -14   0   5    1.21    0.45
 -14  15  -5    1.47    0.77
 -14  15  -5    1.60    0.61
 -15   1   5    1.15    0.45
   1  14   5    0.66    0.39
 -14  16  -5    1.16    0.60
 -14  16  -5    2.26    0.84
 -16   2   5    1.27    0.46
   2  14   5    1.33    0.40
 -14  17  -5    3.12    0.89
 -14  17  -5    2.48    0.70
 -17   3   5    2.16    0.50
   3  14   5    1.64    0.42
 -14  18  -5    1.31    0.80
 -14  18  -5    1.06    0.65
 -18   4   5    1.71    0.50
 -14  19  -5    0.15    0.62
 -14  19  -5    0.68    0.75
 -19   5   5    0.31    0.42
 -14  20  -5    0.24    0.74
 -14  20  -5    0.56    0.65
  -4  19  -5    0.53    0.62
   4 -19   5    0.35    0.52
  15   4   5    0.22    0.42
  -3  18  -5    1.52    0.68
   3 -18   5    1.12    0.57
  15   3   5    1.96    0.47
  -2  17  -5    4.61    0.96
  15   2   5    6.96    0.71
   2 -17   5    7.22    0.83
  -1  16  -5    1.37    0.66
  15   1   5   -0.09    0.42
   1 -16   5    1.08    0.52
 -15   0  -5    9.13    0.91
   0 -15   5    6.12    0.83
  15   0   5    6.38    0.74
 -15   1  -5    1.42    0.47
  15  -1   5    1.05    0.47
  -1 -14   5    1.38    0.48
  -2 -13   5    5.20    0.67
  15  -2   5    4.38    0.63
  -3 -12   5    0.81    0.47
  15  -3   5    0.89    0.45
  15  -4   5    9.13    0.88
  -4 -11   5    8.97    0.99
  15  -5   5    0.34    0.43
  -5 -10   5    0.29    0.40
 -15   6  -5    4.75    0.89
  -6  -9   5    4.10    0.61
  15  -6   5    4.54    0.59
 -15   7  -5    1.09    0.67
  15  -7   5    1.31    0.47
  -8  15   5    1.34    0.44
  -7  -8   5    1.66    0.46
 -15   8  -5    1.98    0.68
  15  -8   5    0.57    0.44
  -8  -7   5    0.78    0.43
  -7  15   5    1.16    0.44
 -15   9  -5    3.02    0.83
  15  -9   5    3.91    0.56
  -6  15   5    3.52    0.53
  -9  -6   5    3.87    0.56
 -15  10  -5    5.30    0.94
  15 -10   5    3.26    0.55
 -10  -5   5    3.66    0.59
  -5  15   5    3.91    0.53
 -15  11  -5    3.19    0.63
 -15  11  -5    2.03    0.79
  15 -11   5    3.13    0.51
  -4  15   5    2.56    0.49
 -11  -4   5    3.65    0.56
 -15  12  -5    0.08    0.67
 -15  12  -5    0.36    0.46
  -3  15   5    0.67    0.39
  15 -12   5    0.89    0.41
 -12  -3   5    0.68    0.44
 -15  13  -5    2.73    0.83
 -15  13  -5    2.50    0.65
 -13  -2   5    4.03    0.60
  15 -13   5    4.54    0.56
  -2  15   5    4.28    0.55
 -15  14  -5    2.52    0.83
 -15  14  -5    1.48    0.56
 -14  -1   5    1.19    0.46
  -1  15   5    1.39    0.41
 -15  15  -5    3.79    0.96
 -15  15  -5    2.98    0.73
   0  15   5    5.36    0.56
 -15   0   5    4.32    0.60
 -15  16  -5    1.62    0.77
 -15  16  -5    1.68    0.63
   1  15   5    0.87    0.41
 -16   1   5    1.66    0.48
 -15  17  -5    2.94    0.77
 -15  17  -5    4.23    0.98
 -17   2   5    4.95    0.64
 -15  18  -5    3.90    0.94
 -15  18  -5    4.73    0.85
 -18   3   5    4.11    0.62
 -15  19  -5    0.13    0.72
 -15  19  -5    0.13    0.58
 -19   4   5    0.94    0.47
  -3  19  -5    0.10    0.59
  16   3   5    0.53    0.44
   3 -19   5   -0.14    0.54
  -2  18  -5    0.93    0.65
  16   2   5    0.06    0.45
   2 -18   5    0.64    0.53
  -1  17  -5   -0.16    0.59
   1 -17   5   -0.26    0.52
  16   1   5   -0.45    0.41
  16   0   5   10.37    0.97
   0 -16   5   11.27    1.12
 -16   1  -5    2.04    0.51
  -1 -15   5    0.53    0.50
  16  -1   5    0.56    0.45
 -16   2  -5    0.18    0.44
  16  -2   5   -0.06    0.41
  -2 -14   5    0.12    0.46
  16  -3   5    5.86    0.70
  -3 -13   5    5.80    0.74
  16  -4   5    8.16    0.84
  -4 -12   5    8.52    0.91
  -5 -11   5    1.68    0.51
  16  -5   5    1.59    0.47
  -6 -10   5    4.13    0.62
  16  -6   5    4.71    0.63
  16  -7   5    6.24    0.71
  -7  -9   5    5.50    0.73
 -16   8  -5    0.96    0.65
  -8  -8   5    0.61    0.45
  16  -8   5    0.45    0.42
 -16   9  -5    3.42    0.89
  -9  -7   5    4.42    0.61
  -7  16   5    4.58    0.58
  16  -9   5    3.31    0.58
 -16  10  -5    0.93    0.73
 -10  -6   5    0.63    0.44
  -6  16   5    0.84    0.43
  16 -10   5    0.54    0.45
 -16  11  -5    2.57    0.80
  16 -11   5    2.25    0.51
 -11  -5   5    2.61    0.54
  -5  16   5    3.50    0.51
 -16  12  -5   15.44    1.42
 -16  12  -5   13.13    1.63
  -4  16   5   11.74    1.04
  16 -12   5    9.65    1.05
 -12  -4   5   11.01    1.13
 -16  13  -5    0.34    0.50
 -16  13  -5    0.16    0.72
  -3  16   5    0.35    0.39
 -13  -3   5    0.16    0.44
  16 -13   5    0.02    0.40
 -16  14  -5    1.50    0.58
 -16  14  -5    1.40    0.82
  -2  16   5    1.93    0.46
 -14  -2   5    1.64    0.50
 -16  15  -5    0.76    0.79
 -16  15  -5    1.39    0.58
  -1  16   5    0.79    0.41
 -15  -1   5    0.73    0.45
 -16  16  -5    8.42    1.18
 -16  16  -5    8.78    1.34
   0  16   5    9.27    0.89
 -16   0   5    9.78    0.95
 -16  17  -5   -0.65    0.68
 -16  17  -5    0.41    0.56
 -17   1   5    0.27    0.44
 -16  18  -5    0.31    0.70
 -16  18  -5    0.73    0.59
 -18   2   5    0.54    0.47
 -16  19  -5    0.25    0.75
 -16  19  -5    0.87    0.60
 -19   3   5    0.65    0.44
  -1  18  -5    0.09    0.62
  17   1   5    0.90    0.45
   1 -18   5    0.81    0.56
   0  17  -5    0.49    0.63
   0 -17   5    1.30    0.55
  17   0   5    1.28    0.46
 -17   1  -5   -0.32    0.42
  -1 -16   5    0.49    0.50
  17  -1   5   -0.08    0.43
 -17   2  -5    5.35    0.77
  17  -2   5    6.53    0.73
  -2 -15   5    6.51    0.80
 -17   3  -5    1.21    0.54
  -3 -14   5    2.18    0.55
  17  -3   5    2.14    0.50
  17  -4   5    0.40    0.48
  -4 -13   5    0.51    0.49
  17  -5   5    2.00    0.53
  -5 -12   5    1.59    0.53
  -6 -11   5    3.59    0.61
  17  -6   5    3.37    0.60
  17  -7   5    0.12    0.43
  -7 -10   5    0.82    0.47
  17  -8   5    2.22    0.54
  -8  -9   5    2.28    0.52
 -17   9  -5    0.44    0.72
  17  -9   5    0.33    0.46
  -9  -8   5    0.37    0.46
 -17  10  -5    0.46    0.73
 -10  -7   5    0.78    0.47
  17 -10   5    0.74    0.47
 -17  11  -5    6.27    1.05
 -11  -6   5    5.42    0.71
  17 -11   5    4.85    0.67
  -6  17   5    5.06    0.63
 -17  12  -5    2.96    0.87
  17 -12   5    2.58    0.55
 -12  -5   5    3.51    0.59
  -5  17   5    3.68    0.56
 -17  13  -5    3.80    0.89
 -13  -4   5    3.24    0.59
  -4  17   5    3.25    0.52
  17 -13   5    2.68    0.56
 -17  14  -5    3.97    0.89
  17 -14   5    2.50    0.50
  -3  17   5    1.97    0.47
 -14  -3   5    2.37    0.56
 -17  15  -5    3.10    0.92
 -17  15  -5    4.16    0.79
 -15  -2   5    4.95    0.67
  -2  17   5    4.39    0.57
 -17  16  -5   -0.24    0.53
 -17  16  -5   -0.14    0.71
 -16  -1   5    0.16    0.44
 -17  17  -5    0.59    0.79
 -17  17  -5    0.39    0.56
 -17   0   5    0.39    0.44
 -17  18  -5    1.55    0.79
 -17  18  -5    1.30    0.63
 -18   1   5    0.09    0.43
   0 -18   5    1.95    0.59
   1  17  -5    0.50    0.63
  -1 -17   5    1.15    0.54
  18  -1   5    0.84    0.45
 -18   2  -5    0.79    0.50
  18  -2   5    0.55    0.46
  -2 -16   5    0.35    0.51
 -18   3  -5    2.33    0.59
  -3 -15   5    2.22    0.58
  18  -3   5    1.60    0.51
 -18   4  -5    7.37    0.89
  18  -4   5    7.26    0.80
  -4 -14   5    7.70    0.88
  -5 -13   5    2.03    0.56
  18  -5   5    1.82    0.53
  -6 -12   5    1.67    0.55
  18  -6   5    1.97    0.50
  18  -7   5    0.35    0.48
  -7 -11   5    0.64    0.49
  18  -8   5    1.26    0.52
  -8 -10   5    1.13    0.52
  18  -9   5    2.96    0.59
  -9  -9   5    3.68    0.62
  18 -10   5    0.34    0.47
 -10  -8   5    1.06    0.50
 -18  11  -5    1.66    0.83
 -11  -7   5    2.02    0.53
  18 -11   5    1.55    0.51
 -18  12  -5    1.00    0.81
 -12  -6   5    2.56    0.55
  18 -12   5    1.69    0.51
 -18  13  -5    1.73    0.84
  -5  18   5    1.32    0.43
  18 -13   5    1.72    0.49
 -13  -5   5    1.06    0.50
 -18  14  -5    2.05    0.84
 -14  -4   5    1.18    0.51
  18 -14   5    2.04    0.50
  -4  18   5    1.70    0.46
 -18  15  -5    4.39    1.03
 -15  -3   5    4.59    0.68
 -18  16  -5    0.97    0.77
 -16  -2   5   -0.16    0.46
 -18  17  -5    1.07    0.79
 -17  -1   5    0.54    0.48
 -18   0   5    1.56    0.51
 -19   3  -5    0.28    0.50
  19  -3   5    0.13    0.45
  -3 -16   5    0.05    0.49
 -19   4  -5    0.44    0.55
  19  -4   5    0.28    0.47
  -4 -15   5    1.29    0.53
 -19   5  -5    0.13    0.53
  19  -5   5    0.13    0.48
  -5 -14   5   -0.78    0.47
  19  -6   5    2.38    0.56
  -6 -13   5    1.89    0.56
  -7 -12   5    0.61    0.51
  19  -7   5    1.21    0.51
  -8 -11   5    3.25    0.60
  19  -8   5    3.40    0.61
  19  -9   5    1.72    0.52
  -9 -10   5    0.63    0.50
  19 -10   5    1.65    0.53
 -10  -9   5    2.05    0.55
  19 -11   5    1.77    0.53
 -11  -8   5    1.85    0.56
 -12  -7   5    0.90    0.46
  19 -12   5    0.28    0.47
 -19  13  -5    0.83    0.81
 -13  -6   5    0.28    0.47
  19 -13   5    0.07    0.45
 -19  14  -5   -0.08    0.78
 -14  -5   5   -0.28    0.45
  19 -14   5    0.58    0.45
 -19  15  -5    0.19    0.72
  19 -15   5    0.51    0.46
 -15  -4   5    0.37    0.47
 -19  16  -5    1.22    0.80
 -16  -3   5    0.60    0.51
 -20   6  -5    2.56    0.60
  -6 -14   5    1.65    0.59
  20  -6   5    1.81    0.53
 -20   7  -5    1.02    0.54
  -7 -13   5    1.38    0.54
  20  -7   5    0.92    0.50
  20  -8   5    2.11    0.53
  -8 -12   5    1.43    0.55
  -9 -11   5    3.61    0.64
  20  -9   5    2.87    0.59
  20 -10   5    0.66    0.50
 -10 -10   5   -0.11    0.47
 -11  -9   5    4.50    0.69
  20 -11   5    4.29    0.65
 -12  -8   5    3.09    0.62
  20 -12   5    3.21    0.58
  20 -13   5   -0.17    0.48
 -13  -7   5    0.32    0.48
  20 -14   5    0.63    0.48
 -14  -6   5    0.27    0.48
   0   0   6  195.48   14.99
   0   0   6  207.85   13.18
   0  -1   6    4.92    0.52
  -1   1   6    4.39    0.47
   1   0   6    4.11    0.46
   0  -1   6    5.35    0.47
  -1   0   6    3.63    0.44
   1  -1   6    4.15    0.46
   1  -1   6    3.10    0.39
  -1   0   6    3.82    0.41
   1  -1   6    3.46    0.45
   0   1   6    3.83    0.41
  -2   1   6    5.05    0.49
   1  -2   6    4.82    0.48
   1  -2   6    4.71    0.52
   1  -2   6    4.67    0.53
   1   1   6    4.16    0.46
  -3   2   6    1.24    0.29
   2   1   6    1.17    0.30
   1  -3   6    0.96    0.31
   1  -3   6    1.16    0.33
  -2   2   6    5.28    0.51
   2   0   6    5.49    0.51
   0  -2   6    4.96    0.56
   2  -1   6    5.36    0.55
  -1   2   6    4.29    0.47
  -1  -1   6    4.84    0.46
   2  -1   6    4.57    0.46
  -1  -1   6    4.58    0.51
   2  -2   6    2.40    0.39
  -2   0   6    2.12    0.35
  -2   0   6    1.75    0.33
   2  -2   6    2.31    0.37
   2  -2   6    2.52    0.33
   0   2   6    2.74    0.36
   1   2   6    1.93    0.34
  -3   1   6    2.24    0.33
   2  -3   6    1.84    0.37
   2  -3   6    1.63    0.31
   2  -3   6    2.35    0.39
   2  -4   6    1.34    0.34
   2  -4   6    1.06    0.34
  -4   2   6    0.48    0.27
   2   2   6    0.75    0.28
  -5   3   6   10.00    0.80
   3   2   6   10.29    0.81
   2  -5   6    9.16    0.88
   2  -5   6    9.72    0.91
   1  -4   6    4.37    0.52
  -4   3   6    4.68    0.48
   1  -4   6    4.24    0.52
   3   1   6    4.47    0.47
  -3   3   6   23.78    1.69
   3   0   6   23.45    1.68
   0  -3   6   25.22    1.92
   3  -1   6    0.99    0.27
  -2   3   6    1.24    0.29
  -1  -2   6    1.19    0.31
  -2  -1   6    1.49    0.32
   3  -2   6    1.75    0.33
   3  -2   6    1.77    0.29
  -1   3   6    1.34    0.32
   3  -3   6    7.22    0.62
   0   3   6    7.26    0.65
  -3   0   6    6.19    0.67
   3  -3   6    7.23    0.69
  -3   0   6    7.47    0.61
   3  -4   6    6.71    0.73
   1   3   6    6.94    0.66
   3  -4   6    7.76    0.70
  -4   1   6    7.10    0.62
   3  -5   6    8.81    0.88
   2   3   6    7.71    0.73
   3  -5   6    9.22    0.80
  -5   2   6    8.66    0.72
   3  -6   6    7.10    0.73
   3   3   6    7.70    0.70
   3  -6   6    6.75    0.74
  -6   3   6    7.17    0.65
   3  -7   6    1.24    0.38
   4   3   6    0.83    0.31
  -7   4   6    1.26    0.33
   3  -7   6    0.83    0.37
   2  -6   6    9.55    0.88
   2  -6   6    9.78    0.91
   4   2   6    9.40    0.79
  -6   4   6    9.64    0.80
   1  -5   6    4.52    0.54
  -5   4   6    4.80    0.49
   1  -5   6    4.53    0.55
   4   1   6    4.46    0.47
  -4   4   6   29.49    1.95
   4   0   6   26.11    1.93
   0  -4   6   28.67    2.21
   4  -1   6    4.69    0.45
  -3   4   6    4.24    0.47
  -1  -3   6    4.16    0.50
   4  -2   6    1.06    0.28
  -2  -2   6    0.81    0.29
   4  -2   6    1.05    0.31
  -2   4   6    1.29    0.32
  -1   4   6    6.53    0.65
   4  -3   6    6.55    0.66
  -3  -1   6    7.42    0.69
   4  -3   6    6.95    0.61
   0   4   6   29.74    2.08
   4  -4   6   31.14    2.06
  -4   0   6   30.33    2.34
   4  -4   6   30.00    2.26
   4  -5   6    3.89    0.50
  -5   1   6    3.97    0.46
   1   4   6    3.62    0.46
   4  -6   6    3.50    0.53
   4  -6   6    4.66    0.53
  -6   2   6    4.03    0.44
   2   4   6    3.61    0.46
  -7   3   6    7.68    0.66
   4  -7   6    6.15    0.74
   4  -7   6    7.56    0.74
   3   4   6    7.78    0.72
   4  -8   6   58.05    4.44
   4   4   6   59.03    3.89
   4  -8   6   56.96    4.20
   5   4   6    0.08    0.30
   4  -9   6    0.20    0.39
   5   3   6    3.24    0.43
   3  -8   6    3.52    0.52
  -8   5   6    3.52    0.45
   3  -8   6    3.27    0.52
   5   2   6    2.23    0.38
  -7   5   6    2.45    0.39
   2  -7   6    2.65    0.44
   2  -7   6    2.18    0.45
   1  -6   6    4.31    0.57
  -6   5   6    4.85    0.51
   1  -6   6    4.42    0.56
   5   1   6    4.75    0.49
   0  -5   6    5.96    0.69
   5   0   6    6.59    0.63
  -5   5   6    6.47    0.61
  -1  -4   6    4.25    0.52
  -4   5   6    5.01    0.50
   5  -1   6    4.32    0.47
  -5   2  -6    9.52    1.17
  -3   5   6    9.54    0.80
   5  -2   6    9.80    0.77
   5  -2   6    9.00    0.82
  -2  -3   6    9.19    0.87
  -5   3  -6    6.49    1.03
   5  -3   6    8.83    0.71
  -3  -2   6    8.29    0.79
  -2   5   6    8.80    0.74
   5  -3   6    8.76    0.77
   5  -4   6    4.26    0.43
  -1   5   6    3.76    0.46
   5  -4   6    3.65    0.48
  -4  -1   6    4.03    0.47
   5  -5   6    0.85    0.33
   0   5   6    0.95    0.32
  -5   0   6    1.34    0.31
   5  -5   6    1.34    0.29
   1   5   6    7.70    0.73
  -6   1   6    9.03    0.81
   5  -6   6    8.66    0.80
   5  -7   6    2.37    0.43
   2   5   6    2.62    0.40
   5  -8   6    5.19    0.64
   5  -8   6    4.89    0.60
   3   5   6    4.97    0.55
   4   5   6    9.06    0.78
   5  -9   6    8.81    0.94
   5 -10   6    0.81    0.44
   5   5   6    0.52    0.34
  -5  11  -6    7.40    0.95
   6   5   6    5.62    0.63
   5 -11   6    4.81    0.72
   6   4   6    4.33    0.52
   4 -10   6    3.82    0.62
   3  -9   6    9.62    0.95
   6   3   6    8.81    0.81
   2  -8   6    1.98    0.45
  -8   6   6    1.60    0.39
   2  -8   6    1.54    0.41
   6   2   6    2.30    0.37
   1  -7   6    0.42    0.34
   1  -7   6    0.96    0.37
   6   1   6    0.54    0.32
  -7   6   6    0.60    0.33
   0  -6   6   10.49    0.99
   6   0   6   11.59    0.88
  -6   6   6   10.43    0.88
   6  -1   6    4.82    0.50
  -1  -5   6    4.28    0.55
  -5   6   6    4.94    0.52
   6  -2   6    9.67    0.84
  -4   6   6   10.67    0.89
  -2  -4   6   11.29    0.97
  -6   3  -6    9.10    1.05
  -3   6   6    7.10    0.70
   6  -3   6    6.58    0.70
  -3  -3   6    6.84    0.75
   6  -3   6    7.29    0.68
  -6   4  -6    3.80    0.70
   6  -4   6    3.99    0.43
  -2   6   6    3.02    0.43
   6  -4   6    3.31    0.46
  -4  -2   6    3.68    0.45
  -6   5  -6   11.70    1.28
   6  -5   6    8.07    0.85
  -5  -1   6    9.73    0.87
  -1   6   6    8.99    0.79
   6  -5   6    9.41    0.77
  -6   6  -6    3.88    0.67
  -6   0   6    5.06    0.52
   6  -6   6    4.49    0.54
   6  -6   6    4.71    0.47
   0   6   6    4.62    0.51
  -6   7  -6    2.25    0.51
   6  -7   6    0.77    0.36
  -7   1   6    1.42    0.32
   1   6   6    0.67    0.33
  -6   8  -6    1.31    0.52
   2   6   6    2.72    0.43
   6  -8   6    2.84    0.46
  -6   9  -6   14.68    1.65
   3   6   6   16.39    1.20
  -6  10  -6    0.16    0.49
   4   6   6    0.76    0.35
  -6  11  -6    0.94    0.56
   5   6   6    1.14    0.38
  -6  12  -6    1.92    0.63
   6   6   6    1.51    0.43
  -6  13  -6    3.30    0.78
   7   6   6    3.80    0.54
  -5  12  -6    3.80    0.77
   7   5   6    3.61    0.52
   5 -12   6    3.55    0.63
   7   4   6    3.14    0.48
   4 -11   6    3.00    0.59
   3 -10   6    0.48    0.40
   7   3   6   -0.59    0.33
   7   2   6    7.42    0.72
   2  -9   6    8.08    0.85
   7   1   6    4.36    0.52
  -8   7   6    4.41    0.54
   1  -8   6    4.64    0.59
   7   0   6    2.06    0.38
   0  -7   6    2.34    0.44
  -7   7   6    1.91    0.39
  -1  -6   6    1.04    0.36
   7  -1   6    0.42    0.32
  -6   7   6    0.75    0.35
   7  -2   6    2.34    0.37
  -5   7   6    2.48    0.40
  -2  -5   6    2.07    0.41
  -7   3  -6    2.35    0.58
   7  -3   6    0.58    0.29
   7  -3   6    1.13    0.33
  -3  -4   6    1.20    0.35
  -4   7   6    0.52    0.33
  -7   4  -6   10.12    1.10
  -4  -3   6    7.45    0.77
  -3   7   6    6.46    0.68
   7  -4   6    7.14    0.68
   7  -4   6    6.69    0.70
  -7   5  -6    3.21    0.66
  -2   7   6    2.51    0.40
   7  -5   6    2.49    0.43
  -5  -2   6    2.92    0.42
   7  -5   6    2.76    0.38
  -7   6  -6    2.09    0.47
  -7   6  -6    1.77    0.58
  -6  -1   6    1.29    0.33
   7  -6   6    0.64    0.28
  -1   7   6    0.53    0.34
   7  -6   6    0.67    0.33
  -7   7  -6    2.90    0.59
  -7   7  -6    3.52    0.76
   0   7   6    2.14    0.42
   7  -7   6    3.35    0.48
  -7   0   6    3.04    0.43
  -7   8  -6    6.34    0.86
  -8   1   6    6.48    0.67
   1   7   6    6.42    0.63
   7  -8   6    5.45    0.66
  -7   9  -6    5.71    0.92
  -9   2   6    7.84    0.76
   2   7   6    7.58    0.73
  -7  10  -6    0.25    0.49
   3   7   6    0.62    0.36
  -7  11  -6    1.19    0.56
   4   7   6    1.25    0.39
  -7  12  -6    2.54    0.66
   5   7   6    1.61    0.41
  -7  13  -6    4.12    0.84
   6   7   6    4.98    0.59
  -7  14  -6    0.33    0.58
   7   7   6    0.07    0.39
  -7  15  -6    2.17    0.70
   8   7   6    1.71    0.44
  -6  14  -6    2.04    0.69
   8   6   6    1.52    0.46
  -5  13  -6    2.68    0.73
   5 -13   6    2.48    0.59
   8   5   6    2.34    0.45
   8   4   6   10.65    0.95
   4 -12   6   11.70    1.14
   3 -11   6    2.51    0.52
   8   3   6    2.61    0.46
   8   2   6    0.83    0.38
   2 -10   6    1.13    0.43
   1  -9   6    9.03    0.95
   8   1   6    8.61    0.78
  -9   8   6    7.75    0.79
   8   0   6    9.07    0.82
  -8   8   6    8.09    0.81
   0  -8   6    8.24    0.87
  -7   8   6    4.12    0.53
  -1  -7   6    4.21    0.55
   8  -1   6    4.66    0.53
  -6   8   6    1.83    0.40
  -2  -6   6    1.57    0.39
   8  -2   6    1.77    0.36
  -8   3  -6    2.04    0.62
   8  -3   6    3.34    0.44
  -5   8   6    2.91    0.44
  -3  -5   6    4.10    0.50
  -8   4  -6   64.21    5.83
   8  -4   6   61.43    4.04
  -4  -4   6   62.70    4.61
  -4   8   6   58.30    4.06
   8  -4   6   56.59    4.35
  -8   5  -6    7.22    0.95
   8  -5   6    5.15    0.55
  -5  -3   6    5.47    0.63
   8  -5   6    6.04    0.63
  -3   8   6    5.62    0.60
  -8   6  -6    1.55    0.65
  -2   8   6    2.01    0.42
  -6  -2   6    2.82    0.43
   8  -6   6    2.73    0.43
   8  -6   6    2.91    0.38
  -8   7  -6    6.06    0.83
  -8   7  -6    6.22    0.98
  -7  -1   6    6.57    0.70
   8  -7   6    6.57    0.58
   8  -7   6    5.78    0.66
  -1   8   6    6.03    0.62
  -8   8  -6   10.50    1.26
  -8   8  -6   11.12    1.07
  -8   0   6    7.60    0.82
   0   8   6    6.95    0.74
   8  -8   6    7.14    0.80
  -8   9  -6    1.23    0.65
  -8   9  -6    1.37    0.50
   1   8   6    1.21    0.37
  -9   1   6    1.34    0.36
  -8  10  -6    1.59    0.54
  -8  10  -6    1.29    0.69
   2   8   6    1.47    0.39
 -10   2   6    1.86    0.39
  -8  11  -6    3.22    0.80
  -8  11  -6    2.71    0.63
   3   8   6    1.28    0.43
  -8  12  -6    2.72    0.88
  -8  12  -6    2.49    0.70
   4   8   6    4.77    0.53
  -8  13  -6    1.04    0.58
  -8  13  -6    0.51    0.77
   5   8   6    1.20    0.42
  -8  14  -6    1.71    0.85
  -8  14  -6    1.29    0.64
   6   8   6    2.39    0.48
  -8  15  -6    6.81    1.19
  -8  15  -6    6.74    1.06
   7   8   6    7.60    0.75
  -8  16  -6   14.09    1.96
  -8  16  -6   17.34    1.85
   8   8   6   17.15    1.31
  -8  17  -6    6.50    1.14
  -8  17  -6    6.42    1.03
   9   8   6    5.96    0.70
  -7  16  -6    0.83    0.65
   9   7   6    0.19    0.41
  -6  15  -6    0.12    0.64
   9   6   6    0.74    0.43
  -5  14  -6   -0.31    0.56
   9   5   6    0.36    0.39
   5 -14   6    0.42    0.52
  -4  13  -6    4.53    0.83
   9   4   6    3.71    0.54
   4 -13   6    3.20    0.66
   3 -12   6    0.24    0.44
   9   3   6   -0.05    0.38
   2 -11   6    1.20    0.46
   9   2   6    1.20    0.40
   1 -10   6    6.17    0.73
   9   1   6    5.89    0.64
   0  -9   6    7.43    0.80
   9   0   6    6.20    0.68
  -9   9   6    8.34    0.76
  -8   9   6    8.67    0.81
   9  -1   6    8.11    0.79
  -1  -8   6    7.33    0.83
  -7   9   6    5.95    0.67
  -2  -7   6    7.80    0.78
   9  -2   6    6.77    0.66
  -6   9   6    9.22    0.83
   9  -3   6    9.16    0.83
  -3  -6   6    9.54    0.95
  -9   4  -6    1.24    0.56
   9  -4   6    0.58    0.30
  -4  -5   6    0.29    0.33
  -5   9   6    0.68    0.37
  -9   5  -6   11.69    1.30
  -5  -4   6   10.00    0.94
   9  -5   6    9.46    0.83
   9  -5   6    8.63    0.89
  -4   9   6    8.98    0.88
  -9   6  -6   14.73    1.89
  -3   9   6   17.63    1.28
  -6  -3   6   18.17    1.43
   9  -6   6   16.63    1.36
   9  -6   6   17.26    1.26
  -9   7  -6    6.22    1.09
  -2   9   6    8.30    0.78
   9  -7   6    8.58    0.72
   9  -7   6    7.52    0.77
  -7  -2   6    8.12    0.81
  -9   8  -6    0.77    0.65
  -9   8  -6    1.21    0.48
   9  -8   6    1.45    0.34
  -1   9   6    0.79    0.35
  -8  -1   6    1.41    0.38
  -9   9  -6   11.67    1.34
  -9   9  -6   11.72    1.56
   0   9   6   11.84    0.98
  -9   0   6   12.98    1.10
  -9  10  -6    2.40    0.60
  -9  10  -6    2.64    0.80
   1   9   6    2.89    0.47
 -10   1   6    3.18    0.47
  -9  11  -6   10.05    1.38
  -9  11  -6   10.37    1.22
   2   9   6    9.23    0.91
 -11   2   6   10.45    0.96
  -9  12  -6    3.98    0.74
  -9  12  -6    3.78    0.86
   3   9   6    3.21    0.52
  -9  13  -6    3.15    0.71
  -9  13  -6    2.88    0.83
   4   9   6    3.19    0.51
  -9  14  -6   -0.03    0.70
  -9  14  -6    0.03    0.54
   5   9   6    0.32    0.40
  -9  15  -6    3.64    0.94
  -9  15  -6    3.89    0.83
   6   9   6    4.75    0.57
  -9  16  -6    2.07    0.84
  -9  16  -6    1.75    0.68
   7   9   6    0.65    0.43
  -9  17  -6    2.39    0.75
  -9  17  -6    1.64    0.83
   8   9   6    1.81    0.47
  -9  18  -6   -0.02    0.62
  -9  18  -6    1.19    0.79
   9   9   6    1.45    0.46
  -9  19  -6    0.80    0.65
  -9  19  -6    0.59    0.75
  10   9   6    1.44    0.44
  -8  18  -6    1.90    0.74
  -8  18  -6    1.73    0.81
  10   8   6    2.53    0.51
  -7  17  -6    2.27    0.88
  -7  17  -6    2.29    0.77
  10   7   6    2.55    0.49
  -6  16  -6    0.71    0.64
  10   6   6    0.40    0.42
  -5  15  -6    3.46    0.82
  10   5   6    2.88    0.51
   5 -15   6    2.66    0.62
  -4  14  -6    1.54    0.67
  10   4   6    1.40    0.45
   4 -14   6    1.04    0.56
  10   3   6    2.62    0.48
   3 -13   6    3.20    0.61
  10   2   6   -0.05    0.39
   2 -12   6    0.95    0.50
   1 -11   6   -0.05    0.46
  10   1   6    0.26    0.37
   0 -10   6    1.71    0.47
  10   0   6    1.55    0.44
  10  -1   6    6.16    0.65
  -9  10   6    5.79    0.64
  -1  -9   6    5.46    0.70
  -2  -8   6    1.51    0.43
  -8  10   6    0.40    0.41
  10  -2   6    1.07    0.38
  -3  -7   6    0.48    0.39
  -7  10   6    0.63    0.39
  10  -3   6    0.30    0.35
 -10   4  -6    7.13    0.89
  -6  10   6    3.72    0.54
  -4  -6   6    4.85    0.61
  10  -4   6    4.54    0.54
 -10   5  -6    0.78    0.58
  -5  10   6    0.53    0.37
  -5  -5   6    1.05    0.40
  10  -5   6    1.18    0.36
  10  -5   6    0.87    0.37
 -10   6  -6    0.64    0.60
  -6  -4   6    1.32    0.37
  10  -6   6    0.61    0.38
  -4  10   6    0.91    0.37
  10  -6   6    1.12    0.36
 -10   7  -6    0.37    0.61
  -7  -3   6    0.51    0.34
  -3  10   6    0.39    0.38
  10  -7   6    0.32    0.33
 -10   8  -6    1.12    0.65
  -2  10   6    1.68    0.42
  10  -8   6    1.35    0.35
  -8  -2   6    1.21    0.38
 -10   9  -6    3.16    0.79
 -10   9  -6    2.48    0.58
  -1  10   6    2.95    0.46
  -9  -1   6    2.88    0.48
 -10  10  -6    2.08    0.57
 -10  10  -6    1.92    0.78
   0  10   6    2.17    0.45
 -10   0   6    1.92    0.44
 -10  11  -6    0.23    0.66
 -10  11  -6    0.64    0.50
   1  10   6    0.04    0.38
 -11   1   6    0.42    0.38
 -10  12  -6    1.04    0.75
 -10  12  -6    1.39    0.56
 -12   2   6    0.65    0.41
   2  10   6    0.11    0.39
 -10  13  -6    2.68    0.84
 -10  13  -6    2.57    0.69
   3  10   6    3.09    0.51
 -10  14  -6    0.52    0.77
 -10  14  -6    0.69    0.59
   4  10   6    1.22    0.43
 -10  15  -6    0.12    0.58
 -10  15  -6    0.59    0.73
   5  10   6    0.07    0.41
 -10  16  -6   -0.71    0.72
 -10  16  -6    0.60    0.61
   6  10   6    0.22    0.41
 -10  17  -6    2.00    0.72
 -10  17  -6    2.33    0.87
   7  10   6    2.50    0.49
 -10  18  -6    1.32    0.84
 -10  18  -6    1.64    0.69
   8  10   6    1.91    0.46
 -10  19  -6   -0.11    0.63
 -10  19  -6    0.21    0.76
   9  10   6    0.55    0.43
  -8  19  -6    0.61    0.76
  -8  19  -6    1.20    0.69
  11   8   6    0.83    0.45
  -7  18  -6    2.12    0.83
  -7  18  -6    2.09    0.72
  11   7   6    1.01    0.44
  -6  17  -6    1.77    0.73
  11   6   6    1.70    0.49
  -5  16  -6    1.21    0.70
  11   5   6    1.16    0.44
   5 -16   6    1.24    0.59
  -4  15  -6    2.38    0.78
  11   4   6    3.60    0.55
   4 -15   6    3.47    0.69
  11   3   6    4.15    0.58
   3 -14   6    3.81    0.70
  11   2   6    3.94    0.57
   2 -13   6    3.00    0.64
  11   1   6    3.67    0.55
   1 -12   6    2.79    0.59
   0 -11   6    4.36    0.67
  11   0   6    4.91    0.61
  11  -1   6    0.22    0.36
  -1 -10   6    0.13    0.42
  -9  11   6    1.36    0.42
  -2  -9   6    1.15    0.46
  11  -2   6    1.05    0.42
  -8  11   6    2.46    0.49
  11  -3   6    1.92    0.45
  -3  -8   6    2.08    0.49
  11  -4   6    4.14    0.50
  -4  -7   6    3.29    0.53
  -7  11   6    2.65    0.49
 -11   5  -6    7.05    0.94
  -5  -6   6    5.28    0.67
  -6  11   6    5.23    0.64
  11  -5   6    5.90    0.63
 -11   6  -6    1.18    0.65
  -5  11   6    0.82    0.40
  11  -6   6    1.87    0.41
  -6  -5   6    1.33    0.41
 -11   7  -6    1.85    0.69
  -4  11   6    1.35    0.40
  -7  -4   6    1.15    0.42
  11  -7   6    1.21    0.39
 -11   8  -6    2.54    0.75
  -3  11   6    1.67    0.45
  -8  -3   6    1.88    0.44
  11  -8   6    1.80    0.40
 -11   9  -6   10.93    1.15
 -11   9  -6   11.28    1.35
  -9  -2   6    8.33    0.95
  11  -9   6    9.08    0.87
  -2  11   6    8.89    0.90
 -11  10  -6   -0.48    0.67
 -11  10  -6    0.28    0.47
  -1  11   6    0.10    0.38
 -10  -1   6    0.14    0.38
 -11  11  -6    4.61    0.95
 -11  11  -6    4.60    0.73
 -11   0   6    3.90    0.56
   0  11   6    2.70    0.50
 -11  12  -6    5.40    1.12
 -11  12  -6    6.51    0.93
   1  11   6    6.35    0.68
 -12   1   6    6.92    0.74
 -11  13  -6    1.01    0.56
 -11  13  -6    1.89    0.80
 -13   2   6    1.34    0.44
   2  11   6    1.44    0.44
 -11  14  -6    0.67    0.56
 -11  14  -6    0.56    0.75
   3  11   6    1.03    0.43
 -11  15  -6    3.28    0.77
 -11  15  -6    3.59    0.95
   4  11   6    4.00    0.55
 -11  16  -6    3.90    0.81
 -11  16  -6    3.18    0.96
   5  11   6    3.48    0.56
 -11  17  -6    1.13    0.66
 -11  17  -6    1.03    0.83
   6  11   6    0.10    0.43
 -11  18  -6    0.64    0.65
 -11  18  -6    0.96    0.82
   7  11   6    1.07    0.45
 -11  19  -6   -0.34    0.73
 -11  19  -6   -0.10    0.63
   8  11   6    0.01    0.41
  -6  18  -6    2.11    0.76
  -6  18  -6    1.58    0.82
  12   6   6    2.76    0.52
  -5  17  -6    4.02    0.91
  12   5   6    5.50    0.62
  -4  16  -6    1.83    0.73
   4 -16   6    1.69    0.60
  12   4   6    1.04    0.46
  -3  15  -6    3.75    0.87
   3 -15   6    3.86    0.72
  12   3   6    4.22    0.59
  12   2   6    3.60    0.58
   2 -14   6    3.97    0.69
   1 -13   6    1.81    0.57
  12   1   6    2.07    0.50
  12   0   6   21.22    1.66
   0 -12   6   23.89    1.93
  12  -1   6    3.27    0.55
  -1 -11   6    3.79    0.62
  12  -2   6   -0.41    0.39
  -2 -10   6   -0.41    0.42
  -3  -9   6    0.45    0.43
  12  -3   6    0.31    0.41
  -9  12   6   -0.10    0.38
  12  -4   6   12.64    1.01
  -4  -8   6   11.62    1.12
  -8  12   6   10.91    1.05
 -12   5  -6    5.25    0.87
  12  -5   6    4.39    0.58
  -5  -7   6    4.36    0.63
  -7  12   6    4.33    0.57
 -12   6  -6    2.67    0.68
  -6  -6   6    0.36    0.39
  -6  12   6    0.57    0.40
  12  -6   6    0.91    0.41
 -12   7  -6    2.50    0.71
  -5  12   6    2.02    0.47
  12  -7   6    1.88    0.45
  -7  -5   6    1.95    0.46
 -12   8  -6    3.49    0.88
  -8  -4   6    4.36    0.60
  12  -8   6    5.03    0.56
  -4  12   6    4.45    0.57
 -12   9  -6    4.58    0.86
  12  -9   6    2.09    0.44
  -3  12   6    1.87    0.44
  -9  -3   6    2.30    0.49
 -12  10  -6    1.26    0.75
 -12  10  -6    1.40    0.51
 -10  -2   6    0.33    0.40
  12 -10   6    0.45    0.38
  -2  12   6    0.55    0.42
 -12  11  -6    6.25    0.93
 -12  11  -6    5.63    1.08
 -11  -1   6    7.21    0.77
  -1  12   6    7.15    0.72
 -12  12  -6   12.22    1.48
 -12  12  -6   12.80    1.71
 -12   0   6   13.69    1.21
   0  12   6   13.98    1.11
 -12  13  -6    1.01    0.82
 -12  13  -6    1.38    0.60
   1  12   6    1.10    0.44
 -13   1   6    1.56    0.46
 -12  14  -6    2.73    0.87
 -12  14  -6    2.75    0.70
   2  12   6    2.78    0.50
 -14   2   6    2.73    0.55
 -12  15  -6    4.83    0.91
 -12  15  -6    4.58    1.08
 -15   3   6    6.66    0.73
   3  12   6    5.91    0.65
 -12  16  -6    2.32    0.70
 -12  16  -6    3.19    0.94
   4  12   6    0.48    0.42
 -12  17  -6    2.42    0.93
 -12  17  -6    3.50    0.80
   5  12   6    3.32    0.54
 -12  18  -6    1.16    0.83
 -12  18  -6    1.63    0.71
   6  12   6    2.45    0.48
  -5  18  -6    0.44    0.66
  13   5   6    0.63    0.45
  -4  17  -6    0.41    0.68
   4 -17   6    0.00    0.56
  13   4   6    0.35    0.43
  -3  16  -6    0.87    0.68
  13   3   6    0.50    0.43
   3 -16   6    0.58    0.57
  -2  15  -6    0.43    0.66
   2 -15   6    0.60    0.55
  13   2   6   -0.20    0.43
   1 -14   6    0.95    0.56
  13   1   6    0.95    0.48
   0 -13   6    1.34    0.56
  13   0   6    0.95    0.47
  13  -1   6    2.15    0.49
  -1 -12   6    1.90    0.56
  -2 -11   6    3.70    0.58
  13  -2   6    2.20    0.50
  -3 -10   6    2.68    0.55
  13  -3   6    3.50    0.55
  -9  13   6    3.69    0.55
  -4  -9   6    3.64    0.60
  13  -4   6    3.07    0.56
 -13   5  -6    2.84    0.72
  -8  13   6    1.89    0.49
  -5  -8   6    2.80    0.53
  13  -5   6    2.82    0.53
 -13   6  -6    2.77    0.76
  13  -6   6    3.15    0.54
  -7  13   6    3.05    0.55
  -6  -7   6    4.23    0.59
 -13   7  -6    3.53    0.90
  -7  -6   6    4.77    0.64
  13  -7   6    5.34    0.62
  -6  13   6    5.32    0.61
 -13   8  -6    1.29    0.65
  -5  13   6    1.24    0.45
  13  -8   6    1.45    0.44
  -8  -5   6    1.56    0.47
 -13   9  -6    2.70    0.81
  -4  13   6    3.32    0.53
  -9  -4   6    2.69    0.53
  13  -9   6    2.83    0.49
 -13  10  -6    2.25    0.80
  -3  13   6    2.56    0.51
 -10  -3   6    2.73    0.53
  13 -10   6    3.21    0.51
 -13  11  -6    2.09    0.81
 -13  11  -6    1.86    0.56
 -11  -2   6    1.40    0.47
  -2  13   6    1.24    0.44
 -13  12  -6    1.92    0.82
 -13  12  -6    1.21    0.54
  -1  13   6    1.47    0.46
 -12  -1   6    1.24    0.46
 -13  13  -6    8.53    1.07
 -13  13  -6    8.72    1.29
 -13   0   6    6.83    0.84
   0  13   6    7.80    0.79
 -13  14  -6    0.35    0.73
 -13  14  -6    0.80    0.55
   1  13   6    0.49    0.41
 -14   1   6    0.24    0.43
 -13  15  -6    3.80    0.73
 -13  15  -6    3.21    0.88
   2  13   6    1.89    0.47
 -15   2   6    1.42    0.49
 -13  16  -6    1.76    0.88
 -13  16  -6    2.18    0.67
 -16   3   6    1.10    0.49
   3  13   6    1.49    0.47
 -13  17  -6    0.17    0.58
 -13  17  -6    0.81    0.76
   4  13   6    0.11    0.39
 -13  18  -6    0.13    0.77
 -13  18  -6    0.37    0.60
   5  13   6    0.04    0.40
  -4  18  -6    0.37    0.65
  14   4   6    0.23    0.42
  -3  17  -6    3.99    0.86
  14   3   6    2.25    0.52
   3 -17   6    3.80    0.72
  -2  16  -6    0.69    0.69
   2 -16   6   -0.11    0.55
  14   2   6    0.51    0.46
   1 -15   6    1.55    0.59
  14   1   6    1.81    0.52
   0 -14   6    1.05    0.57
  14   0   6    1.54    0.47
  14  -1   6    1.19    0.49
  -1 -13   6    0.85    0.50
  14  -2   6    3.51    0.55
  -2 -12   6    2.47    0.60
  -3 -11   6    4.52    0.65
  14  -3   6    3.57    0.60
  14  -4   6    1.00    0.48
  -4 -10   6    1.85    0.53
  -5  -9   6   -0.51    0.40
  14  -5   6    0.39    0.46
 -14   6  -6    2.16    0.73
  14  -6   6    2.26    0.52
  -8  14   6    2.04    0.51
  -6  -8   6    2.13    0.53
 -14   7  -6   -0.13    0.62
  14  -7   6    0.20    0.43
  -7  14   6    0.18    0.43
  -7  -7   6    0.04    0.40
 -14   8  -6    1.55    0.73
  14  -8   6    1.76    0.49
  -6  14   6    2.03    0.47
  -8  -6   6    2.36    0.52
 -14   9  -6   -0.02    0.63
  -9  -5   6    0.79    0.44
  -5  14   6   -0.14    0.41
  14  -9   6   -0.23    0.41
 -14  10  -6    1.61    0.74
 -10  -4   6    1.05    0.46
  14 -10   6    0.50    0.42
  -4  14   6    0.92    0.41
 -14  11  -6    1.02    0.73
 -11  -3   6    1.04    0.46
  -3  14   6    0.55    0.43
  14 -11   6    0.97    0.45
 -14  12  -6    2.82    0.89
 -14  12  -6    2.00    0.60
 -12  -2   6    2.67    0.55
  -2  14   6    2.93    0.52
 -14  13  -6    0.43    0.75
 -14  13  -6    0.34    0.52
 -13  -1   6    0.32    0.43
  -1  14   6    0.27    0.41
 -14  14  -6    3.44    0.70
 -14  14  -6    4.30    0.99
   0  14   6    2.19    0.49
 -14   0   6    2.31    0.56
 -14  15  -6    1.43    0.60
 -14  15  -6    2.46    0.89
 -15   1   6    0.78    0.45
   1  14   6    0.57    0.43
 -14  16  -6    1.08    0.84
 -14  16  -6    1.04    0.60
 -16   2   6    0.66    0.44
   2  14   6    1.28    0.46
 -14  17  -6   -0.04    0.56
 -14  17  -6   -0.32    0.77
   3  14   6    0.55    0.41
 -14  18  -6    1.46    0.66
 -14  18  -6    0.65    0.80
   4  14   6    0.66    0.42
  -2  17  -6    1.92    0.74
   2 -17   6    1.10    0.60
  15   2   6    0.74    0.46
  -1  16  -6    1.55    0.73
   1 -16   6    1.85    0.62
  15   1   6    2.21    0.53
   0 -15   6    1.25    0.57
  15   0   6    0.34    0.47
  15  -1   6    1.59    0.52
  -1 -14   6    1.60    0.58
  15  -2   6    0.48    0.46
  -2 -13   6    0.30    0.51
  15  -3   6    4.32    0.61
  -3 -12   6    3.18    0.62
  -4 -11   6    3.89    0.65
  15  -4   6    3.26    0.60
  -5 -10   6    3.30    0.63
  15  -5   6    3.46    0.60
  15  -6   6    0.47    0.44
  -6  -9   6    0.84    0.47
 -15   7  -6    1.82    0.78
  15  -7   6    2.03    0.52
  -7  -8   6    1.88    0.53
  -8  15   6    1.49    0.50
 -15   8  -6    7.75    1.16
  -8  -7   6    8.05    0.86
  15  -8   6    6.79    0.78
  -7  15   6    6.86    0.78
 -15   9  -6    4.89    0.96
  -9  -6   6    4.58    0.67
  15  -9   6    4.18    0.63
  -6  15   6    4.69    0.63
 -15  10  -6    0.22    0.72
 -10  -5   6    0.49    0.46
  15 -10   6    0.02    0.43
  -5  15   6    0.36    0.43
 -15  11  -6    4.11    0.96
 -11  -4   6    3.84    0.63
  -4  15   6    3.26    0.56
  15 -11   6    3.96    0.60
 -15  12  -6    4.27    1.03
 -12  -3   6    6.46    0.76
  -3  15   6    6.66    0.69
 -15  13  -6    2.98    0.64
 -15  13  -6    2.73    0.84
 -13  -2   6    2.03    0.55
  -2  15   6    2.90    0.52
 -15  14  -6    2.18    0.83
 -15  14  -6    0.75    0.52
  -1  15   6    0.83    0.43
 -14  -1   6    0.52    0.45
 -15  15  -6    0.00    0.50
 -15  15  -6    0.79    0.79
   0  15   6   -0.07    0.40
 -15   0   6    0.39    0.44
 -15  16  -6    0.38    0.53
 -15  16  -6    0.03    0.77
   1  15   6    0.21    0.40
 -16   1   6    0.17    0.46
 -15  17  -6    1.22    0.82
 -15  17  -6    0.69    0.57
 -17   2   6    0.76    0.47
   2  15   6    0.58    0.40
  -1  17  -6    1.94    0.74
   1 -17   6    1.61    0.64
  16   1   6    1.56    0.53
   0  16  -6    3.19    0.83
  16   0   6    3.69    0.59
   0 -16   6    3.22    0.69
  16  -1   6    1.92    0.54
  -1 -15   6    2.38    0.62
  -2 -14   6    0.33    0.54
  16  -2   6    0.74    0.47
  -3 -13   6    0.69    0.53
  16  -3   6    1.09    0.49
  16  -4   6    0.73    0.50
  -4 -12   6    1.07    0.54
  -5 -11   6    1.36    0.53
  16  -5   6    0.52    0.50
  16  -6   6    0.27    0.49
  -6 -10   6    0.63    0.50
  16  -7   6    0.55    0.48
  -7  -9   6   -0.02    0.47
 -16   8  -6   19.84    2.12
  16  -8   6   17.65    1.48
  -8  -8   6   18.47    1.64
 -16   9  -6    1.88    0.79
  -9  -7   6    0.89    0.50
  -7  16   6    1.29    0.48
  16  -9   6    0.80    0.49
 -16  10  -6    0.16    0.72
  -6  16   6   -0.38    0.43
 -10  -6   6    0.52    0.47
  16 -10   6   -0.43    0.47
 -16  11  -6    4.25    0.88
  -5  16   6    2.49    0.55
  16 -11   6    2.98    0.55
 -11  -5   6    3.36    0.61
 -16  12  -6    2.36    0.84
 -12  -4   6    1.23    0.51
  -4  16   6    1.90    0.49
  16 -12   6    1.54    0.48
 -16  13  -6    1.48    0.79
  -3  16   6    1.12    0.48
 -13  -3   6    1.39    0.51
 -16  14  -6    1.22    0.58
 -16  14  -6    1.52    0.85
 -14  -2   6    1.77    0.52
  -2  16   6    1.33    0.45
 -16  15  -6    0.18    0.77
 -16  15  -6   -0.13    0.50
 -15  -1   6    0.18    0.45
  -1  16   6   -0.04    0.42
 -16  16  -6    2.10    0.90
 -16  16  -6    1.95    0.65
   0  16   6    4.23    0.55
 -16   0   6    2.76    0.56
 -16  17  -6    1.15    0.58
 -16  17  -6    0.47    0.78
   1  16   6    1.01    0.44
 -17   1   6    0.81    0.48
   1  16  -6    0.97    0.69
  -1 -16   6    1.54    0.60
  17  -1   6    1.33    0.50
  -2 -15   6    1.27    0.59
  17  -2   6    1.22    0.50
 -17   3  -6    4.52    0.64
  -3 -14   6    2.57    0.65
  17  -3   6    2.93    0.58
  17  -4   6    0.53    0.49
  -4 -13   6    0.28    0.52
  17  -5   6    6.58    0.78
  -5 -12   6    6.57    0.84
  17  -6   6    1.06    0.52
  -6 -11   6    1.30    0.54
  17  -7   6    2.72    0.58
  -7 -10   6    2.48    0.61
  17  -8   6    5.05    0.70
  -8  -9   6    5.66    0.76
 -17   9  -6    1.53    0.81
  -9  -8   6    1.92    0.55
  17  -9   6    2.20    0.55
 -17  10  -6    1.90    0.83
  17 -10   6    1.20    0.52
 -10  -7   6    2.41    0.57
 -17  11  -6    2.04    0.84
  17 -11   6    0.28    0.47
  -6  17   6    0.57    0.45
 -11  -6   6    0.82    0.49
 -17  12  -6    2.81    0.92
  17 -12   6    2.67    0.55
 -12  -5   6    3.49    0.62
  -5  17   6    3.68    0.57
 -17  13  -6    0.43    0.72
  -4  17   6    0.52    0.44
 -13  -4   6    0.50    0.48
 -17  14  -6   -0.11    0.70
 -14  -3   6    0.84    0.48
  -3  17   6    0.60    0.42
 -17  15  -6    0.71    0.75
 -15  -2   6    0.26    0.46
  -2  17   6   -0.15    0.41
 -17  16  -6    0.68    0.57
 -17  16  -6    0.94    0.83
  -1  17   6    0.61    0.43
 -16  -1   6    1.38    0.49
 -18   4  -6    1.02    0.53
  -4 -14   6   -0.20    0.51
  18  -4   6    0.39    0.48
  18  -5   6    0.71    0.50
  -5 -13   6    0.33    0.54
  -6 -12   6    3.08    0.65
  18  -6   6    3.47    0.62
  -7 -11   6    1.54    0.57
  18  -7   6    1.32    0.54
  18  -8   6    3.01    0.61
  -8 -10   6    3.27    0.66
  -9  -9   6    1.32    0.55
  18  -9   6    1.86    0.54
 -10  -8   6    1.34    0.54
  18 -10   6    1.80    0.53
 -18  11  -6    1.22    0.82
  18 -11   6    0.46    0.51
 -11  -7   6    0.73    0.51
 -18  12  -6    1.42    0.85
 -12  -6   6    2.70    0.58
  18 -12   6    2.85    0.58
 -18  13  -6    0.13    0.77
  -5  18   6    0.26    0.42
  18 -13   6    0.09    0.47
 -13  -5   6    0.61    0.50
 -18  14  -6    0.90    0.83
 -14  -4   6    0.45    0.49
  -4  18   6    0.50    0.42
  -8 -11   6    1.08    0.55
  19  -8   6    1.36    0.56
  19  -9   6    0.24    0.49
  -9 -10   6    1.67    0.57
 -10  -9   6    0.27    0.51
  19 -10   6    0.48    0.49
 -11  -8   6    0.33    0.49
  19 -11   6    0.41    0.51
   0   0   7    6.86    0.64
  -1   1   7    1.60    0.35
   0  -1   7    1.82    0.34
   1   0   7    1.42    0.35
   0   1   7    0.32    0.31
  -1   0   7    0.02    0.28
   1  -1   7   -0.01    0.30
   1  -2   7    0.06    0.34
   1   1   7    0.51    0.32
  -2   1   7    0.17    0.31
   2   1   7    8.47    0.78
   1  -3   7    8.86    0.91
  -3   2   7    9.43    0.77
   0  -2   7    1.76    0.42
  -2   2   7    2.01    0.38
   2   0   7    2.35    0.39
  -1   2   7    0.28    0.31
   2  -1   7    0.30    0.32
   2  -2   7    0.41    0.29
   0   2   7    0.33    0.32
   1   2   7    1.03    0.36
  -3   1   7    1.88    0.35
   2  -4   7    0.67    0.39
   2   2   7    1.51    0.38
   2  -4   7    1.17    0.38
  -4   2   7    1.30    0.36
   2  -5   7    0.16    0.38
  -5   3   7    0.01    0.32
   3   2   7    0.03    0.33
   1  -4   7    1.65    0.44
  -4   3   7    1.51    0.37
   3   1   7    2.19    0.40
   0  -3   7   12.57    1.19
   3   0   7   13.74    1.06
  -3   3   7   14.11    1.06
  -1  -2   7    8.89    0.92
   3  -1   7    9.32    0.80
  -2   3   7    9.33    0.80
  -1   3   7    1.75    0.39
   3  -2   7    1.97    0.38
  -2  -1   7    2.15    0.42
   3  -3   7    9.36    0.76
   0   3   7    8.44    0.79
   3  -4   7    3.72    0.52
   1   3   7    3.61    0.49
   2   3   7    3.83    0.50
  -5   2   7    3.60    0.46
   3  -6   7    3.01    0.53
   3   3   7    2.87    0.47
  -6   3   7    2.93    0.44
   4   3   7    2.55    0.46
   3  -7   7    2.51    0.54
  -7   4   7    3.23    0.48
   2  -6   7    0.37    0.41
  -6   4   7   -0.29    0.32
   4   2   7    0.67    0.37
   4   1   7    1.34    0.38
  -5   4   7    0.82    0.36
   1  -5   7    0.80    0.41
  -4   4   7    8.07    0.73
   4   0   7    7.62    0.75
   0  -4   7    7.43    0.84
  -3   4   7    1.78    0.40
  -1  -3   7    1.94    0.43
   4  -1   7    1.83    0.37
  -2   4   7    1.01    0.37
   4  -2   7    1.10    0.34
  -2  -2   7    0.73    0.36
   4  -3   7    4.50    0.48
  -1   4   7    3.68    0.50
  -3  -1   7    3.92    0.52
   0   4   7   22.99    1.66
   1   4   7    2.12    0.43
   2   4   7    2.87    0.46
   3   4   7    0.53    0.35
   4   4   7    1.19    0.41
   4  -9   7    0.93    0.49
   5   4   7    1.30    0.44
   5   3   7    4.87    0.59
   3  -8   7    4.63    0.68
   2  -7   7    0.40    0.43
  -7   5   7    1.03    0.38
   5   2   7    0.03    0.37
   5   1   7    2.95    0.47
   1  -6   7    4.22    0.58
  -6   5   7    3.62    0.49
  -5   5   7    2.12    0.42
   5   0   7    1.43    0.39
   0  -5   7    1.37    0.43
  -1  -4   7    1.16    0.41
  -4   5   7    1.26    0.38
   5  -1   7    1.02    0.36
   5  -2   7    0.21    0.31
  -2  -3   7    0.22    0.35
  -3   5   7    0.25    0.37
  -3  -2   7    3.56    0.52
  -2   5   7    3.71    0.51
   5  -3   7    4.21    0.48
  -5   4  -7    2.07    0.66
  -1   5   7    1.45    0.40
   5  -4   7    1.84    0.37
  -4  -1   7    1.47    0.38
   0   5   7    0.49    0.37
  -5   6  -7    1.04    0.50
   1   5   7    0.71    0.38
  -5   7  -7   -0.41    0.45
   2   5   7    0.21    0.37
  -5   8  -7    2.72    0.67
   3   5   7    3.90    0.53
  -5   9  -7    9.58    1.20
   4   5   7    8.33    0.86
  -5  10  -7    0.20    0.55
   5   5   7    0.66    0.41
  -5  11  -7    0.98    0.62
   6   5   7    1.76    0.46
   4 -10   7    0.14    0.48
   6   4   7   -0.35    0.37
   6   3   7    2.62    0.49
   3  -9   7    2.02    0.53
   6   2   7    4.68    0.55
  -8   6   7    4.46    0.55
   2  -8   7    3.62    0.61
   6   1   7    1.79    0.43
  -7   6   7    2.20    0.44
   1  -7   7    1.68    0.48
   6   0   7    6.09    0.62
   0  -6   7    5.75    0.70
  -6   6   7    5.83    0.64
  -1  -5   7    3.07    0.51
   6  -1   7    3.78    0.47
  -5   6   7    2.97    0.48
  -2  -4   7    0.57    0.37
   6  -2   7    0.21    0.32
  -4   6   7    0.24    0.35
   6  -3   7    2.48    0.41
  -3  -3   7    3.17    0.48
  -3   6   7    2.38    0.47
  -6   4  -7    2.33    0.69
   6  -4   7    3.08    0.43
  -4  -2   7    2.85    0.46
  -2   6   7    3.04    0.48
  -6   5  -7    1.13    0.62
  -5  -1   7    0.71    0.35
  -1   6   7    0.56    0.38
  -6   6  -7    1.75    0.69
   0   6   7    1.13    0.39
  -6   7  -7    6.52    1.03
  -6   7  -7    6.28    0.89
   1   6   7    6.01    0.65
  -6   8  -7    0.47    0.51
   2   6   7    0.70    0.41
  -6   9  -7    2.47    0.65
   3   6   7    1.15    0.44
  -6  10  -7    0.84    0.58
   4   6   7    0.29    0.41
  -6  11  -7    5.18    0.92
   5   6   7    5.99    0.68
  -6  12  -7    1.59    0.68
   6   6   7    1.32    0.48
  -6  13  -7    0.31    0.64
   7   6   7   -0.12    0.44
  -5  12  -7    1.04    0.64
   7   5   7    0.99    0.43
  -4  11  -7    2.45    0.72
   4 -11   7    1.53    0.58
   7   4   7    2.94    0.52
   7   3   7    4.56    0.59
   3 -10   7    3.40    0.64
   7   2   7    2.23    0.46
   2  -9   7    1.19    0.52
   7   1   7    0.30    0.37
  -8   7   7    0.03    0.38
   1  -8   7    0.29    0.43
   0  -7   7    4.42    0.65
  -7   7   7    5.62    0.61
   7   0   7    5.19    0.59
  -1  -6   7    2.34    0.50
   7  -1   7    2.21    0.44
  -6   7   7    2.03    0.45
  -2  -5   7    0.42    0.39
   7  -2   7    0.91    0.34
  -5   7   7    0.58    0.39
  -3  -4   7    3.57    0.50
   7  -3   7    2.57    0.44
  -4   7   7    2.89    0.47
  -4  -3   7    0.30    0.36
   7  -4   7    0.61    0.35
  -3   7   7    0.62    0.38
  -7   5  -7   -0.37    0.60
  -2   7   7    0.01    0.38
  -5  -2   7   -0.05    0.34
   7  -5   7    0.40    0.31
  -7   6  -7    5.74    1.01
  -6  -1   7    6.75    0.74
  -1   7   7    6.68    0.69
  -7   7  -7    0.06    0.62
  -7   0   7    0.32    0.37
   0   7   7    0.32    0.37
  -7   8  -7    0.30    0.69
  -7   8  -7    0.93    0.51
   1   7   7    1.22    0.43
  -7   9  -7    3.38    0.70
  -7   9  -7    4.26    0.88
   2   7   7    2.77    0.52
  -7  10  -7    0.55    0.54
  -7  10  -7   -0.12    0.73
   3   7   7    0.16    0.39
  -7  11  -7    0.80    0.58
  -7  11  -7    0.22    0.72
   4   7   7    0.44    0.40
  -7  12  -7    4.01    0.98
  -7  12  -7    3.16    0.74
   5   7   7    3.03    0.54
  -7  13  -7    2.00    0.69
  -7  13  -7    2.33    0.90
   6   7   7    1.74    0.50
  -7  14  -7    0.68    0.63
  -7  14  -7    0.30    0.78
   7   7   7    0.73    0.44
  -7  15  -7    0.94    0.84
  -7  15  -7    0.34    0.65
   8   7   7    0.57    0.47
  -6  14  -7    0.00    0.64
   8   6   7    0.27    0.43
  -5  13  -7    0.80    0.66
   8   5   7    1.02    0.47
  -4  12  -7   11.21    1.52
   4 -12   7   13.04    1.32
   8   4   7   13.23    1.11
   3 -11   7    0.61    0.53
   8   3   7    0.39    0.43
   8   2   7    0.21    0.40
   2 -10   7    0.62    0.47
   1  -9   7    3.53    0.59
   8   1   7    3.23    0.53
   8   0   7   10.91    0.95
   0  -8   7   11.33    1.10
  -8   8   7   10.63    0.95
  -7   8   7   -0.05    0.38
   8  -1   7    0.07    0.35
  -1  -7   7   -0.03    0.42
   8  -2   7    4.74    0.55
  -6   8   7    4.76    0.59
  -2  -6   7    4.43    0.62
  -5   8   7    4.38    0.61
  -3  -5   7    5.57    0.65
   8  -3   7    5.82    0.60
  -4   8   7    0.87    0.41
  -4  -4   7    1.12    0.41
   8  -4   7    1.17    0.38
  -8   5  -7    2.60    0.77
  -3   8   7    3.36    0.52
  -5  -3   7    3.72    0.53
   8  -5   7    3.79    0.48
  -8   6  -7    0.71    0.67
  -2   8   7    1.01    0.41
   8  -6   7    0.67    0.36
  -6  -2   7    0.81    0.39
  -8   7  -7    0.84    0.67
  -1   8   7    0.69    0.40
  -7  -1   7    0.55    0.38
  -8   8  -7   24.60    2.46
  -8   0   7   23.58    1.85
   0   8   7   19.87    1.66
  -8   9  -7    1.50    0.57
  -8   9  -7    0.68    0.69
   1   8   7    2.73    0.50
  -8  10  -7    0.51    0.53
  -8  10  -7    0.76    0.72
   2   8   7    0.69    0.43
  -8  11  -7    1.28    0.78
  -8  11  -7    0.93    0.58
   3   8   7    0.50    0.45
  -8  12  -7   14.69    1.73
  -8  12  -7   14.54    1.91
   4   8   7   17.50    1.29
  -8  13  -7    2.17    0.86
  -8  13  -7    0.90    0.64
   5   8   7    1.34    0.48
  -8  14  -7    1.25    0.66
  -8  14  -7    0.36    0.74
   6   8   7   -0.05    0.44
  -8  15  -7    0.90    0.65
  -8  15  -7    1.58    0.83
   7   8   7    0.58    0.46
  -8  16  -7    0.60    0.64
  -8  16  -7    1.15    0.82
   8   8   7    1.08    0.47
  -7  16  -7    2.55    0.93
  -7  16  -7    2.74    0.81
   9   7   7    3.53    0.58
  -6  15  -7    0.20    0.64
   9   6   7    0.90    0.46
  -5  14  -7    2.27    0.78
   9   5   7    1.81    0.51
  -4  13  -7    1.76    0.71
   9   4   7    0.80    0.47
   4 -13   7    1.08    0.59
   9   3   7    0.43    0.44
   3 -12   7    0.36    0.54
   2 -11   7    3.73    0.68
   9   2   7    3.77    0.54
   1 -10   7    1.19    0.50
   9   1   7    0.38    0.43
   9   0   7    0.57    0.42
   0  -9   7    0.25    0.44
  -1  -8   7    3.75    0.60
   9  -1   7    3.42    0.51
  -8   9   7    3.18    0.55
  -2  -7   7    2.04    0.50
  -7   9   7    2.10    0.47
   9  -2   7    1.62    0.45
  -6   9   7    3.16    0.52
   9  -3   7    2.76    0.50
  -3  -6   7    3.29    0.54
  -4  -5   7    1.50    0.45
  -5   9   7    1.76    0.46
   9  -4   7    1.92    0.43
   9  -5   7    9.08    0.82
  -5  -4   7    7.89    0.93
  -4   9   7    8.80    0.85
  -9   6  -7    2.47    0.74
  -3   9   7    0.94    0.43
  -6  -3   7    1.31    0.44
   9  -6   7    1.89    0.41
  -9   7  -7    3.80    0.84
  -2   9   7    2.04    0.50
  -7  -2   7    2.94    0.51
  -9   8  -7    1.36    0.76
  -1   9   7    1.69    0.48
  -8  -1   7    1.91    0.48
  -9   9  -7    4.65    1.01
   0   9   7    5.22    0.65
  -9   0   7    5.82    0.67
  -9  10  -7    0.09    0.72
  -9  10  -7    0.22    0.50
   1   9   7    0.23    0.39
  -9  11  -7    1.16    0.56
  -9  11  -7    0.05    0.74
   2   9   7    0.96    0.45
  -9  12  -7    1.27    0.78
  -9  12  -7    2.07    0.65
   3   9   7    1.85    0.47
  -9  13  -7    0.54    0.75
  -9  13  -7    1.60    0.63
   4   9   7    0.33    0.45
  -9  14  -7    2.15    0.89
  -9  14  -7    2.55    0.71
   5   9   7    2.17    0.52
  -9  15  -7    1.37    0.79
  -9  15  -7    0.61    0.62
   6   9   7    0.29    0.45
  -9  16  -7    0.43    0.63
  -9  16  -7    0.79    0.81
   7   9   7    1.10    0.47
  -6  16  -7    2.54    0.77
  -6  16  -7    2.44    0.90
  10   6   7    1.82    0.50
  -5  15  -7    0.04    0.65
  10   5   7    0.33    0.45
  -4  14  -7   -0.05    0.63
   4 -14   7   -0.80    0.53
  10   4   7   -0.05    0.43
  -3  13  -7    1.90    0.73
   3 -13   7    1.26    0.60
  10   3   7    1.30    0.45
  10   2   7    1.17    0.46
   2 -12   7    0.37    0.54
  10   1   7   -0.27    0.43
   1 -11   7   -0.03    0.46
   0 -10   7    1.99    0.58
  10   0   7    2.03    0.49
  10  -1   7    0.25    0.40
  -1  -9   7    0.70    0.49
  -2  -8   7    0.43    0.43
  10  -2   7    0.00    0.42
  -8  10   7    0.32    0.44
  -7  10   7    3.37    0.57
  -3  -7   7    3.94    0.61
  10  -3   7    4.39    0.58
  -6  10   7    0.17    0.42
  -4  -6   7   -0.01    0.41
  10  -4   7    0.71    0.42
  10  -5   7    0.45    0.40
  -5  -5   7    0.09    0.41
  -5  10   7   -0.41    0.41
 -10   6  -7    0.75    0.65
  -4  10   7   -0.11    0.42
  10  -6   7    0.32    0.38
  -6  -4   7    0.06    0.40
 -10   7  -7    0.11    0.67
  -3  10   7    0.21    0.42
  -7  -3   7    0.17    0.41
  10  -7   7    0.13    0.36
 -10   8  -7    0.83    0.72
  -8  -2   7    0.64    0.45
  -2  10   7    1.14    0.47
 -10   9  -7   -0.09    0.70
  -9  -1   7    0.49    0.45
  -1  10   7    0.95    0.44
 -10  10  -7    1.46    0.81
 -10   0   7    1.96    0.47
   0  10   7    0.83    0.44
 -10  11  -7    0.41    0.53
 -10  11  -7    0.87    0.78
   1  10   7    0.19    0.43
 -10  12  -7    2.94    0.71
 -10  12  -7    2.93    0.94
   2  10   7    3.32    0.55
 -10  13  -7    1.15    0.83
 -10  13  -7    0.80    0.58
   3  10   7    0.51    0.45
 -10  14  -7   -0.46    0.55
 -10  14  -7    0.44    0.83
   4  10   7    0.33    0.45
 -10  15  -7    2.63    0.73
 -10  15  -7    2.83    0.94
   5  10   7    1.93    0.52
 -10  16  -7    0.01    0.81
 -10  16  -7    0.63    0.62
   6  10   7    0.95    0.46
  -5  16  -7    0.84    0.70
  11   5   7    0.37    0.45
  -4  15  -7    3.36    0.86
  11   4   7    3.02    0.57
   4 -15   7    3.52    0.73
  -3  14  -7    0.42    0.67
   3 -14   7    0.54    0.59
  11   3   7    0.74    0.46
   2 -13   7    0.80    0.54
  11   2   7   -0.08    0.45
   1 -12   7    0.36    0.51
  11   1   7    1.11    0.44
   0 -11   7    1.70    0.59
  11   0   7    1.95    0.50
  -1 -10   7   -0.02    0.46
  11  -1   7   -0.07    0.45
  -2  -9   7    3.59    0.64
  11  -2   7    3.88    0.60
  11  -3   7    0.02    0.43
  -3  -8   7    0.10    0.45
  -8  11   7    0.08    0.44
  -4  -7   7    2.35    0.54
  -7  11   7    2.33    0.49
  11  -4   7    2.62    0.52
  -6  11   7    1.20    0.45
  11  -5   7    1.82    0.49
  -5  -6   7    1.67    0.50
 -11   6  -7    5.48    0.98
  -5  11   7    5.47    0.68
  11  -6   7    7.11    0.68
  -6  -5   7    5.65    0.73
 -11   7  -7    0.87    0.69
  -4  11   7    0.29    0.41
  11  -7   7    0.65    0.42
  -7  -4   7    0.35    0.42
 -11   8  -7    1.14    0.72
  11  -8   7    0.91    0.39
  -3  11   7    0.10    0.40
  -8  -3   7    0.30    0.43
 -11   9  -7    0.20    0.72
  -2  11   7    1.41    0.48
  -9  -2   7    0.22    0.43
 -11  10  -7    0.53    0.73
  -1  11   7    0.87    0.48
 -10  -1   7    0.13    0.45
 -11  11  -7    1.03    0.79
   0  11   7    0.24    0.43
 -11   0   7   -0.02    0.45
 -11  12  -7    2.57    0.67
 -11  12  -7    2.36    0.85
   1  11   7    1.63    0.51
 -11  13  -7    0.59    0.75
 -11  13  -7    0.00    0.54
   2  11   7    0.80    0.46
 -11  14  -7    0.25    0.82
 -11  14  -7    0.23    0.56
   3  11   7    0.67    0.45
 -11  15  -7    0.72    0.85
 -11  15  -7    0.87    0.61
   4  11   7    0.96    0.46
 -11  16  -7    0.04    0.59
 -11  16  -7    0.39    0.83
   5  11   7    0.47    0.44
  -4  16  -7    4.31    0.95
  12   4   7    4.59    0.63
  -3  15  -7    1.93    0.74
  12   3   7   -0.25    0.43
   3 -15   7    0.76    0.60
  -2  14  -7    1.05    0.72
   2 -14   7    2.34    0.67
  12   2   7    2.20    0.52
   1 -13   7    2.12    0.65
  12   1   7    3.25    0.56
  12   0   7    2.62    0.55
   0 -12   7    2.03    0.61
  12  -1   7    0.63    0.49
  -1 -11   7    1.22    0.56
  -2 -10   7    0.70    0.53
  12  -2   7    1.40    0.50
  12  -3   7    0.15    0.46
  -3  -9   7    0.54    0.49
  12  -4   7   12.23    1.15
  -8  12   7   13.57    1.16
  -4  -8   7   14.30    1.30
  12  -5   7    1.30    0.47
  -5  -7   7    1.14    0.49
  -7  12   7    1.02    0.48
  12  -6   7    1.22    0.48
  -6  -6   7    0.78    0.48
  -6  12   7    0.87    0.47
 -12   7  -7    2.93    0.79
  12  -7   7    2.13    0.52
  -7  -5   7    3.04    0.56
  -5  12   7    2.41    0.53
 -12   8  -7   16.63    1.93
  -4  12   7   16.05    1.34
  -8  -4   7   17.04    1.50
 -12   9  -7    2.24    0.83
  -9  -3   7    2.12    0.52
  -3  12   7    1.52    0.50
 -12  10  -7    3.15    0.85
 -10  -2   7    2.84    0.56
  -2  12   7    2.77    0.55
 -12  11  -7    3.41    0.90
  -1  12   7    1.81    0.52
 -11  -1   7    2.71    0.56
 -12  12  -7    1.11    0.82
   0  12   7    0.30    0.47
 -12   0   7    0.14    0.44
 -12  13  -7    1.72    0.62
 -12  13  -7    1.71    0.82
   1  12   7    2.10    0.52
 -12  14  -7    3.03    0.72
 -12  14  -7    2.72    0.93
   2  12   7    2.32    0.53
 -12  15  -7    0.32    0.58
 -12  15  -7   -0.17    0.80
   3  12   7    0.61    0.45
 -12  16  -7   11.43    1.58
   4  12   7   10.70    1.01
  -2  15  -7    1.86    0.79
   2 -15   7    2.04    0.68
  13   2   7    2.91    0.54
   1 -14   7    0.97    0.60
  13   1   7    0.57    0.47
  13   0   7    2.77    0.57
   0 -13   7    2.66    0.66
  13  -1   7    2.90    0.59
  -1 -12   7    2.93    0.66
  -2 -11   7    0.00    0.52
  13  -2   7    0.85    0.50
  13  -3   7    1.53    0.53
  -3 -10   7    1.41    0.56
  13  -4   7    0.91    0.50
  -4  -9   7    0.98    0.49
  13  -5   7    2.14    0.53
  -8  13   7    1.49    0.51
  -5  -8   7    1.52    0.50
  -7  13   7   -0.01    0.46
  -6  -7   7    0.05    0.47
  13  -6   7    0.54    0.46
 -13   7  -7    2.01    0.77
  13  -7   7    1.39    0.50
  -6  13   7    1.65    0.48
  -7  -6   7    1.16    0.51
 -13   8  -7    1.91    0.81
  13  -8   7    2.66    0.50
  -5  13   7    1.29    0.48
  -8  -5   7    2.02    0.54
 -13   9  -7    0.60    0.69
  -9  -4   7    0.19    0.45
  13  -9   7    0.60    0.42
  -4  13   7   -0.55    0.43
 -13  10  -7    1.19    0.76
  -3  13   7    0.13    0.43
 -10  -3   7    0.35    0.47
 -13  11  -7    0.69    0.79
 -11  -2   7    1.26    0.48
  -2  13   7    0.27    0.44
 -13  12  -7    1.78    0.86
 -12  -1   7    2.64    0.55
  -1  13   7    2.22    0.53
 -13  13  -7    4.81    1.03
   0  13   7    4.55    0.63
 -13   0   7    3.98    0.65
 -13  14  -7   -0.20    0.52
 -13  14  -7    0.82    0.81
   1  13   7    0.47    0.46
 -13  15  -7    0.33    0.80
 -13  15  -7    0.36    0.55
   2  13   7    1.36    0.49
  -1  15  -7    1.62    0.76
  14   1   7    0.75    0.50
   1 -15   7    0.89    0.62
  14   0   7    1.49    0.52
   0 -14   7    2.08    0.64
  -1 -13   7    1.00    0.59
  14  -1   7    0.20    0.49
  -2 -12   7    2.18    0.60
  14  -2   7    1.61    0.55
  -3 -11   7    0.46    0.51
  14  -3   7    0.24    0.49
  14  -4   7   -0.31    0.47
  -4 -10   7   -0.15    0.49
  14  -5   7    2.82    0.57
  -5  -9   7    2.04    0.58
  -6  -8   7    0.73    0.50
  14  -6   7   -0.03    0.47
  -8  14   7   -0.14    0.42
  -7  14   7    1.02    0.50
  -7  -7   7    0.85    0.51
  14  -7   7    0.29    0.47
 -14   8  -7    1.36    0.76
  -6  14   7    0.84    0.48
  14  -8   7    0.94    0.49
  -8  -6   7    0.45    0.49
 -14   9  -7    2.91    0.85
  14  -9   7    2.11    0.50
  -5  14   7    1.98    0.53
  -9  -5   7    2.70    0.57
 -14  10  -7    0.48    0.74
  -4  14   7   -0.01    0.45
 -10  -4   7   -0.31    0.49
 -14  11  -7    0.19    0.76
 -11  -3   7   -0.09    0.45
  -3  14   7    0.89    0.47
 -14  12  -7    2.64    0.86
  -2  14   7    2.82    0.55
 -12  -2   7    2.46    0.59
 -14  13  -7    0.08    0.76
  -1  14   7   -0.03    0.44
 -13  -1   7    0.44    0.49
 -14  14  -7    0.90    0.85
   0  14   7    2.43    0.52
 -14   0   7    2.31    0.55
 -14  15  -7    1.22    0.59
 -14  15  -7    1.06    0.83
   1  14   7    0.45    0.45
  15  -1   7    0.87    0.50
  -1 -14   7    0.56    0.58
  -2 -13   7    3.71    0.70
  15  -2   7    3.21    0.64
  -3 -12   7    0.95    0.56
  15  -3   7    0.69    0.52
  -4 -11   7    3.29    0.66
  15  -4   7    3.11    0.62
  -5 -10   7   -0.14    0.50
  15  -5   7    0.70    0.51
  -6  -9   7    0.75    0.53
  15  -6   7    0.94    0.51
  -7  -8   7    0.65    0.53
  15  -7   7    0.92    0.49
  15  -8   7    0.16    0.45
  -7  15   7    0.38    0.48
  -8  -7   7    0.43    0.50
 -15   9  -7    0.65    0.72
  15  -9   7    0.27    0.47
  -6  15   7   -0.35    0.46
  -9  -6   7    0.47    0.51
 -15  10  -7    3.31    0.89
 -10  -5   7    2.41    0.59
  15 -10   7    1.97    0.53
  -5  15   7    2.20    0.54
 -15  11  -7    0.36    0.76
  -4  15   7    0.71    0.47
 -11  -4   7    0.67    0.52
 -15  12  -7    0.19    0.77
 -12  -3   7    0.24    0.47
  -3  15   7    0.72    0.47
 -15  13  -7    1.23    0.81
 -13  -2   7    0.99    0.52
  -2  15   7    0.49    0.46
 -15  14  -7    1.37    0.80
  -1  15   7    0.47    0.47
 -14  -1   7    0.95    0.51
  -4 -12   7    3.95    0.72
  16  -4   7    4.62    0.67
  -5 -11   7    0.62    0.54
  16  -5   7    0.00    0.51
  16  -6   7    2.26    0.61
  -6 -10   7    3.01    0.63
  -7  -9   7    2.83    0.63
  16  -7   7    2.34    0.59
  16  -8   7    0.48    0.48
  -8  -8   7    1.05    0.54
 -16   9  -7    0.87    0.78
  -9  -7   7    1.28    0.54
  -7  16   7    1.29    0.51
  16  -9   7    1.33    0.52
 -16  10  -7   -0.18    0.77
  -6  16   7    0.38    0.49
 -10  -6   7    0.25    0.51
  16 -10   7    0.42    0.47
 -16  11  -7    0.40    0.75
  -5  16   7    1.42    0.53
 -11  -5   7    0.60    0.50
 -16  12  -7   11.74    1.43
  -4  16   7    8.15    0.91
 -12  -4   7   10.10    1.08
  -1   1   8    0.25    0.35
   1   0   8    0.42    0.35
   0   1   8    2.17    0.44
   1   1   8    0.76    0.38
  -3   2   8   -0.04    0.34
   2   1   8    0.69    0.38
  -2   2   8    1.84    0.42
   2   0   8    1.98    0.42
  -1   2   8    0.81    0.37
   2  -1   8    0.45    0.35
   0   2   8    0.57    0.37
   1   2   8    0.51    0.38
   2   2   8    1.94    0.44
   3   2   8    2.27    0.47
  -4   3   8    0.45    0.39
   3   1   8    0.54    0.41
  -3   3   8    6.57    0.67
   0  -3   8    6.20    0.75
   3   0   8    6.99    0.69
  -2   3   8   -0.05    0.37
   3  -1   8   -0.07    0.37
  -1   3   8    0.14    0.37
   0   3   8    4.72    0.58
   1   3   8    0.24    0.39
   2   3   8    3.54    0.53
   3   3   8    2.65    0.50
   4   3   8    0.80    0.40
  -6   4   8    4.78    0.59
   4   2   8    3.92    0.56
   4   1   8    1.50    0.43
  -5   4   8    1.19    0.44
   1  -5   8    1.04    0.47
  -4   4   8    6.55    0.68
   4   0   8    6.57    0.68
   0  -4   8    6.60    0.78
  -3   4   8   -0.26    0.37
  -1  -3   8    0.53    0.41
   4  -1   8    0.57    0.39
   4  -2   8    1.32    0.39
  -2   4   8    1.81    0.44
  -1   4   8    0.84    0.40
   0   4   8   11.73    0.99
   1   4   8    1.95    0.46
   2   4   8    0.14    0.41
   3   4   8    4.42    0.60
  -4   8  -8   23.19    2.25
   4   4   8   20.41    1.62
  -4   9  -8    0.45    0.59
   5   4   8    0.49    0.43
   5   3   8    1.25    0.46
   5   2   8    0.80    0.44
  -7   5   8    0.75    0.41
   2  -7   8    1.05    0.50
   5   1   8    2.17    0.47
   1  -6   8    2.38    0.54
  -6   5   8    1.75    0.45
  -5   5   8    4.50    0.57
   5   0   8    4.03    0.56
   0  -5   8    4.41    0.65
  -1  -4   8    1.04    0.46
   5  -1   8    1.18    0.40
  -4   5   8    1.40    0.45
  -2  -3   8    2.11    0.51
   5  -2   8    2.55    0.44
  -3   5   8    1.33    0.46
   5  -3   8    2.81    0.47
  -2   5   8    3.26    0.53
  -1   5   8    1.43    0.44
   0   5   8    1.98    0.47
  -5   6  -8    2.60    0.80
   1   5   8    2.37    0.47
  -5   7  -8    1.46    0.77
   2   5   8    1.22    0.46
  -5   8  -8   -0.14    0.53
   3   5   8   -0.11    0.39
  -5   9  -8    2.55    0.68
   4   5   8    1.15    0.49
  -5  10  -8    1.36    0.64
   5   5   8    0.76    0.47
  -5  11  -8    0.82    0.64
   6   5   8    0.96    0.48
  -4  10  -8    3.46    0.80
   6   4   8    3.76    0.59
   6   3   8    2.59    0.52
   6   2   8    0.07    0.42
   2  -8   8    0.29    0.50
   1  -7   8    0.87    0.49
  -7   6   8    0.68    0.42
   6   1   8    0.98    0.45
   0  -6   8    4.38    0.67
   6   0   8    4.54    0.61
  -6   6   8    4.16    0.57
  -5   6   8    1.71    0.46
  -1  -5   8    1.44    0.51
   6  -1   8    2.34    0.47
  -4   6   8    3.48    0.54
   6  -2   8    4.00    0.56
  -2  -4   8    3.68    0.61
   6  -3   8    2.29    0.45
  -3  -3   8    2.06    0.50
  -3   6   8    2.20    0.49
  -2   6   8    0.76    0.43
  -1   6   8    2.20    0.48
  -6   6  -8    2.76    0.84
   0   6   8    5.05    0.60
  -6   7  -8    0.24    0.70
   1   6   8    0.08    0.42
  -6   8  -8    0.07    0.71
   2   6   8    0.90    0.46
  -6   9  -8    3.72    0.93
  -6   9  -8    3.61    0.75
   3   6   8    3.91    0.59
  -6  10  -8    0.22    0.56
  -6  10  -8    0.02    0.76
   4   6   8    0.13    0.45
  -6  11  -8    0.10    0.79
  -6  11  -8    0.70    0.59
   5   6   8    1.53    0.48
  -6  12  -8   -0.16    0.80
  -6  12  -8    1.09    0.62
   6   6   8    0.27    0.47
  -6  13  -8    0.49    0.61
  -6  13  -8    0.88    0.84
   7   6   8    0.95    0.49
  -5  12  -8    1.90    0.71
   7   5   8    1.18    0.52
  -4  11  -8    1.81    0.71
   7   4   8    2.75    0.54
  -3  10  -8    0.26    0.61
   7   3   8   -0.18    0.44
   2  -9   8    1.02    0.51
   7   2   8    1.08    0.47
   7   1   8   -0.22    0.43
   1  -8   8    0.09    0.48
  -7   7   8    0.02    0.43
   0  -7   8    0.38    0.48
   7   0   8    0.58    0.44
  -6   7   8    1.36    0.44
   7  -1   8    1.28    0.45
  -1  -6   8    1.09    0.50
  -5   7   8    0.57    0.43
  -2  -5   8    0.47    0.45
   7  -2   8    0.71    0.42
  -3  -4   8    0.92    0.45
  -4   7   8   -0.02    0.41
   7  -3   8    0.86    0.41
  -3   7   8    5.21    0.66
   7  -4   8    6.62    0.66
  -4  -3   8    5.13    0.72
  -2   7   8    1.38    0.45
  -1   7   8    0.42    0.43
  -7   7  -8    2.22    0.78
   0   7   8    1.32    0.48
  -7   8  -8    2.55    0.82
   1   7   8    2.35    0.52
  -7   9  -8    2.33    0.84
   2   7   8    2.50    0.52
  -7  10  -8    0.56    0.57
  -7  10  -8    0.25    0.73
   3   7   8    0.00    0.41
  -7  11  -8    0.18    0.76
  -7  11  -8    0.58    0.60
   4   7   8    0.83    0.48
  -7  12  -8    1.20    0.80
  -7  12  -8    0.55    0.60
   5   7   8    1.13    0.50
  -7  13  -8    1.41    0.68
  -7  13  -8    0.69    0.80
   6   7   8    1.32    0.50
  -5  13  -8    0.37    0.64
   8   5   8   -0.19    0.49
  -4  12  -8    4.07    0.88
   8   4   8    4.31    0.63
  -3  11  -8   -0.20    0.60
   8   3   8   -0.05    0.46
   8   2   8    2.00    0.53
   2 -10   8    1.78    0.59
   8   1   8    2.64    0.55
   1  -9   8    2.79    0.60
   8   0   8    4.01    0.59
   0  -8   8    3.29    0.64
  -7   8   8    0.21    0.43
  -1  -7   8   -0.03    0.47
   8  -1   8    0.36    0.43
  -6   8   8    0.36    0.42
   8  -2   8    0.65    0.45
  -2  -6   8    0.26    0.45
  -3  -5   8    1.43    0.51
  -5   8   8    2.08    0.49
   8  -3   8    1.73    0.47
  -4   8   8   20.24    1.58
  -4  -4   8   21.66    1.79
  -5  -3   8    0.21    0.43
  -3   8   8    0.74    0.44
  -2   8   8    1.54    0.48
  -8   7  -8    2.61    0.84
  -1   8   8    3.02    0.56
  -8   8  -8    1.56    0.78
   0   8   8    1.05    0.47
  -8   9  -8    1.36    0.84
   1   8   8    1.42    0.49
  -8  10  -8    0.11    0.74
   2   8   8    0.24    0.44
  -8  11  -8    2.01    0.64
  -8  11  -8    1.53    0.82
   3   8   8    1.37    0.49
  -8  12  -8    3.04    0.93
  -8  12  -8    2.82    0.73
   4   8   8    3.58    0.59
  -8  13  -8    1.07    0.82
  -8  13  -8    0.18    0.59
   5   8   8    1.10    0.49
  -4  13  -8    1.80    0.74
   9   4   8    1.49    0.52
  -3  12  -8    0.61    0.68
   9   3   8    0.48    0.48
   2 -11   8    0.43    0.54
   9   2   8   -0.24    0.46
   1 -10   8    1.16    0.59
   9   1   8    1.19    0.50
   9   0   8    8.73    0.87
   0  -9   8    8.29    0.98
  -8   9   8    2.55    0.53
  -1  -8   8    3.03    0.62
   9  -1   8    3.61    0.57
   9  -2   8    1.34    0.47
  -2  -7   8    1.17    0.53
  -7   9   8    1.30    0.49
  -6   9   8    2.01    0.51
  -3  -6   8    2.54    0.60
   9  -3   8    3.70    0.53
  -4  -5   8    0.64    0.47
  -5   9   8   -0.09    0.43
   9  -4   8   -0.07    0.40
  -4   9   8    1.59    0.48
   9  -5   8    1.28    0.45
  -5  -4   8    0.86    0.51
  -6  -3   8    4.13    0.63
  -3   9   8    3.89    0.60
  -2   9   8    3.99    0.60
  -9   8  -8    1.74    0.79
  -1   9   8    1.08    0.49
  -9   9  -8    1.01    0.80
   0   9   8   -0.06    0.45
  -9  10  -8    0.40    0.78
   1   9   8   -0.17    0.44
  -9  11  -8    5.27    1.06
   2   9   8    3.88    0.62
  -9  12  -8    1.59    0.64
  -9  12  -8    2.05    0.88
   3   9   8    1.48    0.51
  -9  13  -8    1.67    0.89
  -9  13  -8    1.62    0.65
   4   9   8    1.91    0.52
  -3  13  -8    0.77    0.68
  10   3   8    1.12    0.51
  -2  12  -8    0.59    0.67
   2 -12   8    0.81    0.58
  10   2   8    0.49    0.52
  10   1   8    0.25    0.49
   1 -11   8    1.43    0.60
   0 -10   8    0.73    0.56
  10   0   8    0.01    0.47
  -1  -9   8    1.74    0.57
  10  -1   8    1.30    0.50
  -2  -8   8    2.12    0.59
  -8  10   8    2.66    0.53
  10  -2   8    1.78    0.50
  -3  -7   8    0.31    0.50
  10  -3   8    0.28    0.45
  -7  10   8   -0.04    0.44
  -6  10   8    3.54    0.57
  -4  -6   8    3.70    0.64
  10  -4   8    3.21    0.54
  10  -5   8    1.04    0.45
  -5  -5   8    1.32    0.51
  -5  10   8    0.94    0.47
  10  -6   8    0.58    0.39
  -6  -4   8    0.78    0.47
  -4  10   8    0.25    0.44
  -3  10   8    0.21    0.45
  -7  -3   8    0.05    0.46
 -10   8  -8   -0.31    0.68
  -2  10   8   -0.16    0.44
 -10   9  -8    0.70    0.74
  -1  10   8    0.42    0.48
 -10  10  -8   -0.24    0.72
   0  10   8    0.59    0.49
 -10  11  -8    0.85    0.81
   1  10   8    0.54    0.48
 -10  12  -8   -0.49    0.74
   2  10   8   -0.10    0.46
 -10  13  -8    1.04    0.61
 -10  13  -8    2.23    0.88
   3  10   8    1.65    0.52
  11   1   8    1.61    0.53
   1 -12   8    0.84    0.60
  11   0   8    3.53    0.64
   0 -11   8    4.92    0.77
  -1 -10   8    0.93    0.56
  11  -1   8    0.95    0.49
  11  -2   8    0.35    0.45
  -2  -9   8   -0.41    0.50
  11  -3   8    0.57    0.47
  -3  -8   8   -0.04    0.52
  -8  11   8   -0.10    0.44
  -4  -7   8    1.81    0.58
  -7  11   8    2.57    0.55
  11  -4   8    2.86    0.54
  -6  11   8    1.04    0.47
  -5  -6   8    1.43    0.53
  11  -5   8    1.38    0.47
  11  -6   8    0.92    0.44
  -6  -5   8    0.71    0.49
  -5  11   8    0.79    0.47
  -4  11   8    0.57    0.46
  -7  -4   8    0.85    0.48
  -3  11   8    1.43    0.50
  -8  -3   8    1.98    0.52
 -11   9  -8    4.30    1.00
  -9  -2   8    4.55    0.68
  -2  11   8    4.73    0.66
 -11  10  -8   -0.26    0.72
  -1  11   8   -0.16    0.47
 -11  11  -8    1.16    0.84
   0  11   8    0.07    0.46
 -11  12  -8    4.40    1.03
   1  11   8    4.53    0.66
   0 -12   8   13.48    1.42
  12   0   8   14.14    1.22
  -1 -11   8    0.95    0.62
  12  -1   8    1.75    0.54
  12  -2   8    0.51    0.50
  -2 -10   8    0.45    0.56
  -3  -9   8    0.93    0.55
  12  -3   8    0.60    0.48
  -4  -8   8    4.60    0.73
  12  -4   8    4.65    0.67
  12  -5   8    1.56    0.50
  -7  12   8    2.06    0.53
  -5  -7   8    1.09    0.54
  -6  -6   8   -0.49    0.46
  12  -6   8    0.40    0.43
  -6  12   8    0.31    0.46
  -5  12   8    0.80    0.47
  12  -7   8    0.90    0.44
  -7  -5   8    0.65    0.49
  -8  -4   8    3.23    0.61
  -4  12   8    3.38    0.58
 -12   9  -8    1.87    0.79
  -9  -3   8    1.82    0.56
  -3  12   8    1.87    0.51
 -12  10  -8    0.44    0.75
  -2  12   8    0.40    0.47
 -10  -2   8    0.26    0.46
 -12  11  -8    3.55    0.96
  -1  12   8    4.04    0.62
   0  12   8    5.01    0.69
  -3 -10   8    1.35    0.59
  13  -3   8    0.97    0.52
  13  -4   8    2.17    0.53
  -4  -9   8    0.99    0.60
  -5  -8   8   -0.22    0.50
  13  -5   8   -0.22    0.48
  13  -6   8    0.02    0.45
  -7  13   8    0.19    0.47
  -6  -7   8    0.55    0.51
  13  -7   8    1.27    0.49
  -6  13   8    1.25    0.50
  -7  -6   8    1.43    0.54
  -5  13   8    0.58    0.48
  -8  -5   8    0.54    0.49
  -9  -4   8    1.77    0.55
  -4  13   8    1.78    0.51
 -13  10  -8    2.27    0.80
  -3  13   8    1.60    0.52
 -10  -3   8    1.71    0.55
   1   1   9   -0.04    0.40
   2   1   9    4.44    0.59
   0   2   9    2.09    0.48
   1   2   9    0.49    0.40
   2   2   9    1.60    0.47
   3   2   9    1.43    0.46
   3   1   9    2.29    0.49
   3   0   9    2.83    0.50
  -2   3   9    4.36    0.59
  -1   3   9    1.16    0.43
   0   3   9    1.66    0.49
   1   3   9    1.35    0.46
   2   3   9    4.29    0.59
   3   3   9    0.68    0.46
   4   3   9    0.21    0.43
   4   2   9    0.81    0.44
   4   1   9    1.19    0.44
   4   0   9    7.62    0.77
  -3   4   9    2.21    0.49
  -2   4   9    1.14    0.46
  -1   4   9    1.00    0.43
   0   4   9   15.58    1.26
   1   4   9    0.56    0.42
   2   4   9    1.99    0.50
   3   4   9    0.06    0.42
  -4   8  -9    0.22    0.77
   4   4   9    0.41    0.46
  -4   9  -9   -0.03    0.79
   5   4   9   -0.10    0.46
   5   3   9    1.87    0.49
   5   2   9    0.51    0.44
   5   1   9    2.73    0.54
   5   0   9    0.22    0.43
  -5   5   9    0.16    0.44
   5  -1   9    1.05    0.42
  -4   5   9    0.65    0.44
  -3   5   9    1.67    0.46
  -2   5   9    3.88    0.59
  -1   5   9    0.25    0.42
   0   5   9    0.68    0.45
   1   5   9    1.23    0.46
   2   5   9    0.57    0.44
  -5   8  -9   -0.66    0.70
   3   5   9    0.48    0.44
  -5   9  -9    2.26    0.77
   4   5   9    0.57    0.46
  -3   9  -9    2.00    0.66
   6   3   9    1.04    0.50
  -2   8  -9    2.65    0.73
   6   2   9    2.61    0.55
   6   1   9    0.24    0.46
  -6   6   9    1.83    0.47
   6   0   9    1.38    0.47
  -5   6   9    3.81    0.55
   6  -1   9    3.02    0.55
  -4   6   9    0.54    0.44
   6  -2   9    0.45    0.43
  -3   6   9    0.42    0.42
  -2   6   9    2.31    0.53
  -1   6   9    0.65    0.47
   0   6   9   -0.09    0.46
   1   6   9    0.99    0.48
   2   6   9    0.59    0.46
  -6   9  -9    0.69    0.72
   3   6   9    0.06    0.47
   7   1   9    0.72    0.48
   7   0   9    0.69    0.46
  -1  -6   9    0.29    0.51
   7  -1   9    0.57    0.44
  -6   7   9    0.47    0.46
  -5   7   9   -0.01    0.44
   7  -2   9    0.87    0.42
  -4   7   9    0.36    0.43
  -3   7   9   -0.35    0.40
  -2   7   9    0.37    0.46
  -1   7   9    2.16    0.51
   0   7   9    1.33    0.49
   1   7   9    0.44    0.48
   8   0   9    4.56    0.62
  -1  -7   9    0.73    0.53
   8  -1   9    0.77    0.45
   8  -2   9    2.41    0.50
  -2  -6   9    2.69    0.63
  -6   8   9    2.51    0.55
   8  -3   9    1.46    0.46
  -5   8   9    1.28    0.46
  -4   8   9   -0.30    0.44
  -3   8   9    0.70    0.46
  -2   8   9    0.43    0.45
  -1   8   9   -0.14    0.44
   0   8   9    5.29    0.67
  -3  -6   9    1.88    0.58
   9  -3   9    1.13    0.47
  -6   9   9    0.87    0.49
  -5   9   9    0.61    0.47
  -4   9   9    1.21    0.49
  -3   9   9    0.41    0.46
   0   0   0    0.00    0.00
;
loop_
_space_group_symop_operation_xyz
'x, y, z'
'-y, x-y, z'
'-x+y, -x, z'
'-x+y, y, z'
'x, x-y, z'
'-y, -x, z'
loop_
_atom_site_label
_atom_site_fract_x
_atom_site_fract_y
_atom_site_fract_z
_atom_site_U_iso_or_equiv
_atom_site_adp_type
_atom_site_calc_flag
_atom_site_occupancy
_atom_site_type_symbol
Sr1 0.44564(2) 0.89128(3) 0.67594(10) 0.01576(7) Uani d 0.9574 Sr
Eu1 0.44564(2) 0.89128(3) 0.67594(10) 0.01576(7) Uani d 0.0426 Eu
Sr2 0 1 0.3339(19) 0.0226(13) Uani d 0.0915 Sr
Eu2 0 1 0.3339(19) 0.0226(13) Uani d 0.0041 Eu
Sr3 0 1 0.2009(6) 0.0770(10) Uani d 0.4697 Sr
Eu3 0 1 0.2009(6) 0.0770(10) Uani d 0.0209 Eu
Li1 0.6667 0.3333 0.162(3) 0.017(2) Uani d 1 Li
Si1 0.41041(6) 0.07993(6) 0.19192(13) 0.00449(9) Uani d 0.7196 Si
Al1 0.41041(6) 0.07993(6) 0.19192(13) 0.00449(9) Uani d 0.2804 Al
Si2 0.49262(10) 0.24631(5) 0.68075(19) 0.00768(15) Uani d 0.7196 Si
Al2 0.49262(10) 0.24631(5) 0.68075(19) 0.00768(15) Uani d 0.2804 Al
Si3 0.24364(6) 0.99790(6) 0.70254(13) 0.00439(9) Uani d 0.7196 Si
Al3 0.24364(6) 0.99790(6) 0.70254(13) 0.00439(9) Uani d 0.2804 Al
Si4 0.18013(4) 0.81987(4) 0.21227(19) 0.00563(13) Uani d 0.7196 Si
Al4 0.18013(4) 0.81987(4) 0.21227(19) 0.00563(13) Uani d 0.2804 Al
Si5 0.3333 0.6667 0.1722(4) 0.0096(3) Uani d 0.7196 Si
Al5 0.3333 0.6667 0.1722(4) 0.0096(3) Uani d 0.2804 Al
Si6 0 1 0.8567(8) 0.0068(4) Uani d 0.2978 Si
Al6 0 1 0.8567(8) 0.0068(4) Uani d 0.116 Al
Si7 0 1 0.5436(8) 0.0068(4) Uani d 0.2978 Si
Al7 0 1 0.5436(8) 0.0068(4) Uani d 0.116 Al
N1 0.14604(16) 0.85396(16) 0.5427(6) 0.0132(5) Uani d 0.7852 N
O1 0.14604(16) 0.85396(16) 0.5427(6) 0.0132(5) Uani d 0.2148 O
N2 0.39306(19) 0.07817(18) 0.5440(4) 0.0084(3) Uani d 0.7852 N
O2 0.39306(19) 0.07817(18) 0.5440(4) 0.0084(3) Uani d 0.2148 O
N3 0.1619(3) 0.08096(14) 0.7031(6) 0.0114(4) Uani d 0.7852 N
O3 0.1619(3) 0.08096(14) 0.7031(6) 0.0114(4) Uani d 0.2148 O
N4 0.6667 0.3333 0.6055(10) 0.0104(7) Uani d 0.7852 N
O4 0.6667 0.3333 0.6055(10) 0.0104(7) Uani d 0.2148 O
N5 0.4626(3) 0.23130(13) 0.0571(6) 0.0092(4) Uani d 0.7852 N
O5 0.4626(3) 0.23130(13) 0.0571(6) 0.0092(4) Uani d 0.2148 O
N6 0.51921(14) 0.0384(3) 0.1207(5) 0.0085(4) Uani d 0.7852 N
O6 0.51921(14) 0.0384(3) 0.1207(5) 0.0085(4) Uani d 0.2148 O
N7 0.2727(2) 0.9636(2) 0.0346(4) 0.0128(3) Uani d 0.7852 N
O7 0.2727(2) 0.9636(2) 0.0346(4) 0.0128(3) Uani d 0.2148 O
N8 0.3333 0.6667 0.8405(11) 0.0155(9) Uani d 0.7852 N
O8 0.3333 0.6667 0.8405(11) 0.0155(9) Uani d 0.2148 O
N9 0.25946(15) 0.74054(15) 0.2923(7) 0.0156(5) Uani d 0.7852 N
O9 0.25946(15) 0.74054(15) 0.2923(7) 0.0156(5) Uani d 0.2148 O
N10 0 1 0.2009(6) 0.0770(10) Uani d 0.325 N
O10 0 1 0.2009(6) 0.0770(10) Uani d 0.0889 O
loop_
_atom_site_aniso_label
_atom_site_aniso_U_11
_atom_site_aniso_U_22
_atom_site_aniso_U_33
_atom_site_aniso_U_12
_atom_site_aniso_U_13
_atom_site_aniso_U_23
Sr1 0.01105(10) 0.01111(13) 0.02516(16) 0.00555(6) -0.00015(6) -0.00030(12)
Eu1 0.01105(10) 0.01111(13) 0.02516(16) 0.00555(6) -0.00015(6) -0.00030(12)
Sr2 0.022(2) 0.022(2) 0.024(4) 0.0110(10) 0 0
Eu2 0.022(2) 0.022(2) 0.024(4) 0.0110(10) 0 0
Sr3 0.1012(17) 0.1012(17) 0.0286(10) 0.0506(8) 0 0
Eu3 0.1012(17) 0.1012(17) 0.0286(10) 0.0506(8) 0 0
Li1 0.015(3) 0.015(3) 0.022(6) 0.0073(16) 0 0
Si1 0.0046(2) 0.0045(2) 0.0038(2) 0.00184(17) -0.00022(17) -0.00008(18)
Al1 0.0046(2) 0.0045(2) 0.0038(2) 0.00184(17) -0.00022(17) -0.00008(18)
Si2 0.0071(3) 0.0081(3) 0.0075(4) 0.00357(17) -0.0001(3) -0.00003(14)
Al2 0.0071(3) 0.0081(3) 0.0075(4) 0.00357(17) -0.0001(3) -0.00003(14)
Si3 0.0041(2) 0.0042(2) 0.0043(2) 0.00165(18) 0.00013(17) 0.00019(16)
Al3 0.0041(2) 0.0042(2) 0.0043(2) 0.00165(18) 0.00013(17) 0.00019(16)
Si4 0.0050(2) 0.0050(2) 0.0060(3) 0.0018(3) 0.00004(14) -0.00004(14)
Al4 0.0050(2) 0.0050(2) 0.0060(3) 0.0018(3) 0.00004(14) -0.00004(14)
Si5 0.0073(4) 0.0073(4) 0.0143(7) 0.00363(19) 0 0
Al5 0.0073(4) 0.0073(4) 0.0143(7) 0.00363(19) 0 0
Si6 0.0061(6) 0.0061(6) 0.0083(10) 0.0030(3) 0 0
Al6 0.0061(6) 0.0061(6) 0.0083(10) 0.0030(3) 0 0
Si7 0.0061(6) 0.0061(6) 0.0083(10) 0.0030(3) 0 0
Al7 0.0061(6) 0.0061(6) 0.0083(10) 0.0030(3) 0 0
N1 0.0104(7) 0.0104(7) 0.0114(11) -0.0002(9) 0.0027(5) -0.0027(5)
O1 0.0104(7) 0.0104(7) 0.0114(11) -0.0002(9) 0.0027(5) -0.0027(5)
N2 0.0092(7) 0.0082(7) 0.0071(7) 0.0037(6) 0.0012(5) 0.0009(5)
O2 0.0092(7) 0.0082(7) 0.0071(7) 0.0037(6) 0.0012(5) 0.0009(5)
N3 0.0111(11) 0.0085(7) 0.0157(12) 0.0055(5) 0.0013(9) 0.0007(4)
O3 0.0111(11) 0.0085(7) 0.0157(12) 0.0055(5) 0.0013(9) 0.0007(4)
N4 0.0111(11) 0.0111(11) 0.0088(17) 0.0056(6) 0 0
O4 0.0111(11) 0.0111(11) 0.0088(17) 0.0056(6) 0 0
N5 0.0116(10) 0.0089(7) 0.0080(10) 0.0058(5) 0.0021(8) 0.0011(4)
O5 0.0116(10) 0.0089(7) 0.0080(10) 0.0058(5) 0.0021(8) 0.0011(4)
N6 0.0069(6) 0.0123(10) 0.0080(10) 0.0062(5) -0.0009(4) -0.0019(8)
O6 0.0069(6) 0.0123(10) 0.0080(10) 0.0062(5) -0.0009(4) -0.0019(8)
N7 0.0110(8) 0.0114(8) 0.0086(7) 0.0001(6) -0.0026(6) 0.0018(6)
O7 0.0110(8) 0.0114(8) 0.0086(7) 0.0001(6) -0.0026(6) 0.0018(6)
N8 0.0191(14) 0.0191(14) 0.0082(18) 0.0096(7) 0 0
O8 0.0191(14) 0.0191(14) 0.0082(18) 0.0096(7) 0 0
N9 0.0143(9) 0.0143(9) 0.0210(14) 0.0093(11) 0.0001(5) -0.0001(5)
O9 0.0143(9) 0.0143(9) 0.0210(14) 0.0093(11) 0.0001(5) -0.0001(5)
N10 0.1012(17) 0.1012(17) 0.0286(10) 0.0506(8) 0 0
O10 0.1012(17) 0.1012(17) 0.0286(10) 0.0506(8) 0 0
loop_
_atom_type_symbol
_atom_type_description
_atom_type_scat_dispersion_real
_atom_type_scat_dispersion_imag
_atom_type_scat_source
N N 0.0061 0.0033 'International Tables Vol C Tables 4.2.6.8 and 6.1.1.4'
Si Si 0.0817 0.0704 'International Tables Vol C Tables 4.2.6.8 and 6.1.1.4'
Sr Sr -1.5307 3.2498 'International Tables Vol C Tables 4.2.6.8 and 6.1.1.4'
Li Li -0.0003 0.0001 'International Tables Vol C Tables 4.2.6.8 and 6.1.1.4'
O O 0.0106 0.006 'International Tables Vol C Tables 4.2.6.8 and 6.1.1.4'
Al Al 0.0645 0.0514 'International Tables Vol C Tables 4.2.6.8 and 6.1.1.4'
Eu Eu -0.1578 3.6682 'International Tables Vol C Tables 4.2.6.8 and 6.1.1.4'
loop_
_geom_angle_atom_site_label_1
_geom_angle_atom_site_label_2
_geom_angle_atom_site_label_3
_geom_angle
_geom_angle_site_symmetry_1
_geom_angle_site_symmetry_3
N8 Sr1 O6 106.54(13) . 1_566
N8 Sr1 N6 106.54(13) . 1_566
O6 Sr1 N6 0.00(13) 1_566 1_566
N8 Sr1 O2 139.40(4) . 4_665
O6 Sr1 O2 77.04(6) 1_566 4_665
N6 Sr1 O2 77.04(6) 1_566 4_665
N8 Sr1 N2 139.40(4) . 4_665
O6 Sr1 N2 77.04(6) 1_566 4_665
N6 Sr1 N2 77.04(6) 1_566 4_665
O2 Sr1 N2 0.00(12) 4_665 4_665
N8 Sr1 O2 139.40(4) . 1_565
O6 Sr1 O2 77.04(6) 1_566 1_565
N6 Sr1 O2 77.04(6) 1_566 1_565
O2 Sr1 O2 81.20(8) 4_665 1_565
N2 Sr1 O2 81.20(8) 4_665 1_565
N8 Sr1 N2 139.40(4) . 1_565
O6 Sr1 N2 77.04(6) 1_566 1_565
N6 Sr1 N2 77.04(6) 1_566 1_565
O2 Sr1 N2 81.20(8) 4_665 1_565
N2 Sr1 N2 81.20(8) 4_665 1_565
O2 Sr1 N2 0.00(7) 1_565 1_565
N8 Sr1 O9 71.41(11) . 3_565
O6 Sr1 O9 150.94(6) 1_566 3_565
N6 Sr1 O9 150.94(6) 1_566 3_565
O2 Sr1 O9 86.36(7) 4_665 3_565
N2 Sr1 O9 86.36(7) 4_665 3_565
O2 Sr1 O9 124.15(7) 1_565 3_565
N2 Sr1 O9 124.15(7) 1_565 3_565
N8 Sr1 N9 71.41(11) . 3_565
O6 Sr1 N9 150.94(6) 1_566 3_565
N6 Sr1 N9 150.94(6) 1_566 3_565
O2 Sr1 N9 86.36(7) 4_665 3_565
N2 Sr1 N9 86.36(7) 4_665 3_565
O2 Sr1 N9 124.15(7) 1_565 3_565
N2 Sr1 N9 124.15(7) 1_565 3_565
O9 Sr1 N9 0.00(12) 3_565 3_565
N8 Sr1 N9 71.41(11) . .
O6 Sr1 N9 150.95(7) 1_566 .
N6 Sr1 N9 150.95(7) 1_566 .
O2 Sr1 N9 124.15(7) 4_665 .
N2 Sr1 N9 124.15(7) 4_665 .
O2 Sr1 N9 86.36(7) 1_565 .
N2 Sr1 N9 86.36(7) 1_565 .
O9 Sr1 N9 57.39(13) 3_565 .
N9 Sr1 N9 57.39(13) 3_565 .
O3 Sr2 N3 0.00(8) 1_565 1_565
O3 Sr2 O3 72.8(3) 1_565 2_565
N3 Sr2 O3 72.8(3) 1_565 2_565
O3 Sr2 N3 72.8(3) 1_565 2_565
N3 Sr2 N3 72.8(3) 1_565 2_565
O3 Sr2 N3 0.00(6) 2_565 2_565
O3 Sr3 N3 0 3_564 3_564
O3 Sr3 O3 59.44(10) 3_564 2_564
N3 Sr3 O3 59.44(10) 3_564 2_564
O3 Sr3 N3 59.44(10) 3_564 2_564
N3 Sr3 N3 59.44(10) 3_564 2_564
O3 Sr3 N3 0.00(11) 2_564 2_564
O3 Sr3 O3 59.44(10) 3_564 1_564
N3 Sr3 O3 59.44(10) 3_564 1_564
O3 Sr3 O3 59.44(10) 2_564 1_564
N3 Sr3 O3 59.44(10) 2_564 1_564
O3 Sr3 N3 59.44(10) 3_564 1_564
N3 Sr3 N3 59.44(10) 3_564 1_564
O3 Sr3 N3 59.44(10) 2_564 1_564
N3 Sr3 N3 59.44(10) 2_564 1_564
O3 Sr3 N3 0.00(9) 1_564 1_564
N4 Li1 N5 103.5(4) . .
N4 Li1 O5 103.5(4) . 2_655
N5 Li1 O5 114.8(3) . 2_655
N4 Li1 N5 103.5(4) . 2_655
N5 Li1 N5 114.8(3) . 2_655
O5 Li1 N5 0.00(15) 2_655 2_655
N4 Li1 O5 103.5(4) . 3_665
N5 Li1 O5 114.8(3) . 3_665
O5 Li1 O5 114.8(3) 2_655 3_665
N5 Li1 O5 114.8(3) 2_655 3_665
N4 Li1 N5 103.5(4) . 3_665
N5 Li1 N5 114.8(3) . 3_665
O5 Li1 N5 114.8(3) 2_655 3_665
N5 Li1 N5 114.8(3) 2_655 3_665
O5 Li1 N5 0.00(17) 3_665 3_665
N4 Li1 N4 180 . 1_554
N5 Li1 N4 76.5(4) . 1_554
O5 Li1 N4 76.5(4) 2_655 1_554
N5 Li1 N4 76.5(4) 2_655 1_554
O5 Li1 N4 76.5(4) 3_665 1_554
N5 Li1 N4 76.5(4) 3_665 1_554
N6 Si1 N2 108.25(11) . .
N6 Si1 O7 104.28(13) . 1_545
N2 Si1 O7 111.64(10) . 1_545
N6 Si1 N7 104.28(13) . 1_545
N2 Si1 N7 111.64(10) . 1_545
O7 Si1 N7 0.0(3) 1_545 1_545
N6 Si1 N5 108.25(13) . .
N2 Si1 N5 111.50(11) . .
O7 Si1 N5 112.52(12) 1_545 .
N7 Si1 N5 112.52(12) 1_545 .
N4 Si2 O5 111.11(17) . 1_556
N4 Si2 N5 111.11(17) . 1_556
O5 Si2 N5 0.0(3) 1_556 1_556
N4 Si2 O2 118.07(10) . 5
O5 Si2 O2 104.74(9) 1_556 5
N5 Si2 O2 104.74(9) 1_556 5
N4 Si2 N2 118.07(10) . 5
O5 Si2 N2 104.74(9) 1_556 5
N5 Si2 N2 104.74(9) 1_556 5
O2 Si2 N2 0.00(7) 5 5
N4 Si2 N2 118.07(10) . .
O5 Si2 N2 104.73(9) 1_556 .
N5 Si2 N2 104.73(9) 1_556 .
O2 Si2 N2 98.30(13) 5 .
N2 Si2 N2 98.30(13) 5 .
N1 Si3 O3 106.61(15) . 1_565
N1 Si3 N3 106.61(15) . 1_565
O3 Si3 N3 0.0(2) 1_565 1_565
N1 Si3 O2 110.87(11) . 1_565
O3 Si3 O2 114.30(11) 1_565 1_565
N3 Si3 O2 114.30(11) 1_565 1_565
N1 Si3 N2 110.87(11) . 1_565
O3 Si3 N2 114.30(11) 1_565 1_565
N3 Si3 N2 114.30(11) 1_565 1_565
O2 Si3 N2 0.00(15) 1_565 1_565
N1 Si3 O7 107.23(12) . 1_556
O3 Si3 O7 112.21(13) 1_565 1_556
N3 Si3 O7 112.21(13) 1_565 1_556
O2 Si3 O7 105.46(10) 1_565 1_556
N2 Si3 O7 105.46(10) 1_565 1_556
N1 Si3 N7 107.23(12) . 1_556
O3 Si3 N7 112.21(13) 1_565 1_556
N3 Si3 N7 112.21(13) 1_565 1_556
O2 Si3 N7 105.46(10) 1_565 1_556
N2 Si3 N7 105.46(10) 1_565 1_556
O7 Si3 N7 0.00(15) 1_556 1_556
N9 Si4 O7 114.20(10) . 6_665
N9 Si4 N7 114.20(10) . 6_665
O7 Si4 N7 0.0(2) 6_665 6_665
N9 Si4 N7 114.20(10) . .
O7 Si4 N7 109.02(14) 6_665 .
N7 Si4 N7 109.02(14) 6_665 .
N9 Si4 N1 100.67(17) . .
O7 Si4 N1 109.15(10) 6_665 .
N7 Si4 N1 109.15(10) 6_665 .
N7 Si4 N1 109.15(10) . .
O8 Si5 N8 0.0000(10) 1_554 1_554
O8 Si5 N9 110.74(13) 1_554 .
N8 Si5 N9 110.74(13) 1_554 .
O8 Si5 O9 110.74(13) 1_554 3_565
N8 Si5 O9 110.74(13) 1_554 3_565
N9 Si5 O9 108.17(14) . 3_565
O8 Si5 N9 110.74(13) 1_554 3_565
N8 Si5 N9 110.74(13) 1_554 3_565
N9 Si5 N9 108.17(14) . 3_565
O9 Si5 N9 0.0(2) 3_565 3_565
O8 Si5 O9 110.74(13) 1_554 2_665
N8 Si5 O9 110.74(13) 1_554 2_665
N9 Si5 O9 108.17(14) . 2_665
O9 Si5 O9 108.17(14) 3_565 2_665
N9 Si5 O9 108.17(14) 3_565 2_665
O8 Si5 N9 110.74(13) 1_554 2_665
N8 Si5 N9 110.74(13) 1_554 2_665
N9 Si5 N9 108.17(14) . 2_665
O9 Si5 N9 108.17(14) 3_565 2_665
N9 Si5 N9 108.17(14) 3_565 2_665
O9 Si5 N9 0.00(13) 2_665 2_665
O10 Si6 N10 0.000(2) 1_556 1_556
Si7 Si6 O3 66.15(14) . 3_565
O10 Si6 O3 113.85(15) 1_556 3_565
N10 Si6 O3 113.85(15) 1_556 3_565
O10 Si6 N3 113.85(15) 1_556 3_565
N10 Si6 N3 113.85(15) 1_556 3_565
O3 Si6 N3 0 3_565 3_565
O10 Si6 O3 113.85(15) 1_556 1_565
N10 Si6 O3 113.85(15) 1_556 1_565
O3 Si6 O3 104.76(17) 3_565 1_565
N3 Si6 O3 104.76(17) 3_565 1_565
O10 Si6 N3 113.85(15) 1_556 1_565
N10 Si6 N3 113.85(15) 1_556 1_565
O3 Si6 N3 104.76(17) 3_565 1_565
N3 Si6 N3 104.76(17) 3_565 1_565
O3 Si6 N3 0.00(17) 1_565 1_565
O10 Si6 O3 113.85(14) 1_556 2_565
N10 Si6 O3 113.85(14) 1_556 2_565
O3 Si6 O3 104.76(17) 3_565 2_565
N3 Si6 O3 104.76(17) 3_565 2_565
O3 Si6 O3 104.76(17) 1_565 2_565
N3 Si6 O3 104.76(17) 1_565 2_565
O10 Si6 N3 113.85(14) 1_556 2_565
N10 Si6 N3 113.85(14) 1_556 2_565
O3 Si6 N3 104.76(17) 3_565 2_565
N3 Si6 N3 104.76(17) 3_565 2_565
O3 Si6 N3 104.76(17) 1_565 2_565
N3 Si6 N3 104.76(17) 1_565 2_565
O3 Si6 N3 0.00(6) 2_565 2_565
O3 Si7 N3 0.0(2) 1_565 1_565
O3 Si7 O3 103.84(16) 1_565 3_565
N3 Si7 O3 103.84(16) 1_565 3_565
O3 Si7 N3 103.84(16) 1_565 3_565
N3 Si7 N3 103.84(16) 1_565 3_565
O3 Si7 N3 0 3_565 3_565
loop_
_geom_bond_atom_site_label_1
_geom_bond_atom_site_label_2
_geom_bond_site_symmetry_2
_geom_bond_distance
Sr1 N8 . 2.4876(18)
Sr1 O6 1_566 2.664(3)
Sr1 N6 1_566 2.664(3)
Sr1 O2 4_665 2.7157(19)
Sr1 N2 4_665 2.7157(19)
Sr1 O2 1_565 2.7157(19)
Sr1 N2 1_565 2.7157(19)
Sr1 O9 3_565 2.793(2)
Sr1 N9 3_565 2.793(2)
Sr1 N9 . 2.793(2)
Sr2 O3 1_565 2.476(7)
Sr2 N3 1_565 2.476(7)
Sr2 O3 2_565 2.476(7)
Sr2 N3 2_565 2.476(7)
Sr3 O3 3_564 2.964(4)
Sr3 N3 3_564 2.964(4)
Sr3 O3 2_564 2.964(4)
Sr3 N3 2_564 2.964(4)
Sr3 O3 1_564 2.964(4)
Sr3 N3 1_564 2.964(4)
Li1 N4 . 2.166(14)
Li1 N5 . 2.199(4)
Li1 O5 2_655 2.199(4)
Li1 N5 2_655 2.199(4)
Li1 O5 3_665 2.199(4)
Li1 N5 3_665 2.199(4)
Li1 N4 1_554 2.717(14)
Si1 N6 . 1.6640(12)
Si1 N2 . 1.731(2)
Si1 O7 1_545 1.733(2)
Si1 N7 1_545 1.733(2)
Si1 N5 . 1.7411(15)
Si2 N4 . 1.8609(14)
Si2 O5 1_556 1.864(3)
Si2 N5 1_556 1.864(3)
Si2 O2 5 1.894(2)
Si2 N2 5 1.894(2)
Si2 N2 . 1.894(2)
Si3 N1 . 1.7268(16)
Si3 O3 1_565 1.7271(16)
Si3 N3 1_565 1.7271(16)
Si3 O2 1_565 1.748(2)
Si3 N2 1_565 1.748(2)
Si3 O7 1_556 1.753(2)
Si3 N7 1_556 1.753(2)
Si4 N9 . 1.708(3)
Si4 O7 6_665 1.756(2)
Si4 N7 6_665 1.756(2)
Si4 N7 . 1.756(2)
Si4 N1 . 1.764(3)
Si5 O8 1_554 1.620(5)
Si5 N8 1_554 1.620(5)
Si5 N9 . 1.656(3)
Si5 O9 3_565 1.656(3)
Si5 N9 3_565 1.656(3)
Si5 O9 2_665 1.656(3)
Si5 N9 2_665 1.656(3)
Si6 O10 1_556 1.680(5)
Si6 N10 1_556 1.680(5)
Si6 O3 3_565 1.856(3)
Si6 N3 3_565 1.856(3)
Si6 O3 1_565 1.856(3)
Si6 N3 1_565 1.856(3)
Si6 O3 2_565 1.856(3)
Si6 N3 2_565 1.856(3)
Si7 O3 1_565 1.867(3)
Si7 N3 1_565 1.867(3)
Si7 O3 3_565 1.867(3)
Si7 N3 3_565 1.867(3)
