#------------------------------------------------------------------------------
#$Date: 2019-10-28 17:35:05 +0200 (Mon, 28 Oct 2019) $
#$Revision: 220137 $
#$URL: file:///home/coder/svn-repositories/cod/cif/4/51/49/4514980.cif $
#------------------------------------------------------------------------------
#
# This file is available in the Crystallography Open Database (COD),
# http://www.crystallography.net/
#
# All data on this site have been placed in the public domain by the
# contributors.
#
data_4514980
loop_
_publ_author_name
'Sasmal, Supriya'
'Roy Chowdhury, Srayoshi'
'Podder, Debasish'
'Haldar, Debasish'
_publ_section_title
;
 Urea-Appended Amino Acid To Vitalize Yeast Growth, Enhance Fermentation,
 and Promote Ethanol Production.
;
_journal_issue                   8
_journal_name_full               'ACS omega'
_journal_page_first              13172
_journal_page_last               13179
_journal_paper_doi               10.1021/acsomega.9b01260
_journal_volume                  4
_journal_year                    2019
_chemical_absolute_configuration s
_chemical_formula_moiety         'C7 H17 N5 O4'
_chemical_formula_sum            'C7 H17 N5 O4'
_chemical_formula_weight         235.25
_space_group_crystal_system      monoclinic
_space_group_IT_number           4
_space_group_name_Hall           'P 2yb'
_space_group_name_H-M_alt        'P 1 21 1'
_symmetry_space_group_name_Hall  'P 2yb'
_symmetry_space_group_name_H-M   'P 1 21 1'
_atom_sites_solution_hydrogens   mixed
_atom_sites_solution_primary     direct
_audit_creation_date             2019-01-16
_audit_creation_method
;
Olex2 1.2
(compiled 2018.05.29 svn.r3508 for OlexSys, GUI svn.r5506)
;
_cell_angle_alpha                90
_cell_angle_beta                 94.066(2)
_cell_angle_gamma                90
_cell_formula_units_Z            2
_cell_length_a                   7.5481(2)
_cell_length_b                   8.9419(3)
_cell_length_c                   7.9881(2)
_cell_measurement_reflns_used    3684
_cell_measurement_temperature    100.00(10)
_cell_measurement_theta_max      25.0070
_cell_measurement_theta_min      2.5260
_cell_volume                     537.79(3)
_computing_cell_refinement       'CrysAlisPro 1.171.38.43f (Rigaku OD, 2015)'
_computing_data_collection       'CrysAlisPro 1.171.38.43f (Rigaku OD, 2015)'
_computing_data_reduction        'CrysAlisPro 1.171.38.43f (Rigaku OD, 2015)'
_computing_molecular_graphics    'Olex2 (Dolomanov et al., 2009)'
_computing_publication_material  'Olex2 (Dolomanov et al., 2009)'
_computing_structure_refinement  'ShelXL (Sheldrick, 2015)'
_computing_structure_solution    'ShelXS (Sheldrick, 2008)'
_diffrn_ambient_environment      N~2~
_diffrn_ambient_temperature      100.00(10)
_diffrn_detector                 'CCD plate'
_diffrn_detector_area_resol_mean 7.9580
_diffrn_detector_type            Eos
_diffrn_measured_fraction_theta_full 0.997
_diffrn_measured_fraction_theta_max 0.997
_diffrn_measurement_details
;
List of Runs (angles in degrees, time in seconds):

  # Type    Start    End  Width  t~exp~   \w     \q     \k     \f   Frames
--------------------------------------------------------------------------
  1  \w   -122.00 -55.00   1.00    2.00    --  -25.76 178.00-180.00   67
  2  \w    -20.00  83.00   1.00    2.00    --   27.17 -99.00 150.00  103
  3  \w    -59.00 115.00   1.00    2.00    --   27.17  19.00 -60.00  174
  4  \w    -20.00  30.00   1.00    2.00    --  -25.76 -99.00 -60.00   50
  5  \w    -61.00 113.00   1.00    2.00    --   27.17 -19.00 150.00  174
  6  \w    -11.00 104.00   1.00    2.00    --   27.17  57.00  90.00  115
;
_diffrn_measurement_device       'four-circle diffractometer'
_diffrn_measurement_device_type  'SuperNova, Dual, Cu at zero, Eos'
_diffrn_measurement_method       '\w scans'
_diffrn_orient_matrix_type
'CrysAlisPro convention (1999,Acta A55,543-557)'
_diffrn_orient_matrix_UB_11      0.0098270000
_diffrn_orient_matrix_UB_12      0.0788777000
_diffrn_orient_matrix_UB_13      0.0005846000
_diffrn_orient_matrix_UB_21      -0.0722929000
_diffrn_orient_matrix_UB_22      0.0064708000
_diffrn_orient_matrix_UB_23      0.0516663000
_diffrn_orient_matrix_UB_31      0.0596049000
_diffrn_orient_matrix_UB_32      -0.0051123000
_diffrn_orient_matrix_UB_33      0.0725043000
_diffrn_radiation_monochromator  mirror
_diffrn_radiation_probe          x-ray
_diffrn_radiation_type           MoK\a
_diffrn_radiation_wavelength     0.71073
_diffrn_reflns_av_R_equivalents  0.0256
_diffrn_reflns_av_unetI/netI     0.0301
_diffrn_reflns_Laue_measured_fraction_full 0.997
_diffrn_reflns_Laue_measured_fraction_max 0.997
_diffrn_reflns_limit_h_max       8
_diffrn_reflns_limit_h_min       -8
_diffrn_reflns_limit_k_max       10
_diffrn_reflns_limit_k_min       -10
_diffrn_reflns_limit_l_max       9
_diffrn_reflns_limit_l_min       -9
_diffrn_reflns_number            4729
_diffrn_reflns_point_group_measured_fraction_full 0.957
_diffrn_reflns_point_group_measured_fraction_max 0.957
_diffrn_reflns_theta_full        25.027
_diffrn_reflns_theta_max         25.027
_diffrn_reflns_theta_min         2.556
_diffrn_source                   'micro-focus sealed X-ray tube'
_diffrn_source_type              'SuperNova (Mo) X-ray Source'
_exptl_absorpt_coefficient_mu    0.119
_exptl_absorpt_correction_T_max  1.00000
_exptl_absorpt_correction_T_min  0.91768
_exptl_absorpt_correction_type   multi-scan
_exptl_absorpt_process_details
;
CrysAlisPro 1.171.38.43f (Rigaku Oxford Diffraction, 2015)
Empirical absorption correction using spherical harmonics,
 implemented in SCALE3 ABSPACK scaling algorithm.
;
_exptl_crystal_colour            'clear whiteish colourless'
_exptl_crystal_colour_lustre     clear
_exptl_crystal_colour_modifier   whiteish
_exptl_crystal_colour_primary    colourless
_exptl_crystal_density_diffrn    1.453
_exptl_crystal_description       BLOCK
_exptl_crystal_F_000             252
_exptl_crystal_size_max          0.25898
_exptl_crystal_size_mid          0.2359
_exptl_crystal_size_min          0.1158
_refine_diff_density_max         0.187
_refine_diff_density_min         -0.174
_refine_diff_density_rms         0.033
_refine_ls_abs_structure_details
;
 Flack x determined using 767 quotients [(I+)-(I-)]/[(I+)+(I-)]
 (Parsons, Flack and Wagner, Acta Cryst. B69 (2013) 249-259).
;
_refine_ls_abs_structure_Flack   0.7(6)
_refine_ls_extinction_coef       0.055(9)
_refine_ls_extinction_expression Fc^*^=kFc[1+0.001xFc^2^\l^3^/sin(2\q)]^-1/4^
_refine_ls_extinction_method     'SHELXL-2016/6 (Sheldrick 2016)'
_refine_ls_goodness_of_fit_ref   1.039
_refine_ls_hydrogen_treatment    constr
_refine_ls_matrix_type           full
_refine_ls_number_parameters     155
_refine_ls_number_reflns         1819
_refine_ls_number_restraints     1
_refine_ls_restrained_S_all      1.039
_refine_ls_R_factor_all          0.0257
_refine_ls_R_factor_gt           0.0250
_refine_ls_shift/su_max          0.000
_refine_ls_shift/su_mean         0.000
_refine_ls_structure_factor_coef Fsqd
_refine_ls_weighting_details
'w=1/[\s^2^(Fo^2^)+(0.0272P)^2^+0.1007P] where P=(Fo^2^+2Fc^2^)/3'
_refine_ls_weighting_scheme      calc
_refine_ls_wR_factor_gt          0.0590
_refine_ls_wR_factor_ref         0.0595
_reflns_Friedel_coverage         0.796
_reflns_Friedel_fraction_full    0.912
_reflns_Friedel_fraction_max     0.912
_reflns_number_gt                1769
_reflns_number_total             1819
_reflns_threshold_expression     'I > 2\s(I)'
_cod_data_source_file            ao9b01260_si_001.cif
_cod_data_source_block           uarg
_cod_database_code               4514980
_shelx_shelxl_version_number     2016/6
_chemical_oxdiff_formula         'C H N O'
_shelx_space_group_comment
;
The symmetry employed for this shelxl refinement is uniquely defined
by the following loop, which should always be used as a source of
symmetry information in preference to the above space-group names.
They are only intended as comments.
;
_shelx_estimated_absorpt_t_max   0.986
_shelx_estimated_absorpt_t_min   0.970
_reflns_odcompleteness_completeness 93.05
_reflns_odcompleteness_iscentric 1
_reflns_odcompleteness_theta     25.63
_olex2_refinement_description
;
1. Fixed Uiso
 At 1.2 times of:
  All C(H) groups, All C(H,H) groups, All N(H) groups, All N(H,H) groups
 At 1.5 times of:
  All O(H,H) groups
2.a Fixed occupancy and ADP/Uiso:
 H4A, H4B
2.b Free rotating group:
 O4(H4E,H4F)
2.c Ternary CH refined with riding coordinates:
 C2(H2A)
2.d Secondary CH2 refined with riding coordinates:
 C4(H4C,H4D), C5(H5C,H5D), C6(H6A,H6B)
2.e Aromatic/amide H refined with riding coordinates:
 N2(H2), N3(H3)
2.f X=CH2 refined with riding coordinates:
 N1(H1A,H1B), N5(H5A,H5B)
;
_shelx_res_file
;
TITL UARG in P21 #4
    uarg.res
    created by SHELXL-2016/6 at 11:42:03 on 16-Jan-2019
REM reset to P21 #4
CELL 0.71073 7.5481 8.9419 7.9881 90 94.066 90
ZERR 2 0.0002 0.0003 0.0002 0 0.002 0
LATT -1
SYMM -X,0.5+Y,-Z
SFAC C H N O
UNIT 14 34 10 8

L.S. 25
PLAN  10
SIZE 0.25898 0.2359 0.1158
BOND
fmap 2
ACTA
REM <olex2.extras>
REM <HklSrc "%.\\UARG.hkl">
REM </olex2.extras>

WGHT    0.027200    0.100700
EXTI    0.054934
FVAR       1.84716
O1    4    0.207721    0.064920    1.171284    11.00000    0.01982    0.01470 =
         0.01330    0.00009    0.00048   -0.00476
O2    4   -0.122495    0.018085    0.886366    11.00000    0.01413    0.01454 =
         0.01476    0.00045    0.00263    0.00269
O3    4    0.018402    0.054326    0.653410    11.00000    0.01609    0.01418 =
         0.01296    0.00276    0.00129    0.00080
N1    3    0.089792   -0.124551    1.313419    11.00000    0.02353    0.01300 =
         0.01064   -0.00075    0.00210   -0.00428
AFIX  93
H1A   2    0.094319   -0.072657    1.404265    11.00000   -1.20000
H1B   2    0.048502   -0.214202    1.312866    11.00000   -1.20000
AFIX   0
N2    3    0.140828   -0.154409    1.036147    11.00000    0.01671    0.01015 =
         0.01095    0.00122    0.00123    0.00089
AFIX  43
H2    2    0.122652   -0.248387    1.050104    11.00000   -1.20000
AFIX   0
N3    3    0.352538   -0.425091    0.498003    11.00000    0.01060    0.01577 =
         0.00989   -0.00140   -0.00060   -0.00011
AFIX  43
H3    2    0.250375   -0.433607    0.443962    11.00000   -1.20000
AFIX   0
N4    3    0.648607   -0.356695    0.488384    11.00000    0.01226    0.02299 =
         0.00991    0.00258    0.00124   -0.00120
AFIX   2
H4A   2    0.666106   -0.377753    0.597875    11.00000   -1.20000
AFIX   2
H4B   2    0.742483   -0.360077    0.424960    11.00000   -1.20000
AFIX   0
N5    3    0.461765   -0.359638    0.248400    11.00000    0.01166    0.02455 =
         0.00999    0.00179    0.00163   -0.00159
AFIX  93
H5A   2    0.358748   -0.374999    0.198287    11.00000   -1.20000
H5B   2    0.548396   -0.330710    0.191956    11.00000   -1.20000
AFIX   0
C1    1    0.147423   -0.065360    1.171867    11.00000    0.00989    0.01494 =
         0.01280    0.00225   -0.00220    0.00323
C2    1    0.162715   -0.100810    0.866698    11.00000    0.01235    0.01183 =
         0.01092   -0.00037    0.00089   -0.00149
AFIX  13
H2A   2    0.271601   -0.040934    0.868912    11.00000   -1.20000
AFIX   0
C3    1    0.006386   -0.002144    0.797969    11.00000    0.01109    0.00976 =
         0.01339   -0.00178   -0.00071   -0.00295
C4    1    0.184601   -0.235266    0.750934    11.00000    0.01584    0.01443 =
         0.00932   -0.00096    0.00107    0.00027
AFIX  23
H4C   2    0.084234   -0.301870    0.759626    11.00000   -1.20000
H4D   2    0.181774   -0.200005    0.635939    11.00000   -1.20000
AFIX   0
C5    1    0.354524   -0.323340    0.789059    11.00000    0.01445    0.01602 =
         0.00943   -0.00065    0.00058    0.00193
AFIX  23
H5C   2    0.361207   -0.354853    0.905530    11.00000   -1.20000
H5D   2    0.455663   -0.259195    0.773423    11.00000   -1.20000
AFIX   0
C6    1    0.364269   -0.460831    0.676572    11.00000    0.01275    0.01340 =
         0.01146    0.00268    0.00219    0.00055
AFIX  23
H6A   2    0.475315   -0.512585    0.704847    11.00000   -1.20000
H6B   2    0.268245   -0.528352    0.699139    11.00000   -1.20000
AFIX   0
C7    1    0.487038   -0.380565    0.412751    11.00000    0.01388    0.00846 =
         0.01316   -0.00105    0.00181    0.00262

AFIX   6
O4    4    0.267822   -0.728135    0.934248    11.00000    0.02435    0.01713 =
         0.01694    0.00319    0.00758    0.00425
H4E   2    0.250955   -0.793120    1.009123    11.00000   -1.50000
H4F   2    0.233366   -0.646393    0.975381    11.00000   -1.50000
AFIX   0
HKLF 4




REM  UARG in P21 #4
REM R1 =  0.0250 for    1769 Fo > 4sig(Fo)  and  0.0257 for all    1819 data
REM    155 parameters refined using      1 restraints

END

WGHT      0.0272      0.1005

REM Highest difference peak  0.187,  deepest hole -0.174,  1-sigma level  0.033
Q1    1   0.0570 -0.2361  1.0451  11.00000  0.05    0.19
Q2    1   0.0737 -0.0764  0.8301  11.00000  0.05    0.14
Q3    1   0.4113 -0.6894  0.9170  11.00000  0.05    0.13
Q4    1   0.1253  0.1167  0.6439  11.00000  0.05    0.13
Q5    1   0.1702 -0.1647  0.8167  11.00000  0.05    0.12
Q6    1   0.0595 -0.0956  1.0748  11.00000  0.05    0.12
Q7    1   0.3771 -0.5518  0.5395  11.00000  0.05    0.11
Q8    1   0.2553 -0.0777  0.8747  11.00000  0.05    0.11
Q9    1   0.4117 -0.4662  0.4511  11.00000  0.05    0.11
Q10   1   0.3366 -0.3934  0.7275  11.00000  0.05    0.11
;
_shelx_res_checksum              5430
_shelx_hkl_file
;
   0 -10   0  336.65   25.32
   0 -10  -1   23.50    7.25
   0 -10   1   24.53    7.28
   0 -10   2   33.71    8.50
   0 -10  -2   20.99    6.66
   0 -10  -3  101.23   13.42
   0 -10   3  106.68   14.87
   0  -9   0    2.83    3.43
   0  -9   1  546.18   31.20
   0  -9  -1  523.54   29.69
   0  -9  -2  484.64   28.10
   0  -9  -2  479.32   26.07
   0  -9   2  440.47   28.08
   0  -9   3   88.82   12.66
   0  -9  -3   64.97   10.28
   0  -9   4  537.57   32.37
   0  -9  -4  600.49   31.30
   0  -9  -4  593.25   31.58
   0  -9  -5   10.02    4.81
   0  -9   5   22.45    7.00
   0  -8   0  791.73   35.32
   0  -8  -1   19.47    4.85
   0  -8  -1   21.55    5.98
   0  -8   1   28.90    6.84
   0  -8  -2  179.64   14.79
   0  -8   2  179.28   16.32
   0  -8  -2  155.38   14.57
   0  -8   3   60.26    9.86
   0  -8  -3   65.61    9.54
   0  -8  -3   61.35    9.09
   0  -8  -4   89.72   10.93
   0  -8  -4  130.45   13.75
   0  -8   4  114.61   13.64
   0  -8   4   98.49   11.39
   0  -8  -5  266.34   20.74
   0  -8   5  271.74   21.31
   0  -8   5  252.06   19.52
   0  -8  -6  622.02   33.61
   0  -8   6  593.42   32.78
   0  -7   0   15.80    4.88
   0  -7   1  361.78   21.63
   0  -7  -1  357.80   21.01
   0  -7  -1  353.50   18.88
   0  -7  -2  906.86   34.26
   0  -7  -2  817.64   33.62
   0  -7   2  919.88   30.64
   0  -7   2  896.05   36.14
   0  -7  -3   31.19    5.99
   0  -7   3   23.07    4.87
   0  -7   3   20.87    5.56
   0  -7  -3   14.59    4.68
   0  -7   4  586.43   27.63
   0  -7  -4  622.78   27.85
   0  -7   4  578.61   29.40
   0  -7  -4  632.90   30.14
   0  -7   5   34.62    6.97
   0  -7   5   31.63    6.86
   0  -7  -5   30.72    7.09
   0  -7  -6   49.99    9.11
   0  -7   6   41.06    8.42
   0  -7   7  115.40   14.50
   0  -7  -7  113.97   14.09
   0  -6   0  271.47   16.86
   0  -6   1  103.94   10.58
   0  -6   1  124.36    8.33
   0  -6  -1  112.77   10.52
   0  -6   2  182.34   14.14
   0  -6  -2  184.43   13.24
   0  -6   2  173.96   11.34
   0  -6  -2  170.97   13.02
   0  -6   3  260.38   17.42
   0  -6  -3  255.58   16.01
   0  -6  -3  275.79   17.35
   0  -6   3  301.19   16.67
   0  -6   4  480.20   23.67
   0  -6   4  509.23   25.34
   0  -6  -4  526.75   23.38
   0  -6  -4  496.44   25.23
   0  -6   5  224.56   17.11
   0  -6  -5  228.49   17.51
   0  -6   5  214.07   16.40
   0  -6   6  759.32   35.27
   0  -6  -6  782.67   35.49
   0  -6   7   29.68    7.39
   0  -6  -7   32.82    7.65
   0  -5   0    3.65    1.31
   0  -5   0   12.25    3.71
   0  -5  -1  312.22    8.60
   0  -5  -1  311.46   16.39
   0  -5   1  315.37   13.18
   0  -5   1  344.06   17.57
   0  -5  -2  214.90   13.48
   0  -5   2  224.26   14.22
   0  -5   2  209.79   11.83
   0  -5  -2  211.33   13.05
   0  -5   3  663.42   24.96
   0  -5   3  668.45   26.77
   0  -5  -3  629.85   26.14
   0  -5  -3  644.89   24.56
   0  -5   4   52.31    7.13
   0  -5  -4   44.65    7.05
   0  -5   4   64.94    8.00
   0  -5  -4   51.76    6.31
   0  -5  -5  449.22   23.59
   0  -5   5  460.23   22.50
   0  -5   5  398.46   22.20
   0  -5  -6   52.45    8.50
   0  -5   6   45.56    8.07
   0  -5   7   35.62    7.92
   0  -5  -7   25.40    6.89
   0  -5  -8  170.88   16.90
   0  -5   8  164.15   17.29
   0  -4   0 2525.54   50.32
   0  -4   0 2507.49   58.69
   0  -4   1 1492.63   40.00
   0  -4  -1 1508.29   39.36
   0  -4   1 1454.96   34.80
   0  -4   2  819.53   27.08
   0  -4   2  807.05   24.68
   0  -4  -2  775.61   26.45
   0  -4  -2  793.44   25.51
   0  -4   3  727.18   25.02
   0  -4  -3  726.36   23.93
   0  -4  -3  699.87   26.23
   0  -4   3  676.61   25.08
   0  -4   4  364.43   18.44
   0  -4  -4  358.20   18.86
   0  -4   4  366.82   17.78
   0  -4  -4  401.07   16.36
   0  -4   5  241.65   16.07
   0  -4   5  234.63   14.32
   0  -4  -5  234.42   15.85
   0  -4  -6  300.80   19.37
   0  -4   6  311.04   20.03
   0  -4   7  198.82   17.22
   0  -4  -7  177.94   15.91
   0  -4  -8   39.44    8.38
   0  -4   8   43.40    8.76
   0  -3   0    0.38    0.56
   0  -3   0    0.17    1.53
   0  -3   1 1455.63   32.80
   0  -3   1 1426.30   35.90
   0  -3  -1 1424.04   35.35
   0  -3   2 3893.32   81.42
   0  -3  -2 3989.90   79.76
   0  -3  -2 3886.14   82.31
   0  -3   2 3912.70   80.00
   0  -3  -3  913.34   25.23
   0  -3  -3  925.59   29.24
   0  -3   3  909.54   27.89
   0  -3   3  883.67   26.91
   0  -3   4  633.69   22.34
   0  -3  -4  649.46   25.14
   0  -3  -4  663.77   20.24
   0  -3   4  671.43   24.95
   0  -3  -5   76.18    8.54
   0  -3   5   87.56    9.28
   0  -3   5   91.74    7.87
   0  -3   6  262.47   17.57
   0  -3  -6  268.64   17.42
   0  -3  -7  118.47   12.27
   0  -3   7  106.66   12.21
   0  -3  -8  137.30   14.25
   0  -3   8  143.54   15.39
   0  -3  -9   71.57   11.16
   0  -3   9   94.74   13.40
   0  -2   1 6731.91  127.18
   0  -2  -1 6995.69  126.59
   0  -2  -1 6656.77  127.16
   0  -2   2  577.38   17.21
   0  -2  -2  585.10   18.82
   0  -2   2  583.69   17.69
   0  -2  -3 3056.12   60.80
   0  -2  -3 3069.74   66.84
   0  -2   3 2980.97   63.39
   0  -2   3 3092.10   66.23
   0  -2  -4 2658.44   54.79
   0  -2  -4 2715.96   63.15
   0  -2   4 2741.32   63.06
   0  -2   5  105.43    9.61
   0  -2  -5  101.18    9.32
   0  -2   5  109.20    7.68
   0  -2   6 1454.93   45.58
   0  -2  -6 1415.17   44.41
   0  -2  -7  425.55   23.27
   0  -2   7  442.86   24.58
   0  -2  -8  168.42   15.44
   0  -2   8  187.93   16.93
   0  -2   9   42.79    9.09
   0  -2  -9   44.70    8.76
   0  -1   0    0.37    0.35
   0  -1   1  273.38    8.53
   0  -1  -1  285.14    9.28
   0  -1  -1  278.25    7.91
   0  -1   2  397.95   12.06
   0  -1  -2  407.04   13.71
   0  -1  -2  423.02   10.74
   0  -1   3 2615.84   55.75
   0  -1   3 2771.37   59.05
   0  -1  -3 2779.45   59.33
   0  -1  -3 2786.11   53.04
   0  -1  -4 1660.48   41.87
   0  -1   4 1614.46   41.62
   0  -1   4 1526.60   37.33
   0  -1  -4 1647.46   34.38
   0  -1   5  470.77   20.66
   0  -1   5  497.09   17.43
   0  -1  -5  477.04   20.40
   0  -1   6  113.53   10.58
   0  -1  -6  107.58   10.01
   0  -1  -7 1377.80   44.33
   0  -1   7 1231.99   43.53
   0  -1  -8  311.03   20.64
   0  -1   8  314.69   21.35
   0  -1  -9  215.95   18.25
   0  -1   9  198.31   18.30
   0   0  -1  400.16    9.86
   0   0   1  389.41    9.72
   0   0  -2 1468.41   32.99
   0   0   2 1554.79   30.66
   0   0   2 1541.17   33.04
   0   0  -2 1544.61   30.20
   0   0   3 1167.69   29.73
   0   0   3 1177.34   26.62
   0   0  -3 1260.75   26.04
   0   0  -3 1191.52   30.00
   0   0   4  102.07    5.73
   0   0   4   90.97    7.18
   0   0  -4   97.79    5.26
   0   0  -4   79.57    6.76
   0   0  -5  192.49   12.03
   0   0   5  235.91   10.02
   0   0   5  200.20   12.33
   0   0  -5  208.15    8.78
   0   0  -6  615.75   24.96
   0   0   6  613.20   25.30
   0   0   7  406.90   21.78
   0   0  -7  380.95   20.90
   0   0   8    1.78    3.12
   0   0  -8    3.70    3.23
   0   0   9   10.51    4.51
   0   0  -9    1.42    2.92
   0   1   0    1.53    0.55
   0   1  -1  297.31    8.86
   0   1  -1  284.08    7.87
   0   1   1  280.93    8.06
   0   1  -2  374.62   11.60
   0   1   2  379.21   10.83
   0   1  -2  388.05   11.40
   0   1  -3 2763.00   54.85
   0   1   3 2779.86   53.97
   0   1   3 2636.05   56.06
   0   1  -3 2748.73   57.17
   0   1  -4 1635.86   39.92
   0   1   4 1600.59   35.36
   0   1   4 1593.57   39.11
   0   1  -4 1614.38   36.17
   0   1   5  492.02   15.63
   0   1   5  500.92   19.61
   0   1  -5  488.30   15.90
   0   1  -5  482.63   19.64
   0   1   6  123.57   10.18
   0   1  -6  110.16    9.73
   0   1   7 1340.23   43.22
   0   1  -7 1381.47   43.86
   0   1  -8  360.95   21.68
   0   1   8  355.82   21.44
   0   2  -1 6906.65  128.84
   0   2   2  605.16   13.42
   0   2  -2  581.77   16.08
   0   2  -2  586.74   17.76
   0   2  -3 3039.08   62.59
   0   2   3 3009.75   61.52
   0   2   3 3059.18   59.96
   0   2  -3 2996.04   63.50
   0   2   4 2503.82   54.59
   0   2  -4 2603.91   57.18
   0   2   4 2537.85   53.65
   0   2   5   95.47    6.46
   0   2   5  108.25    7.96
   0   2  -5  104.05    8.45
   0   2  -6 1517.73   43.78
   0   2   6 1498.39   42.01
   0   2  -7  393.79   20.82
   0   3   0    0.02    0.86
   0   3  -1 1453.06   35.96
   0   3   1 1455.53   35.16
   0   3  -2 4014.49   81.34
   0   3   2 3862.35   79.30
   0   3  -2 3896.96   77.07
   0   3   3  860.46   25.25
   0   3  -3  906.28   27.23
   0   3   3  919.08   20.62
   0   3  -3  915.46   25.18
   0   3   4  646.19   18.41
   0   3  -4  643.86   21.73
   0   3   4  637.76   20.78
   0   3  -4  629.90   22.53
   0   3  -5   92.08    8.14
   0   3  -5   92.97    8.15
   0   3  -6  295.44   16.38
   0   4   0 2406.20   55.99
   0   4   1 1478.50   38.61
   0   4  -1 1482.44   39.47
   0   4   2  796.05   25.44
   0   4  -2  805.28   26.70
   0   4  -3  748.94   22.32
   0   4  -3  722.69   25.43
   0   4   4  374.61   16.49
   0   4  -4  378.58   16.05
   0   4  -4  352.24   17.42
   0   4  -5  269.57   15.52
   0   4  -6  312.31   17.27
   0   5   0   12.09    3.67
   0   5   1  316.83   16.18
   0   5  -1  337.07   16.99
   0   5  -2  224.82   13.92
   0   5   2  216.97   13.20
   0   5  -3  664.61   26.11
   0   5   3  625.83   24.18
   0   5   4   50.30    6.50
   0   5  -4   47.01    6.68
   0   5  -5  466.89   22.59
   0   5  -6   28.49    5.65
   0   6   0  274.72   16.59
   0   6  -1  129.10   11.28
   0   6   1  102.55    9.87
   0   6   2  174.71   12.94
   0   6  -2  185.82   13.89
   0   6   3  292.09   17.05
   0   6  -3  261.85   17.13
   0   6  -4  491.13   24.41
   0   6   4  489.11   22.88
   0   6  -5  210.78   15.93
   0   6  -6  773.67   33.03
   0   7   0   12.39    4.76
   0   7   1  359.25   20.83
   0   7  -1  383.25   21.61
   0   7   2  854.88   33.93
   0   7  -2  879.29   35.13
   0   7  -3   21.89    5.85
   0   7   3   27.01    5.75
   0   7  -4  622.28   29.74
   0   7   4  600.15   27.83
   0   7  -5   23.28    6.30
   0   7  -6   38.83    7.66
   0   8   0  822.13   35.38
   0   8  -1   34.66    7.14
   0   8   1   24.64    6.20
   0   8   2  152.94   14.40
   0   8  -2  189.29   16.43
   0   8  -3   63.97    9.74
   0   8   3   76.87   10.20
   0   8   4  110.18   12.20
   0   8  -4  118.03   13.44
   0   8  -5  257.48   20.30
   0   8  -6  620.69   32.97
   0   9   0    6.76    4.46
   0   9  -1  536.15   30.03
   0   9   1  512.67   29.30
   0   9  -2  438.26   27.41
   0   9   2  447.02   27.14
   0   9  -3   82.63   11.96
   0   9   3   99.21   12.52
   0   9  -4  573.16   32.54
   0   9  -5   11.48    5.36
   0  10   0  301.32   23.68
   0  10   1   17.85    6.35
   0  10  -1   24.74    7.35
   0  10   2   27.76    7.48
   0  10  -2   38.67    8.96
   0  10  -3  110.37   14.85
   0  10   3  116.78   14.52
   1 -10  -3  238.99   20.97
  -1 -10   3  244.63   22.76
   1 -10  -2  533.39   32.11
  -1 -10   2  564.60   34.19
  -1 -10   1  253.63   22.15
   1 -10  -1  248.53   21.71
   1 -10   0   35.49    8.56
  -1 -10   0   32.65    8.50
   1 -10   1   33.10    8.14
  -1 -10  -1   18.64    6.02
  -1 -10  -2   34.32    8.03
   1 -10   2   45.89    9.42
   1 -10   3  265.56   22.89
  -1 -10  -3  232.07   20.69
  -1 -10  -3  265.72   21.57
  -1  -9   5  134.24   16.19
   1  -9  -5  138.45   15.00
   1  -9  -4  244.03   18.81
   1  -9  -4  247.92   19.91
  -1  -9   4  245.78   21.68
   1  -9  -3   14.00    5.50
  -1  -9   3   18.89    6.28
   1  -9  -2  342.45   23.72
  -1  -9   2  345.45   24.96
   1  -9  -1  239.16   19.70
  -1  -9   1  245.15   20.66
   1  -9   0   21.71    6.57
  -1  -9   0   30.36    7.52
   1  -9   1  244.42   20.12
  -1  -9  -1  206.64   18.40
   1  -9   2 1150.69   47.09
  -1  -9  -2 1057.57   44.02
  -1  -9  -2 1098.06   43.99
   1  -9   3  418.73   27.62
  -1  -9  -3  430.23   26.09
  -1  -9  -3  446.04   27.43
  -1  -9  -4  250.36   20.95
   1  -9   4  249.98   21.13
  -1  -8   6   55.49   10.27
  -1  -8   6   62.36   10.25
   1  -8  -6   44.54    9.01
  -1  -8   5  201.38   17.19
   1  -8  -5  177.17   16.23
  -1  -8   5  191.09   18.12
  -1  -8   4  711.42   35.76
   1  -8  -4  761.55   34.01
   1  -8  -4  662.24   31.52
  -1  -8   4  748.85   32.23
   1  -8  -3  152.34   14.55
  -1  -8   3  127.15   14.26
   1  -8  -3  152.69   13.40
   1  -8  -2  254.98   18.95
  -1  -8   2  290.68   21.19
   1  -8  -2  271.08   17.12
  -1  -8   1  203.89   17.46
   1  -8  -1  217.03   17.41
   1  -8   0    1.31    2.60
  -1  -8   0    0.34    2.92
  -1  -8  -1  262.76   19.34
   1  -8   1  273.58   19.92
   1  -8   2   86.47   11.36
  -1  -8  -2   78.10   10.26
  -1  -8  -2   98.81   11.59
  -1  -8  -3    6.74    4.13
  -1  -8  -3   10.15    4.24
   1  -8   3   18.60    5.80
  -1  -8  -4   47.55    9.00
   1  -8   4   34.27    7.67
   1  -8   4   43.50    7.87
   1  -8   5   69.77   10.54
   1  -8   5   71.50   10.82
  -1  -8  -5   77.54   11.84
   1  -8   6   36.88    8.27
  -1  -8  -6   33.84    8.24
   1  -7  -7  154.82   16.28
  -1  -7   7  143.29   16.06
   1  -7  -6   24.53    6.37
  -1  -7   6    9.32    4.90
  -1  -7   6   18.49    5.59
   1  -7  -5  517.44   25.70
  -1  -7   5  496.76   26.66
  -1  -7   5  499.95   28.12
   1  -7  -5  498.97   26.79
  -1  -7   4   -0.11    2.08
  -1  -7   4   -0.03    1.57
   1  -7  -4    1.25    2.56
   1  -7  -4   -0.45    2.37
  -1  -7   3  178.50   15.59
   1  -7  -3  148.55   13.35
  -1  -7   3  165.62   12.68
   1  -7  -3  158.88   13.26
  -1  -7   2 2535.55   72.24
   1  -7  -2 2544.86   70.14
   1  -7  -2 2661.91   66.65
  -1  -7   2 2661.00   63.32
   1  -7  -1  403.63   22.52
  -1  -7   1  395.24   22.91
   1  -7  -1  418.96   19.32
  -1  -7   0   22.34    5.50
   1  -7   0   42.71    7.48
  -1  -7  -1  678.27   30.01
   1  -7   1  725.16   31.50
   1  -7   2  118.13   12.21
  -1  -7  -2  102.00   10.78
   1  -7   2  107.24    9.61
  -1  -7  -3  375.02   22.59
   1  -7   3  361.12   22.10
  -1  -7  -3  395.47   21.42
   1  -7   3  373.51   20.42
   1  -7   4 1012.71   40.13
   1  -7   4 1105.73   40.29
  -1  -7  -4  989.48   40.98
   1  -7   5   35.01    7.42
   1  -7   5   36.03    7.11
  -1  -7  -5   32.81    7.36
  -1  -7  -6   10.70    4.93
   1  -7   6    0.42    2.21
   1  -6  -7  240.84   19.70
  -1  -6   7  230.36   19.63
   1  -6  -6   53.04    9.01
  -1  -6   6   59.40    9.08
  -1  -6   6   50.78    8.80
  -1  -6   5  168.77   14.34
   1  -6  -5  170.79   14.49
  -1  -6   5  149.57   14.02
   1  -6  -5  160.13   12.76
   1  -6  -4  647.03   27.13
  -1  -6   4  611.94   28.67
   1  -6  -4  608.59   27.10
  -1  -6   4  611.13   26.73
   1  -6  -3  447.87   22.03
  -1  -6   3  410.17   22.58
  -1  -6   3  461.04   20.80
   1  -6  -3  444.28   21.26
  -1  -6   2  750.09   25.46
   1  -6  -2  667.80   25.88
  -1  -6   2  701.33   29.67
   1  -6  -2  673.55   28.00
   1  -6  -1   50.73    7.43
  -1  -6   1   44.58    6.97
  -1  -6   1   51.91    5.32
   1  -6  -1   39.63    5.35
   1  -6   0 1351.60   42.88
  -1  -6   0 1288.85   42.46
   1  -6   0 1402.08   36.60
  -1  -6  -1  202.47   14.34
   1  -6   1  216.78   15.17
   1  -6   1  245.03   12.71
   1  -6   2  208.05   14.96
  -1  -6  -2  188.06   13.59
   1  -6   2  237.89   13.79
   1  -6   3  197.81   14.02
  -1  -6  -3  217.04   14.34
   1  -6   3  222.75   15.67
  -1  -6  -3  231.88   16.51
   1  -6   4  682.41   29.72
  -1  -6  -4  714.32   27.41
  -1  -6  -4  687.75   31.52
   1  -6   4  742.40   30.68
   1  -6   5  286.33   19.83
  -1  -6  -5  308.11   21.07
   1  -6   5  351.54   20.50
  -1  -6  -6   11.20    4.88
   1  -6   6   13.94    5.20
   1  -6   7  137.95   15.68
  -1  -6  -7  121.73   14.35
   1  -5  -8  557.72   31.48
  -1  -5   8  551.34   32.11
  -1  -5   7   45.76    8.60
   1  -5  -7   41.06    8.02
   1  -5  -6   73.79    9.79
  -1  -5   6   81.82    9.77
  -1  -5   6   79.97   10.30
   1  -5  -5   87.97    8.71
  -1  -5   5   91.33   10.15
   1  -5  -5   92.26   10.24
  -1  -5   5  101.37   10.57
  -1  -5   4  168.80   13.24
   1  -5  -4  182.22   12.58
   1  -5  -4  176.13   13.11
  -1  -5   4  159.40   12.30
  -1  -5   3  434.05   21.39
   1  -5  -3  455.22   20.42
  -1  -5   3  451.04   19.62
   1  -5  -3  454.77   20.56
   1  -5  -2  567.00   23.01
  -1  -5   2  539.78   20.13
   1  -5  -2  516.98   20.85
  -1  -5   2  553.46   23.86
  -1  -5   1 2948.46   62.13
   1  -5  -1 2931.03   69.38
  -1  -5   1 2964.09   70.66
   1  -5  -1 2841.87   56.45
   1  -5  -1 2871.70   64.18
   1  -5   0 1187.61   29.08
  -1  -5   0 1139.14   26.96
  -1  -5   0 1195.28   27.72
   1  -5   0 1114.91   35.62
   1  -5   0 1096.27   29.81
  -1  -5   0 1100.40   35.39
  -1  -5  -1 3288.96   76.39
   1  -5   1 3222.82   76.97
   1  -5   1 3419.53   71.79
  -1  -5  -1 3470.21   63.47
   1  -5   2  158.58   10.74
  -1  -5  -2  192.33   12.19
   1  -5   2  172.72   12.37
   1  -5   3  195.30   13.26
  -1  -5  -3  215.42   12.74
   1  -5   3  201.81   13.60
  -1  -5  -3  218.79   15.13
   1  -5   4  810.95   30.56
  -1  -5  -4  824.20   33.25
   1  -5   4  820.69   31.79
  -1  -5  -4  842.65   27.54
   1  -5   5  536.17   24.28
  -1  -5  -5  571.41   28.08
   1  -5   5  570.35   27.46
  -1  -5  -6   41.61    7.84
   1  -5   6   41.49    7.92
  -1  -5  -7   57.50    9.46
   1  -5   7   44.62    8.76
  -1  -5  -8  201.69   18.59
   1  -5   8  210.73   20.03
   1  -4  -8   93.29   12.34
  -1  -4   8  110.54   13.57
  -1  -4   7  259.06   19.35
   1  -4  -7  243.51   18.52
  -1  -4   6  924.82   34.04
  -1  -4   6  932.44   36.44
   1  -4  -6  958.95   36.58
  -1  -4   5   22.54    4.63
   1  -4  -5   40.72    5.35
  -1  -4   5   25.72    5.39
   1  -4  -5   36.09    6.31
   1  -4  -4  625.98   22.88
  -1  -4   4  572.04   24.12
   1  -4  -4  596.19   24.48
  -1  -4   4  623.60   24.56
   1  -4  -3  729.02   25.44
  -1  -4   3  705.67   26.12
  -1  -4   3  703.67   24.52
   1  -4  -3  658.82   23.96
  -1  -4   2  212.63   12.85
  -1  -4   2  202.59   10.79
   1  -4  -2  219.55   11.73
   1  -4  -2  206.49   12.01
  -1  -4   1 1416.37   38.96
  -1  -4   1 1389.08   33.53
   1  -4  -1 1428.41   38.50
   1  -4  -1 1433.09   29.47
   1  -4  -1 1312.27   34.57
   1  -4   0 1923.25   40.95
   1  -4   0 1868.29   47.07
  -1  -4   0 1903.27   47.31
  -1  -4   0 1875.25   39.53
  -1  -4   0 1885.28   39.51
   1  -4   0 1805.33   40.91
  -1  -4  -1   73.74    6.92
   1  -4   1   89.07    6.56
   1  -4   1   88.12    4.34
   1  -4   1   83.05    7.54
   1  -4   2 1512.11   33.11
   1  -4   2 1507.97   39.60
  -1  -4  -2 1533.23   39.24
   1  -4   2 1445.79   40.30
   1  -4   3 1618.16   44.39
  -1  -4  -3 1580.85   46.35
   1  -4   3 1614.05   38.56
  -1  -4  -3 1709.33   41.25
   1  -4   3 1590.27   43.32
   1  -4   4 1084.77   36.41
   1  -4   4 1061.01   33.50
  -1  -4  -4 1068.47   37.34
  -1  -4  -4 1149.65   30.74
   1  -4   5  829.43   28.44
  -1  -4  -5  799.37   32.52
   1  -4   5  796.47   32.22
   1  -4   6    5.21    3.19
  -1  -4  -6    2.67    3.27
   1  -4   7   97.48   12.45
  -1  -4  -7  111.77   12.53
   1  -4   8  245.15   20.99
  -1  -4  -8  240.83   19.73
   1  -3  -9    3.68    3.58
  -1  -3   9   -0.60    3.14
  -1  -3   8  218.62   18.52
   1  -3  -8  195.72   17.25
   1  -3  -7  173.68   15.16
  -1  -3   7  164.08   14.94
   1  -3  -6  110.75   11.05
  -1  -3   6   91.64   10.17
   1  -3  -5  829.68   30.61
  -1  -3   5  812.59   30.33
   1  -3  -5  824.43   25.81
  -1  -3   4 1681.34   44.91
   1  -3  -4 1639.19   44.88
   1  -3  -4 1603.07   41.03
  -1  -3   3  126.19    8.83
   1  -3  -3  135.23    9.34
   1  -3  -3  129.18    8.51
   1  -3  -2 3617.01   75.97
   1  -3  -2 3610.38   75.34
  -1  -3   2 3635.68   74.65
   1  -3  -1 4784.08   94.75
   1  -3  -1 5081.11   98.61
  -1  -3   1 4904.91   94.14
  -1  -3   0 2253.11   50.58
   1  -3   0 2226.60   50.79
  -1  -3   0 2275.97   45.38
   1  -3   0 2237.35   45.16
   1  -3   0 2209.69   46.07
   1  -3   1 2683.86   52.81
  -1  -3  -1 2721.26   58.13
   1  -3   1 2698.06   57.04
   1  -3   1 2717.60   59.18
   1  -3   2  268.76   12.80
  -1  -3  -2  282.92   11.79
   1  -3   2  275.43   10.43
   1  -3   2  288.19   12.87
  -1  -3  -3  262.12   10.83
   1  -3   3  264.54   11.54
   1  -3   3  228.53   13.03
  -1  -3  -3  255.82   14.42
   1  -3   3  236.84   11.99
   1  -3   4  529.47   22.81
   1  -3   4  553.79   20.01
  -1  -3  -4  533.55   23.33
  -1  -3  -4  591.85   17.21
   1  -3   5 1724.39   50.63
  -1  -3  -5 1733.23   50.54
   1  -3   6   67.77    9.39
  -1  -3  -6   83.36    9.71
   1  -3   7  126.99   13.64
  -1  -3  -7  135.05   13.15
  -1  -3  -8  132.82   13.99
   1  -3   8  146.13   15.73
   1  -2  -9  101.94   13.16
  -1  -2   9  101.26   13.39
   1  -2  -8   18.98    5.72
  -1  -2   8   18.38    5.74
   1  -2  -7  475.12   25.12
  -1  -2   7  503.43   25.69
  -1  -2   6  123.87   10.17
  -1  -2   6  114.46   10.90
  -1  -2   5  484.64   20.34
  -1  -2   5  486.50   21.46
   1  -2  -5  492.85   21.78
   1  -2  -5  500.70   17.97
   1  -2  -4 3177.43   70.41
   1  -2  -4 3100.22   65.01
  -1  -2   4 3133.96   70.03
  -1  -2   4 2912.00   67.87
  -1  -2   3  668.31   21.63
   1  -2  -3  665.48   20.03
  -1  -2   3  647.87   21.67
   1  -2  -3  663.07   21.88
   1  -2  -2 1451.05   35.02
   1  -2  -2 1450.76   34.65
  -1  -2   2 1475.90   36.35
  -1  -2   2 1521.36   35.04
   1  -2  -1 4898.90   94.20
  -1  -2   1 4836.95   94.80
   1  -2  -1 4766.95   91.87
  -1  -2  -1  810.61   20.46
   1  -2   1  771.39   19.26
   1  -2   1  787.90   21.26
   1  -2   1  815.20   21.46
   1  -2   2 5480.54  107.56
  -1  -2  -2 5657.68  105.53
   1  -2   2 5517.29  107.53
   1  -2   2 5692.83  110.82
   1  -2   3 1099.37   31.89
  -1  -2  -3 1149.19   24.91
   1  -2   3 1132.72   29.95
  -1  -2  -3 1098.75   32.56
   1  -2   3 1068.94   27.56
   1  -2   4  257.06   10.83
   1  -2   4  272.68   13.60
  -1  -2  -4  247.19   14.20
  -1  -2  -4  256.25    8.18
   1  -2   4  251.77   14.34
  -1  -2  -5  121.54   10.41
   1  -2   5  121.46   10.81
  -1  -2  -6   76.98    8.87
   1  -2   6   73.33    9.14
  -1  -2  -7  131.63   12.59
   1  -2   7  153.87   14.55
   1  -2   8   39.74    8.37
  -1  -2  -8   30.12    6.56
   1  -2   9   66.66   11.24
  -1  -2  -9   44.67    8.70
   1  -1  -9  377.30   25.42
  -1  -1   9  428.21   26.75
  -1  -1   8  790.50   35.17
   1  -1  -8  805.48   35.61
   1  -1  -7  187.54   15.16
  -1  -1   7  213.48   15.69
  -1  -1   6  324.63   18.21
  -1  -1   6  376.41   17.08
   1  -1  -6  348.41   19.08
  -1  -1   5  475.38   18.89
  -1  -1   5  502.14   21.14
   1  -1  -5  545.22   18.12
   1  -1  -5  502.16   21.45
  -1  -1   4  174.34    9.75
  -1  -1   4  181.39   10.76
   1  -1  -4  161.94    8.66
   1  -1  -4  184.58   11.09
  -1  -1   3   81.31    6.19
   1  -1  -3   79.70    6.40
  -1  -1   3   81.78    5.99
   1  -1  -3   83.55    5.53
   1  -1  -2 1771.66   38.37
   1  -1  -2 1808.03   39.83
  -1  -1   2 1791.82   39.66
   1  -1  -1 1894.51   39.18
  -1  -1   1 1865.29   39.47
   1  -1  -1 1891.33   38.40
   1  -1   0 1969.75   39.54
  -1  -1   0 1979.34   39.17
   1  -1   0 1990.74   36.77
   1  -1   0 2009.27   39.12
  -1  -1   0 1855.53   38.86
   1  -1   1    2.00    0.91
   1  -1   1    1.49    0.82
   1  -1   1    1.34    0.67
  -1  -1  -2 2838.42   49.81
   1  -1   2 2706.07   57.06
   1  -1   2 2667.79   55.99
  -1  -1  -2 2673.97   57.15
   1  -1   2 2801.68   52.10
  -1  -1  -3  687.69   22.05
   1  -1   3  681.28   16.51
   1  -1   3  658.73   21.26
   1  -1   3  656.70   22.00
   1  -1   4 1785.09   45.97
   1  -1   4 1737.48   36.34
  -1  -1  -4 1766.54   44.91
   1  -1   4 1773.54   45.04
   1  -1   5 2115.57   55.41
  -1  -1  -5 2082.27   53.45
   1  -1   6  295.43   17.90
  -1  -1  -6  277.88   16.38
  -1  -1  -7  686.92   29.22
   1  -1   7  648.72   30.31
  -1  -1  -8  197.95   15.87
   1  -1   8  166.18   16.04
   1  -1   9  148.98   16.18
  -1  -1  -9  155.79   15.34
  -1   0   9   14.53    5.07
   1   0  -9   13.79    5.29
  -1   0   8   88.15   10.73
   1   0  -8   72.79   10.18
  -1   0   7  240.36   16.34
   1   0  -7  231.79   16.63
  -1   0   6  371.12   18.82
  -1   0   6  401.53   16.86
   1   0  -6  358.06   19.27
  -1   0   5  401.56   16.14
  -1   0   5  397.97   17.88
   1   0  -5  416.80   19.05
   1   0  -5  422.64   15.92
   1   0  -4 4197.47   83.70
   1   0  -4 4277.96   88.32
  -1   0   4 4099.08   84.20
  -1   0   4 4162.29   86.19
   1   0  -3 1024.03   25.99
  -1   0   3 1021.60   26.41
  -1   0   3 1027.90   26.68
   1   0  -3 1045.16   28.10
  -1   0   2  100.99    5.72
   1   0  -2   94.03    5.41
   1   0  -2  106.80    6.24
  -1   0   1 3167.21   61.31
   1   0  -1 3218.73   61.23
   1   0  -1 3180.99   61.71
  -1   0   0 1462.06   28.86
   1   0   0 1426.15   28.80
   1   0   0 1451.32   29.35
  -1   0  -2 2088.25   44.10
   1   0   2 2122.69   45.49
   1   0   3  392.51   15.03
  -1   0  -3  368.84   13.82
  -1   0  -4  642.08   14.58
  -1   0  -4  636.52   21.28
   1   0   4  648.84   22.72
  -1   0  -5  407.08   17.63
   1   0   5  393.64   18.62
  -1   0  -6  494.85   21.64
   1   0   6  520.39   23.74
   1   0   7   49.35    7.85
  -1   0  -7   46.52    6.93
   1   0   8  631.83   31.19
  -1   0  -8  688.96   30.22
   1   0   9  116.77   14.01
   1   1  -9  401.34   25.84
   1   1  -8  841.96   36.37
  -1   1   8  841.10   34.54
   1   1  -7  196.60   15.30
  -1   1   7  209.91   14.52
   1   1  -6  351.91   19.06
  -1   1   6  365.57   17.79
   1   1  -5  473.80   20.70
   1   1  -5  506.19   18.29
  -1   1   5  484.92   19.15
  -1   1   5  464.03   17.83
   1   1  -4  164.89    9.21
  -1   1   4  159.51    9.17
  -1   1   4  176.22    9.38
   1   1  -4  190.80   11.18
   1   1  -3   85.78    6.11
  -1   1   3   82.68    5.92
  -1   1   3   83.02    5.44
   1   1  -3   83.50    6.63
   1   1  -2 1759.21   40.06
   1   1  -2 1782.13   39.10
  -1   1   2 1751.57   38.96
   1   1  -1 1834.58   39.60
   1   1  -1 1864.51   38.95
  -1   1   1 1821.91   39.00
   1   1   0 1981.45   39.73
  -1   1   0 1965.03   40.06
   1   1   1    1.37    0.58
  -1   1  -1    0.93    0.54
   1   1   1    1.10    0.71
   1   1   2 2734.13   55.65
  -1   1  -2 2861.55   52.95
  -1   1  -2 2765.32   53.23
  -1   1  -3  646.15   18.00
   1   1   3  632.46   19.76
  -1   1  -3  662.16   16.45
  -1   1  -4 1828.76   36.14
   1   1   4 1586.87   31.56
  -1   1  -4 1810.66   40.18
   1   1   4 1620.61   41.68
   1   1   5 2041.46   53.11
  -1   1  -5 2219.46   51.43
   1   1   6  286.50   16.57
  -1   1  -6  284.98   15.31
   1   1   7  733.21   30.66
  -1   1  -7  752.03   28.97
   1   1   8  218.92   17.06
   1   2  -8   20.12    5.64
   1   2  -7  493.86   25.08
   1   2  -6  126.04   11.17
  -1   2   6  124.55    9.64
   1   2  -5  480.05   19.22
  -1   2   5  470.09   18.41
  -1   2   5  490.69   18.20
   1   2  -5  491.46   21.22
  -1   2   4 2932.03   63.79
   1   2  -4 2919.86   64.82
  -1   2   4 2925.71   61.12
   1   2  -4 2850.37   66.44
  -1   2   3  629.93   20.21
  -1   2   3  620.24   16.93
   1   2  -3  626.83   21.21
   1   2  -3  633.66   20.74
   1   2  -2 1459.75   35.96
  -1   2   2 1487.25   35.76
   1   2  -2 1495.69   36.32
   1   2  -1 4951.08   95.26
  -1   2   1 4870.49   94.99
   1   2  -1 4847.62   95.04
  -1   2  -1  819.29   21.49
  -1   2  -1  809.09   19.08
   1   2   1  822.25   20.53
   1   2   1  802.49   20.18
  -1   2  -2 5580.28  104.63
   1   2   2 5572.47  106.41
   1   2   2 5711.53  102.18
  -1   2  -2 5530.58  104.98
   1   2   2 5421.23  102.58
  -1   2  -2 5655.54   99.72
   1   2   3 1093.95   27.78
  -1   2  -3 1164.45   28.10
   1   2   3 1104.09   24.79
  -1   2  -3 1113.33   25.69
   1   2   3 1101.72   30.85
  -1   2  -4  257.65   11.00
   1   2   4  258.02   12.14
  -1   2  -4  266.30   11.19
   1   2   4  264.94    8.74
  -1   2  -5  127.58    8.60
   1   2   5  128.76    9.32
  -1   2  -6   72.12    7.34
   1   2   6   79.79    8.26
   1   3  -7  189.20   15.16
   1   3  -6  102.23   10.25
   1   3  -5  852.02   29.99
  -1   3   5  787.83   26.97
  -1   3   5  816.89   24.13
  -1   3   4 1563.09   41.82
  -1   3   4 1669.20   36.65
   1   3  -4 1619.00   43.16
   1   3  -4 1608.73   43.69
  -1   3   3  125.28    5.57
   1   3  -3  119.56    8.73
  -1   3   3  112.89    8.39
  -1   3   2 3613.25   76.17
   1   3  -2 3565.01   75.49
  -1   3   1 4989.92  100.18
   1   3  -1 5021.09  100.45
   1   3   0 2144.44   49.55
  -1   3   0 2271.85   50.59
   1   3   0 2234.35   43.47
  -1   3  -1 2684.31   59.07
   1   3   1 2723.57   54.54
   1   3   1 2724.36   57.50
   1   3   2  294.70   12.04
  -1   3  -2  291.32   12.91
   1   3   2  293.31   11.58
  -1   3  -2  298.22   10.28
  -1   3  -3  259.07    9.39
  -1   3  -3  275.30   11.64
   1   3   3  240.99   10.32
  -1   3  -3  260.60   12.37
   1   3   3  248.18    9.57
   1   3   3  248.48   12.61
  -1   3  -4  501.11   18.88
   1   3   4  526.03   16.52
   1   3   4  540.08   17.58
  -1   3  -4  539.23   17.23
   1   3   5 1802.69   44.85
  -1   3  -5 1821.51   45.32
   1   4  -6  874.13   33.76
   1   4  -6  960.77   34.60
  -1   4   5   38.92    5.68
   1   4  -5   24.45    4.89
   1   4  -5   33.67    5.82
  -1   4   4  593.32   23.57
   1   4  -4  629.03   25.18
   1   4  -4  600.61   23.72
   1   4  -3  656.83   23.72
  -1   4   3  619.47   23.62
   1   4  -3  683.91   25.48
   1   4  -2  223.62   13.07
  -1   4   2  202.75   12.12
   1   4  -1 1418.29   39.15
  -1   4   1 1424.20   38.89
   1   4   0 1809.82   46.14
  -1   4   0 1954.92   47.53
   1   4   0 1885.34   36.96
   1   4   1   81.37    6.89
  -1   4  -1   82.00    7.33
   1   4   1   84.63    5.01
   1   4   2 1426.45   37.88
   1   4   2 1510.37   36.14
  -1   4  -2 1540.08   31.71
  -1   4  -2 1497.26   40.38
  -1   4  -3 1585.92   43.09
   1   4   3 1625.34   40.57
  -1   4  -3 1683.59   37.34
   1   4   4 1031.86   29.51
  -1   4  -4 1105.38   33.36
  -1   4  -4 1051.42   29.71
  -1   4  -5  851.15   29.05
   1   5  -6   83.77   10.21
   1   5  -5   89.88    9.99
  -1   5   5  106.84   10.17
   1   5  -4  181.82   13.89
  -1   5   4  181.82   13.30
   1   5  -4  207.32   13.30
  -1   5   3  391.11   19.55
   1   5  -3  447.20   21.42
  -1   5   2  547.95   23.17
   1   5  -2  569.11   23.84
   1   5  -1 2931.04   69.80
  -1   5   1 2922.67   69.81
  -1   5   0 1171.60   36.01
   1   5   0 1125.64   35.02
  -1   5  -1 3417.36   77.48
   1   5   1 3276.86   75.36
  -1   5  -2  162.36   11.78
   1   5   2  155.17   10.67
  -1   5  -3  201.24   13.43
   1   5   3  198.39   12.13
  -1   5  -4  829.68   30.21
   1   5   4  806.03   27.23
  -1   5  -5  571.08   24.83
   1   6  -6   39.49    7.50
  -1   6   5  150.46   13.15
   1   6  -5  153.68   13.93
   1   6  -4  629.89   28.83
  -1   6   4  628.39   27.81
  -1   6   3  431.18   22.04
   1   6  -3  450.80   23.22
  -1   6   2  707.06   28.86
   1   6  -2  676.02   28.72
  -1   6   1   43.59    6.78
   1   6  -1   50.91    7.23
   1   6   0 1368.52   42.35
  -1   6   0 1372.08   42.97
  -1   6  -1  222.49   15.03
   1   6   1  216.13   14.23
   1   6   2  218.92   14.31
  -1   6  -2  229.74   15.42
  -1   6  -3  191.86   14.38
   1   6   3  209.43   13.78
  -1   6  -4  653.33   28.33
  -1   6  -5  335.24   19.90
   1   7  -6   16.88    5.52
   1   7  -5  502.91   27.71
  -1   7   5  506.07   26.75
   1   7  -4    1.55    2.73
  -1   7   4    0.95    1.93
  -1   7   3  143.80   13.35
   1   7  -3  161.61   14.45
  -1   7   2 2522.52   69.70
   1   7  -2 2565.43   70.15
  -1   7   1  413.71   23.01
   1   7  -1  435.47   23.43
  -1   7   0   30.50    6.28
   1   7   0   21.82    5.40
  -1   7  -1  657.76   29.76
   1   7   1  695.77   29.41
   1   7   2  105.51   10.65
  -1   7  -2   75.67    9.91
  -1   7  -3  329.45   20.75
   1   7   3  340.39   19.60
  -1   7  -4  993.63   38.98
  -1   7  -5   28.85    6.38
   1   8  -6   42.92    8.84
   1   8  -5  151.42   15.83
  -1   8   4  676.98   33.16
   1   8  -4  644.62   33.08
   1   8  -3  160.86   15.52
  -1   8   3  123.82   13.39
  -1   8   2  252.42   19.27
   1   8  -2  236.65   18.73
   1   8  -1  208.50   17.08
  -1   8   1  200.94   16.97
  -1   8   0    0.39    2.29
   1   8   0    3.54    2.96
   1   8   1  289.71   19.66
  -1   8  -1  259.27   19.41
   1   8   2   83.07   10.46
  -1   8  -2   87.85   11.16
   1   8   3   11.84    4.24
  -1   8  -3   12.83    5.20
  -1   8  -4   49.49    8.76
  -1   8  -5   65.73   10.30
   1   9  -5  145.74   16.55
   1   9  -4  216.27   19.85
  -1   9   4  253.05   20.83
  -1   9   3   19.09    6.26
   1   9  -3   25.25    7.11
   1   9  -2  354.62   24.54
  -1   9   2  306.09   22.74
   1   9  -1  260.42   20.71
  -1   9   1  252.72   20.60
  -1   9   0   27.84    7.07
   1   9   0   63.31   10.36
  -1   9  -1  261.95   21.01
   1   9   1  208.51   18.22
  -1   9  -2 1074.04   45.30
   1   9   2 1146.92   45.20
  -1   9  -3  416.48   27.04
   1   9   3  461.11   27.07
  -1   9  -4  237.45   20.27
  -1  10   3  208.20   19.77
   1  10  -3  222.25   20.82
  -1  10   2  528.15   32.43
   1  10  -2  624.91   35.18
  -1  10   1  253.77   22.11
   1  10  -1  246.37   21.60
  -1  10   0   33.40    8.50
   1  10   0   35.58    8.36
   1  10   1   24.76    7.11
  -1  10  -1   18.81    6.74
   1  10   2   46.45    9.20
  -1  10  -2   35.48    8.79
   1  10   3  265.80   21.67
  -1  10  -3  252.10   22.29
  -2 -10   2   67.22   12.02
   2 -10  -2   47.27    9.69
   2 -10  -1    9.07    5.25
  -2 -10   1   19.77    7.11
   2 -10   0  193.17   19.20
  -2 -10   0  209.48   20.24
   2 -10   1   90.37   13.50
  -2 -10  -1   68.11   11.31
  -2 -10  -2   22.66    6.75
   2 -10   2   28.19    7.65
  -2 -10  -2   35.88    8.32
  -2  -9   4   83.65   13.09
   2  -9  -4   92.75   12.65
  -2  -9   3  147.42   16.80
   2  -9  -3  141.31   15.54
   2  -9  -2  337.48   24.09
  -2  -9   2  347.02   25.53
   2  -9  -1  198.50   18.51
  -2  -9   1  227.56   20.13
  -2  -9   0  329.08   23.92
   2  -9   0  340.84   24.38
  -2  -9  -1   12.30    5.53
   2  -9   1   24.64    6.70
   2  -9   2    9.96    4.79
  -2  -9  -2   16.03    5.47
   2  -9   3  131.97   15.25
  -2  -9  -3  157.09   15.53
  -2  -9  -3  180.62   17.80
   2  -9   4  109.72   14.01
  -2  -9  -4  104.27   14.07
  -2  -8   6   69.19   10.89
  -2  -8   6   55.24   10.44
   2  -8  -6   63.36   10.25
   2  -8  -5  158.12   15.30
  -2  -8   5  156.37   15.10
  -2  -8   5  174.05   17.71
   2  -8  -5  181.26   16.23
   2  -8  -4  405.79   24.84
  -2  -8   4  384.33   26.20
  -2  -8   4  389.05   22.50
   2  -8  -4  389.84   22.54
   2  -8  -3   60.01    9.45
  -2  -8   3   56.92    9.98
   2  -8  -2  322.52   21.91
  -2  -8   2  352.78   23.80
   2  -8  -1  101.87   12.24
  -2  -8   1   96.41   12.42
  -2  -8   0  216.78   17.96
   2  -8   0  197.65   17.03
   2  -8   1  127.94   13.73
  -2  -8  -1  136.33   13.97
   2  -8   2    3.48    3.49
  -2  -8  -2    1.24    2.26
   2  -8   3  527.22   29.45
  -2  -8  -3  620.56   29.66
  -2  -8  -3  627.81   32.56
   2  -8   4  170.52   16.19
   2  -8   4  190.34   16.53
  -2  -8  -4  165.25   17.04
   2  -8   5  264.79   21.12
  -2  -8  -5  224.74   20.58
  -2  -7   6  209.70   18.83
   2  -7  -6  234.69   18.81
  -2  -7   6  205.25   17.96
  -2  -7   5  617.92   29.96
   2  -7  -5  583.72   28.96
  -2  -7   5  603.41   31.95
   2  -7  -5  604.03   29.22
   2  -7  -4  110.12   11.17
   2  -7  -4   85.37   10.70
  -2  -7   4  100.12   10.79
  -2  -7   4   89.67   11.70
   2  -7  -3  331.09   20.74
  -2  -7   3  322.51   21.71
   2  -7  -3  331.35   18.52
  -2  -7   3  354.74   19.03
  -2  -7   2  302.47   20.63
   2  -7  -2  271.87   18.77
  -2  -7   2  312.14   16.34
   2  -7  -2  300.50   16.26
  -2  -7   1  102.00   11.61
   2  -7  -1  102.59   11.37
  -2  -7   0  667.13   30.34
   2  -7   0  648.26   29.91
  -2  -7  -1   78.57    9.86
   2  -7   1   91.34   10.77
   2  -7   2  476.69   22.41
  -2  -7  -2  422.53   23.19
   2  -7   2  434.87   24.18
   2  -7   3 1525.33   50.78
  -2  -7  -3 1548.37   48.59
   2  -7   3 1554.87   49.19
   2  -7   4  203.63   16.58
  -2  -7  -4  172.90   16.64
   2  -7   4  231.09   17.61
   2  -7   5   32.33    7.43
  -2  -7  -5   26.03    7.05
   2  -7   6  164.65   17.23
  -2  -7  -6  158.98   17.10
   2  -6  -7  156.88   16.05
  -2  -6   7  177.50   17.27
  -2  -6   6   64.55    9.94
   2  -6  -6   54.91    8.93
  -2  -6   6   65.16    9.71
   2  -6  -5  213.98   16.17
   2  -6  -5  238.01   16.53
  -2  -6   5  230.51   17.94
  -2  -6   5  208.67   16.15
  -2  -6   4  236.47   17.71
   2  -6  -4  257.59   17.15
  -2  -6   4  228.25   15.68
   2  -6  -4  238.60   15.98
   2  -6  -3  160.49   13.30
   2  -6  -3  169.68   12.31
  -2  -6   3  203.72   15.82
  -2  -6   3  164.31   12.15
  -2  -6   2   20.84    5.16
   2  -6  -2   20.12    4.93
  -2  -6   2   20.75    3.99
   2  -6  -2   17.85    4.02
   2  -6  -1 1057.56   37.76
  -2  -6   1 1046.07   37.98
   2  -6  -1 1075.63   30.76
  -2  -6   1 1138.61   31.40
   2  -6   0  543.43   19.59
  -2  -6   0  498.09   24.19
   2  -6   0  547.26   25.09
   2  -6   1  381.84   17.74
   2  -6   1  403.06   21.22
  -2  -6  -1  351.09   19.81
  -2  -6  -1  417.69   17.48
   2  -6   2  400.73   19.77
   2  -6   2  375.55   20.79
  -2  -6  -2  412.76   20.71
   2  -6   3 1134.16   39.36
  -2  -6  -3 1181.65   37.80
  -2  -6  -3 1200.10   39.95
   2  -6   3 1075.92   38.80
   2  -6   4  233.76   17.06
   2  -6   4  205.84   15.32
  -2  -6  -4  205.63   17.18
  -2  -6  -5  181.92   16.88
   2  -6   5  169.86   15.68
  -2  -6  -6   46.33    9.03
   2  -6   6   50.62    9.28
   2  -6   7  148.16   16.91
  -2  -6  -7  150.39   16.60
  -2  -5   8  277.83   22.35
   2  -5  -8  278.32   22.22
  -2  -5   7   17.22    5.65
   2  -5  -7   20.31    6.10
  -2  -5   6  765.41   33.56
   2  -5  -6  727.23   32.66
  -2  -5   6  749.58   33.43
   2  -5  -5 1395.68   43.69
  -2  -5   5 1410.09   45.89
   2  -5  -5 1432.57   45.87
   2  -5  -4  518.31   23.74
  -2  -5   4  531.25   23.86
   2  -5  -4  576.92   24.52
   2  -5  -3  468.29   20.28
   2  -5  -3  406.88   20.55
  -2  -5   3  469.61   20.33
  -2  -5   2  551.65   24.48
   2  -5  -2  500.62   19.63
   2  -5  -2  515.24   23.05
  -2  -5   2  541.67   20.53
   2  -5  -1  336.12   14.05
  -2  -5   1  352.80   18.63
   2  -5  -1  385.10   19.08
   2  -5   0  875.67   22.83
   2  -5   0  900.45   26.25
   2  -5   0  844.35   30.72
  -2  -5   0  884.44   31.02
  -2  -5   0  898.59   25.20
   2  -5   1  783.22   21.75
   2  -5   1  787.70   29.00
  -2  -5  -1  771.84   28.18
   2  -5   1  775.95   26.03
  -2  -5  -1  781.32   25.63
   2  -5   2 1194.12   30.31
   2  -5   2 1155.46   36.28
   2  -5   2 1124.89   36.98
  -2  -5  -2 1209.51   36.34
   2  -5   3  424.16   20.35
  -2  -5  -3  403.34   18.36
   2  -5   3  381.53   20.02
   2  -5   4  159.35   12.14
  -2  -5  -4  144.83   13.69
   2  -5   4  141.08   12.82
   2  -5   5  160.28   14.66
  -2  -5  -5  184.18   16.18
   2  -5   6  755.23   35.63
  -2  -5  -6  737.99   35.15
   2  -5   7  421.66   27.59
  -2  -5  -7  403.15   26.17
   2  -4  -8  130.85   14.80
  -2  -4   8  139.24   15.37
  -2  -4   7  340.42   22.52
   2  -4  -7  332.28   22.13
   2  -4  -6  155.51   13.82
  -2  -4   6  159.31   13.93
   2  -4  -5   72.21    7.86
   2  -4  -5   77.70    9.01
  -2  -4   5   71.92    8.74
   2  -4  -4   80.17    8.14
   2  -4  -4   72.82    7.97
  -2  -4   4   77.13    8.16
   2  -4  -3  956.12   31.02
  -2  -4   3  916.24   29.60
   2  -4  -3  890.65   29.11
   2  -4  -2  507.43   21.01
   2  -4  -2  509.72   18.63
   2  -4  -1  203.08   12.39
   2  -4  -1  189.87    9.40
   2  -4   0  344.15   16.64
  -2  -4   0  358.15   16.80
  -2  -4   0  359.13   13.91
   2  -4   0  364.71   14.48
   2  -4   0  366.53   11.41
   2  -4   1  368.41   15.76
   2  -4   1  339.57   16.37
  -2  -4  -1  371.68   16.38
   2  -4   1  359.21   13.38
   2  -4   1  345.67    8.50
  -2  -4  -1  383.39   15.76
   2  -4   2  370.95   17.23
   2  -4   2  353.80   16.71
  -2  -4  -2  350.87   15.67
   2  -4   2  363.54   14.31
   2  -4   3  976.46   33.29
   2  -4   3  952.79   30.68
   2  -4   3  951.54   28.68
  -2  -4  -3 1038.90   29.07
   2  -4   4 1050.20   36.74
   2  -4   4 1021.96   31.92
   2  -4   4 1037.72   31.67
  -2  -4  -4  943.80   36.29
   2  -4   5  300.59   16.56
  -2  -4  -5  275.38   18.82
   2  -4   5  269.98   18.50
   2  -4   6 1070.80   42.15
  -2  -4  -6 1021.81   40.70
  -2  -4  -7   89.61   11.72
   2  -4   7   81.18   11.69
  -2  -4  -8   18.22    5.68
   2  -4   8    5.68    4.54
  -2  -3   9  265.61   22.16
   2  -3  -9  282.82   22.90
  -2  -3   8  114.76   13.42
   2  -3  -8  109.82   13.29
  -2  -3   7  116.74   12.50
   2  -3  -7  109.60   12.36
  -2  -3   7  116.88   11.86
  -2  -3   6  306.26   18.99
   2  -3  -6  301.74   19.12
  -2  -3   6  310.15   18.79
   2  -3  -5  711.67   28.66
  -2  -3   5  745.96   29.27
  -2  -3   5  696.68   28.06
   2  -3  -5  808.19   27.19
   2  -3  -4  814.46   27.13
   2  -3  -4  794.41   28.19
  -2  -3   4  799.72   29.26
  -2  -3   4  785.87   27.88
  -2  -3   3 1150.67   33.11
   2  -3  -3 1147.77   33.31
   2  -3  -3 1149.34   32.93
  -2  -3   3 1083.26   34.48
   2  -3  -2   51.67    5.08
   2  -3  -2   46.72    5.54
  -2  -3   2   52.04    6.12
   2  -3  -1 1702.43   42.94
  -2  -3   1 1745.56   43.60
   2  -3  -1 1662.81   37.81
   2  -3   0 1294.08   27.74
   2  -3   0 1311.65   34.72
   2  -3   0 1271.88   32.19
  -2  -3   0 1254.98   31.85
   2  -3   1 6512.44  129.76
   2  -3   1 6773.80  133.25
  -2  -3  -1 6868.03  133.17
   2  -3   1 6902.17  133.24
  -2  -3  -2  209.81   10.19
  -2  -3  -2  238.55   13.18
   2  -3   2  202.57   10.95
   2  -3   2  204.33   10.51
   2  -3   2  238.04   12.88
   2  -3   3  254.76   14.62
   2  -3   3  239.60   11.99
  -2  -3  -3  230.61   10.33
   2  -3   3  237.89   12.50
   2  -3   4  195.85   13.87
   2  -3   4  207.99   10.87
   2  -3   4  167.46   11.28
  -2  -3  -4  173.90   13.23
   2  -3   5  362.16   20.96
  -2  -3  -5  399.76   21.50
   2  -3   5  387.79   19.35
  -2  -3  -6  326.13   20.63
   2  -3   6  369.91   22.51
   2  -3   7  430.74   26.81
  -2  -3  -7  533.04   27.37
  -2  -3  -8   35.77    7.61
   2  -3   8   42.86    9.29
   2  -2  -9   45.08    9.44
  -2  -2   9   53.91    9.72
  -2  -2   8   22.58    6.32
   2  -2  -8   10.18    4.39
   2  -2  -7  655.12   31.12
  -2  -2   7  623.70   29.54
  -2  -2   7  718.74   29.42
   2  -2  -6 1511.25   41.95
  -2  -2   6 1461.38   45.79
  -2  -2   6 1445.65   44.67
   2  -2  -6 1465.77   47.04
  -2  -2   5  182.83   12.64
  -2  -2   5  185.33   12.89
   2  -2  -5  196.79   13.68
   2  -2  -5  191.28   11.71
   2  -2  -4  736.17   24.57
  -2  -2   4  724.92   25.80
  -2  -2   4  765.44   26.65
   2  -2  -4  765.81   26.82
   2  -2  -3 1031.98   30.07
   2  -2  -3 1095.11   31.24
  -2  -2   3 1094.77   32.15
   2  -2  -2  419.16   15.41
   2  -2  -2  413.81   16.03
  -2  -2   2  390.98   16.11
   2  -2  -1 1571.77   38.03
   2  -2  -1 1536.38   35.23
  -2  -2   1 1578.23   38.15
   2  -2   0 1914.21   44.18
   2  -2   0 1941.42   43.42
  -2  -2   0 1972.65   43.72
  -2  -2   0 1911.65   43.66
   2  -2   0 1965.78   39.44
   2  -2   1  630.04   19.37
   2  -2   1  615.51   19.50
  -2  -2  -1  666.92   18.50
  -2  -2  -1  671.05   21.21
   2  -2   1  641.59   20.73
   2  -2   2  791.83   25.38
   2  -2   2  794.30   23.85
   2  -2   2  752.51   21.67
  -2  -2  -2  805.86   26.20
   2  -2   3  957.88   30.59
   2  -2   3  910.79   24.65
  -2  -2  -3  951.40   22.16
   2  -2   3  969.24   28.99
   2  -2   4  218.80    9.41
  -2  -2  -4  209.42   13.62
   2  -2   4  207.63   13.77
   2  -2   4  185.16   12.16
   2  -2   5  510.46   24.03
   2  -2   5  486.71   22.02
  -2  -2  -6   78.22    9.33
   2  -2   6   77.57   10.03
   2  -2   7  192.23   16.88
  -2  -2  -7  211.20   16.12
  -2  -2  -8  328.07   21.48
   2  -2   8  291.66   22.61
  -2  -1   9  175.34   16.97
   2  -1  -9  226.50   20.06
  -2  -1   8  235.12   18.05
   2  -1  -8  209.42   18.02
  -2  -1   7  282.67   18.31
   2  -1  -7  250.16   18.30
   2  -1  -6 2206.39   61.42
  -2  -1   6 2291.81   58.02
   2  -1  -6 2247.80   55.46
  -2  -1   6 2093.32   58.56
   2  -1  -5    0.75    1.32
  -2  -1   5    6.64    2.85
   2  -1  -5    9.93    3.30
  -2  -1   5    7.15    2.88
   2  -1  -4  350.01   15.37
   2  -1  -4  374.01   17.44
  -2  -1   4  361.56   16.19
  -2  -1   4  336.92   15.86
   2  -1  -3 1704.52   41.61
  -2  -1   3 1755.42   42.74
   2  -1  -3 1676.95   42.98
   2  -1  -2 2884.21   61.18
   2  -1  -2 2853.65   60.67
  -2  -1   2 2811.90   61.19
   2  -1  -1 3420.97   68.94
  -2  -1   1 3376.35   68.89
   2  -1  -1 3362.99   68.05
   2  -1   0 7761.07  144.58
  -2  -1   0 7736.71  143.00
   2  -1   0 7677.56  142.10
   2  -1   0 7684.73  143.76
  -2  -1   0 7883.61  145.41
   2  -1   1 6646.94  125.51
   2  -1   1 6772.48  129.06
   2  -1   1 6954.18  129.71
   2  -1   2  926.07   22.34
   2  -1   2  940.66   27.66
  -2  -1  -2  969.29   20.20
   2  -1   2  905.28   26.91
   2  -1   3  313.05   15.08
  -2  -1  -3  298.45   14.11
   2  -1   3  262.27   13.72
   2  -1   3  291.48    9.30
   2  -1   4  703.37   16.40
   2  -1   4  708.78   25.91
   2  -1   4  738.95   27.00
  -2  -1  -4  723.95   25.58
  -2  -1  -5  630.30   24.84
   2  -1   5  612.95   25.43
   2  -1   5  582.16   25.77
  -2  -1  -6   33.18    5.75
   2  -1   6   23.81    5.45
   2  -1   7   71.49   10.13
  -2  -1  -7   90.99    9.98
  -2  -1  -8  126.32   12.56
   2  -1   8  137.86   14.89
   2  -1   9    8.27    4.82
   2   0  -9   10.36    4.88
  -2   0   9   17.05    5.46
  -2   0   8   -0.03    2.44
   2   0  -8   -0.10    2.63
  -2   0   7  926.30   34.63
   2   0  -7  882.47   36.69
   2   0  -6   32.41    6.07
   2   0  -6   26.12    4.60
  -2   0   6   15.78    4.04
  -2   0   6   24.55    4.84
  -2   0   5   10.94    3.13
   2   0  -5    7.45    3.30
   2   0  -5    8.50    2.57
  -2   0   5    6.68    2.53
   2   0  -4  148.53    9.61
   2   0  -4  151.23   10.79
  -2   0   4  133.58    9.31
   2   0  -3 3681.34   76.80
  -2   0   3 3602.42   77.18
   2   0  -3 3731.10   79.22
   2   0  -2  213.90   10.84
   2   0  -2  202.91    9.98
  -2   0   2  198.70   10.04
  -2   0   1    2.94    1.23
   2   0  -1    0.06    0.84
   2   0   0  180.15    7.86
  -2   0   0  170.55    7.60
   2   0   0  174.81    8.15
   2   0   1 9999.00  185.15
   2   0   2 4970.13   90.30
  -2   0  -2 5066.33  100.33
   2   0   2 4798.13   98.50
   2   0   3  170.99   10.58
  -2   0  -3  172.63    9.52
   2   0   4  329.22   16.81
   2   0   4  339.68   17.14
  -2   0  -4  382.76   15.96
   2   0   5  338.34   18.31
  -2   0  -5  366.93   16.79
   2   0   5  343.22   18.65
  -2   0  -6   48.77    6.47
   2   0   6   43.42    7.16
   2   0   7 1011.92   40.07
  -2   0  -7 1131.57   37.41
   2   0   8    7.42    3.89
   2   0   9  847.85   40.35
   2   1  -9  179.71   18.11
  -2   1   8  240.55   17.15
   2   1  -8  198.43   17.59
  -2   1   7  299.07   17.80
   2   1  -7  293.75   19.99
  -2   1   6 2196.13   57.16
   2   1  -6 2274.85   56.74
   2   1  -6 2093.78   61.01
  -2   1   6 2303.53   57.07
  -2   1   5    4.83    2.43
   2   1  -5   11.40    3.69
  -2   1   5   12.30    2.98
   2   1  -5    8.59    2.84
   2   1  -4  359.25   16.11
   2   1  -4  354.28   17.46
  -2   1   4  354.13   15.94
   2   1  -3 1700.69   42.62
  -2   1   3 1716.75   42.72
   2   1  -3 1757.50   44.91
   2   1  -2 2931.18   64.33
   2   1  -2 2801.98   62.32
  -2   1   2 3000.52   62.91
   2   1  -1 3375.78   71.33
  -2   1   1 3440.13   69.96
   2   1  -1 3395.24   69.72
   2   1   0 7569.73  140.56
  -2   1   0 7516.74  140.99
   2   1   1 6778.32  121.29
   2   1   1 6623.44  125.70
  -2   1  -1 6728.35  125.31
   2   1   1 6489.61  123.81
   2   1   2  932.58   20.78
  -2   1  -2  937.65   22.19
  -2   1  -2  911.42   26.73
   2   1   2  896.10   25.67
   2   1   3  271.18   13.22
  -2   1  -3  273.77    9.20
  -2   1  -3  297.98   11.32
  -2   1  -3  295.07   14.60
   2   1   4  671.01   24.64
   2   1   4  692.17   26.21
  -2   1  -4  709.38   17.30
   2   1   5  637.95   26.50
  -2   1  -5  683.78   22.49
  -2   1  -6   25.09    4.46
   2   1   6   22.87    5.15
   2   1   7   75.30    9.59
   2   1   8  121.06   13.15
   2   2  -9   42.60    8.97
   2   2  -8   26.23    6.65
   2   2  -7  657.09   31.23
   2   2  -6 1541.30   44.71
   2   2  -6 1510.90   48.85
  -2   2   6 1597.08   43.44
  -2   2   6 1493.46   43.61
   2   2  -5  207.55   13.05
  -2   2   5  198.95   11.36
  -2   2   5  177.39   12.04
   2   2  -5  181.94   13.54
  -2   2   4  762.20   26.16
   2   2  -4  791.00   28.61
   2   2  -4  767.35   26.66
   2   2  -3 1042.35   31.26
   2   2  -3 1053.28   32.75
  -2   2   3 1089.10   31.66
   2   2  -2  420.43   16.75
   2   2  -2  412.42   17.41
  -2   2   2  422.22   16.93
   2   2  -1 1579.62   38.85
   2   2  -1 1599.00   40.07
  -2   2   1 1568.99   39.29
   2   2   0 1921.80   43.77
  -2   2   0 1939.47   44.64
  -2   2  -1  623.47   19.40
   2   2   1  623.15   20.02
  -2   2  -1  683.11   19.70
   2   2   1  641.00   18.80
  -2   2  -2  781.14   22.24
   2   2   2  777.71   19.85
  -2   2  -2  799.87   23.85
   2   2   2  748.27   22.32
   2   2   2  774.33   24.63
  -2   2  -2  846.79   16.78
  -2   2  -3  955.62   25.27
   2   2   3  966.46   21.07
  -2   2  -3  983.40   29.47
  -2   2  -3  995.77   22.24
   2   2   3  903.48   27.13
  -2   2  -4  188.62    9.10
  -2   2  -4  203.73   12.93
   2   2   4  195.31   12.93
   2   2   4  208.97   11.91
  -2   2  -4  212.58    9.25
   2   2   5  435.15   21.76
   2   2   5  521.90   21.67
   2   2   6   91.88    9.42
   2   3  -8  116.59   13.63
   2   3  -7  106.71   12.36
  -2   3   6  317.60   17.39
   2   3  -6  291.44   17.33
   2   3  -6  277.08   18.68
   2   3  -5  774.04   30.70
  -2   3   5  758.64   23.71
   2   3  -5  753.35   28.78
  -2   3   5  758.87   28.24
   2   3  -4  811.65   28.82
  -2   3   4  769.61   27.84
   2   3  -4  826.48   30.19
  -2   3   3 1144.61   34.41
   2   3  -3 1079.65   33.96
   2   3  -3 1118.86   35.17
   2   3  -2   56.96    6.47
   2   3  -2   52.80    6.20
  -2   3   2   46.67    5.98
   2   3  -1 1720.56   43.72
  -2   3   1 1736.99   44.19
  -2   3   0 1272.80   34.65
   2   3   0 1263.17   30.92
   2   3   0 1305.38   34.37
   2   3   1 6867.43  130.04
   2   3   1 6673.09  130.08
  -2   3  -1 6785.62  132.47
   2   3   2  216.70   11.35
  -2   3  -2  210.83   11.08
   2   3   2  185.24    9.23
  -2   3  -2  184.85    9.74
  -2   3  -3  251.07   12.23
   2   3   3  233.54    9.63
  -2   3  -3  256.97   12.68
   2   3   3  233.73   11.06
   2   3   4  183.26   12.59
  -2   3  -4  171.42   11.56
  -2   3  -4  193.33   10.67
   2   3   4  200.76   11.07
   2   3   5  432.32   21.53
  -2   3  -5  392.12   19.97
   2   3   5  388.02   17.79
  -2   3  -6  405.85   21.95
   2   4  -7  341.74   22.49
  -2   4   6  162.02   12.99
   2   4  -6  151.62   13.99
   2   4  -5   74.08    8.75
  -2   4   5   64.51    8.11
   2   4  -5   63.68    8.43
  -2   4   4   65.89    7.91
   2   4  -4   72.10    8.34
   2   4  -4   88.45    9.27
   2   4  -3  908.58   31.82
  -2   4   3  886.75   31.45
   2   4  -3  916.94   31.67
  -2   4   2  540.34   22.53
   2   4  -2  532.43   22.38
  -2   4   1  170.44   11.69
  -2   4   0  381.53   17.53
   2   4   0  339.06   16.13
   2   4   0  350.84   12.74
  -2   4  -1  381.23   17.55
   2   4   1  354.11   15.76
   2   4   1  372.19   14.13
  -2   4  -2  342.55   16.39
   2   4   2  354.16   15.17
   2   4   2  341.99   14.69
  -2   4  -2  354.70   13.40
  -2   4  -3 1015.16   31.60
   2   4   3 1008.91   28.13
  -2   4  -3 1021.64   28.63
   2   4   4  999.49   33.31
  -2   4  -4 1057.27   32.17
  -2   4  -4  956.26   30.34
   2   5  -7   10.43    4.52
   2   5  -6  687.71   31.81
   2   5  -6  710.49   32.22
  -2   5   5 1467.41   46.57
   2   5  -5 1423.26   46.79
   2   5  -5 1372.43   46.95
   2   5  -4  515.89   25.64
   2   5  -4  561.20   25.48
  -2   5   4  553.55   25.64
  -2   5   3  441.30   22.26
   2   5  -3  463.80   22.92
   2   5  -2  506.63   23.37
  -2   5   2  461.82   22.34
  -2   5   1  376.51   19.35
   2   5  -1  405.26   12.96
   2   5  -1  361.81   18.87
  -2   5   0  898.66   31.69
   2   5   0  852.41   30.24
   2   5   0  919.87   23.40
  -2   5  -1  817.86   29.65
   2   5   1  787.54   22.77
   2   5   1  757.06   27.30
   2   5   2 1194.47   32.30
   2   5   2 1190.73   34.87
  -2   5  -3  414.88   20.41
   2   5   3  451.52   18.67
  -2   5  -4  171.08   12.53
   2   6  -7  184.55   17.00
   2   6  -6   56.19    9.28
  -2   6   5  220.22   17.00
   2   6  -5  221.46   17.67
   2   6  -4  268.47   18.96
  -2   6   4  221.84   16.81
  -2   6   3  191.54   15.10
   2   6  -3  167.91   14.43
  -2   6   2   19.16    4.88
   2   6  -2   14.07    4.45
  -2   6   1 1051.13   37.79
   2   6  -1 1063.44   37.45
   2   6   0  507.32   23.72
  -2   6   0  524.81   24.84
  -2   6  -1  372.18   20.47
   2   6   1  362.22   19.18
   2   6   2  414.67   19.99
  -2   6  -2  362.76   20.43
  -2   6  -3 1116.26   39.40
   2   6   3 1174.72   36.72
  -2   6  -4  223.41   15.88
  -2   6  -5  185.59   14.42
   2   7  -6  210.25   18.65
  -2   7   5  561.93   29.88
   2   7  -5  592.47   31.34
   2   7  -4   98.63   12.04
  -2   7   4   87.77   11.34
  -2   7   3  345.02   21.97
   2   7  -3  327.03   21.53
  -2   7   2  287.33   19.86
   2   7  -2  301.95   19.99
  -2   7   1   83.19   10.64
   2   7  -1   92.20   10.81
  -2   7   0  626.10   29.72
   2   7   0  661.70   29.42
   2   7   1   90.76   10.13
  -2   7  -1   76.44    9.93
  -2   7  -2  441.30   24.33
   2   7   2  455.83   23.10
  -2   7  -3 1553.67   51.06
   2   7   3 1551.58   47.43
  -2   7  -4  208.49   16.49
  -2   7  -5   16.21    4.82
   2   8  -6   60.46   10.72
  -2   8   5  164.62   16.66
   2   8  -5  170.68   17.39
  -2   8   4  402.34   25.94
   2   8  -4  390.31   25.62
  -2   8   3   72.71   10.92
   2   8  -3   54.41    9.54
  -2   8   2  308.55   21.95
   2   8  -2  351.24   23.15
  -2   8   1  108.54   12.89
   2   8  -1   82.39   10.88
  -2   8   0  208.22   17.67
   2   8   0  179.24   15.80
   2   8   1  161.20   14.75
  -2   8  -1  144.68   14.61
  -2   8  -2   -2.09    3.50
   2   8   2    4.92    3.26
  -2   8  -3  573.10   30.36
  -2   8  -4  171.21   16.13
  -2   8  -5  232.52   19.02
   2   9  -4   99.67   13.84
  -2   9   4   90.53   13.00
   2   9  -3  147.14   16.25
  -2   9   3  148.00   16.27
  -2   9   2  341.65   24.68
   2   9  -2  365.37   25.34
  -2   9   1  183.85   17.93
   2   9  -1  186.47   17.65
  -2   9   0  376.78   25.79
   2   9   0  354.71   24.10
  -2   9  -1   14.16    5.52
   2   9   1   19.13    5.70
  -2   9  -2   11.49    4.98
   2   9   2    5.72    3.82
  -2   9  -3  205.44   18.85
  -2   9  -4  105.63   13.65
  -2  10   2   51.26   10.29
   2  10  -2   47.75   10.01
  -2  10   1   18.20    6.71
   2  10  -1   10.79    5.37
  -2  10   0  226.74   21.39
   2  10   0  208.16   19.64
  -2  10  -1   72.70   12.08
   2  10   1   73.13   11.54
  -2  10  -2   42.28    9.38
   2  10   2   22.21    6.59
   3 -10   0  171.19   18.34
  -3 -10   0  162.29   18.01
   3  -9  -4   10.18    4.52
  -3  -9   4   15.70    6.70
   3  -9  -3  526.28   31.59
  -3  -9   3  597.77   34.91
   3  -9  -2   38.77    8.75
  -3  -9   2   37.44    8.90
   3  -9  -1  209.25   19.14
  -3  -9   1  217.41   19.99
  -3  -9   0  121.10   14.76
   3  -9   0  106.62   13.92
   3  -9   1  171.02   17.44
  -3  -9  -1  169.57   17.04
   3  -9   2   12.76    5.72
  -3  -9  -2   26.39    6.82
   3  -9   3  225.56   20.18
  -3  -8   5  144.25   16.94
  -3  -8   5  191.71   16.86
   3  -8  -5  172.83   16.65
   3  -8  -5  138.39   14.22
  -3  -8   4   55.22    8.60
   3  -8  -4   46.23    8.82
  -3  -8   4   59.51   10.84
   3  -8  -3  449.35   27.07
  -3  -8   3  407.56   27.03
   3  -8  -2  293.63   21.41
  -3  -8   2  282.17   21.79
   3  -8  -1  837.59   38.09
  -3  -8   1  871.48   39.19
   3  -8   0  177.73   16.58
  -3  -8   0  208.77   17.82
   3  -8   1  123.48   13.69
  -3  -8  -1  102.21   12.25
   3  -8   2   14.92    5.27
  -3  -8  -2    1.37    2.19
   3  -8   3  299.71   21.64
  -3  -8  -4   35.79    8.52
   3  -8   4   36.87    8.07
   3  -8   4   47.42    8.77
  -3  -8  -5   77.13   12.80
   3  -8   5   87.42   12.62
  -3  -7   6  349.66   25.33
  -3  -7   6  372.16   24.41
   3  -7  -6  302.30   21.91
  -3  -7   5  243.45   20.66
  -3  -7   5  268.95   19.60
   3  -7  -5  268.57   19.01
   3  -7  -5  221.70   18.11
   3  -7  -4  271.81   17.66
  -3  -7   4  220.65   16.46
  -3  -7   4  248.53   20.14
   3  -7  -4  208.70   17.39
   3  -7  -3  170.55   15.43
  -3  -7   3  163.12   15.71
  -3  -7   3  184.47   13.81
   3  -7  -2  225.73   17.75
  -3  -7   2  264.04   19.82
  -3  -7   2  264.02   15.62
   3  -7  -1  501.97   27.00
  -3  -7   1  582.96   29.07
   3  -7   0    0.87    2.98
  -3  -7   0    0.04    2.04
   3  -7   1   75.53   10.12
  -3  -7  -1   72.66    9.61
   3  -7   2  516.01   25.12
   3  -7   2  513.74   26.94
  -3  -7  -2  525.63   26.19
   3  -7   3    4.60    3.24
   3  -7   3   -0.48    2.87
  -3  -7  -4    6.21    4.57
   3  -7   4    6.90    3.79
  -3  -7  -4    1.10    2.17
   3  -7   4    0.68    2.71
   3  -7   5  194.23   18.13
  -3  -7  -5  210.07   18.92
  -3  -7  -5  204.70   19.87
  -3  -7  -6   81.65   12.85
  -3  -7  -6   90.29   13.56
   3  -7   6   92.81   13.30
   3  -6  -7   13.99    5.39
  -3  -6   7   10.89    4.91
  -3  -6   7    8.01    4.91
   3  -6  -6  175.77   15.25
  -3  -6   6  187.59   16.55
   3  -6  -6  144.13   14.57
   3  -6  -5  157.76   14.24
  -3  -6   5  149.07   13.80
   3  -6  -5  119.45   12.41
   3  -6  -4   32.75    6.03
  -3  -6   4   29.25    5.94
   3  -6  -4   33.36    6.77
  -3  -6   3  801.82   29.98
   3  -6  -3  747.24   32.19
   3  -6  -3  785.88   29.13
   3  -6  -2  870.29   35.09
  -3  -6   2  905.27   36.62
   3  -6  -2  947.91   29.96
  -3  -6   2  955.62   31.50
   3  -6  -1 1014.06   37.88
  -3  -6   1 1056.61   38.74
   3  -6   0  221.53   16.03
  -3  -6   0  231.77   16.27
   3  -6   0  225.11   13.25
  -3  -6  -1   75.09    8.92
   3  -6   1   64.57    8.66
   3  -6   1   78.15    8.39
   3  -6   2  888.77   33.53
   3  -6   2  860.79   34.23
  -3  -6  -2  950.48   34.11
  -3  -6  -2  942.62   33.77
   3  -6   3  775.92   32.71
   3  -6   3  774.20   32.01
  -3  -6  -3  794.32   32.96
   3  -6   4   23.64    5.24
  -3  -6  -4    8.74    4.22
   3  -6   4   18.83    5.52
  -3  -6  -5  562.71   31.16
   3  -6   5  586.53   31.38
  -3  -6  -5  601.03   32.72
  -3  -6  -6   87.84   12.68
  -3  -6  -6   86.90   12.96
   3  -6   6  105.76   13.86
   3  -5  -7   75.84   11.15
  -3  -5   7   97.16   12.38
   3  -5  -6  121.13   11.98
  -3  -5   6  136.17   13.60
   3  -5  -6  133.56   13.53
   3  -5  -5  416.87   22.38
  -3  -5   5  415.69   22.66
   3  -5  -5  384.25   21.95
   3  -5  -4  171.07   13.82
  -3  -5   4  186.50   13.82
   3  -5  -4  171.54   13.25
   3  -5  -3  187.34   14.26
  -3  -5   3  193.79   13.11
   3  -5  -3  186.01   12.52
   3  -5  -2  304.18   14.73
   3  -5  -2  285.92   17.44
   3  -5  -1  238.20   15.70
   3  -5  -1  227.49   11.13
   3  -5   0   73.72    8.64
  -3  -5   0   89.60    7.71
   3  -5   0   89.88    7.93
   3  -5   1 1071.80   36.77
  -3  -5  -1 1184.66   37.24
   3  -5   1 1093.90   31.98
   3  -5   1 1164.49   36.03
   3  -5   2  274.19   16.66
   3  -5   2  267.66   16.30
  -3  -5  -2  287.83   15.93
   3  -5   2  299.33   14.55
  -3  -5  -2  292.06   17.02
   3  -5   3  502.38   22.95
  -3  -5  -3  539.45   21.78
  -3  -5  -3  469.66   24.40
   3  -5   3  501.68   24.65
   3  -5   4  188.54   15.51
   3  -5   4  167.83   12.78
  -3  -5  -4  164.83   14.87
  -3  -5  -5   46.48    9.05
  -3  -5  -5   65.72   10.28
   3  -5   5   69.86   10.18
   3  -5   6  552.39   31.22
  -3  -5  -6  553.43   32.00
  -3  -5  -6  530.89   30.41
  -3  -5  -7   61.21   10.48
   3  -5   7   79.19   12.33
  -3  -4   8  319.73   23.58
   3  -4  -8  306.73   23.64
   3  -4  -7   85.45   11.50
  -3  -4   7   76.62   10.75
  -3  -4   7  100.73   12.19
  -3  -4   6  275.65   19.56
   3  -4  -6  279.19   17.51
  -3  -4   6  261.86   18.45
   3  -4  -6  231.20   17.81
   3  -4  -5  442.06   22.05
  -3  -4   5  416.21   23.56
  -3  -4   5  444.22   22.69
   3  -4  -5  414.72   22.19
   3  -4  -4  123.72   10.93
  -3  -4   4  109.08   11.24
  -3  -4   4   95.33    9.57
   3  -4  -4  110.40   10.19
  -3  -4   3 1719.38   49.77
   3  -4  -3 1651.76   44.68
   3  -4  -2  349.90   18.21
  -3  -4   2  365.97   19.21
   3  -4  -2  375.32   16.08
   3  -4  -1  871.59   30.23
  -3  -4   1  866.73   30.29
   3  -4  -1  834.43   24.50
   3  -4   0  399.25   18.90
  -3  -4   0  364.05   16.42
   3  -4   0  387.28   16.91
   3  -4   0  369.45   12.63
   3  -4   1  436.76   19.99
   3  -4   1  498.64   19.06
   3  -4   1  501.67   20.93
   3  -4   2 1214.44   36.86
  -3  -4  -2 1269.42   35.54
  -3  -4  -2 1156.57   38.18
   3  -4   2 1235.71   35.56
   3  -4   2 1284.75   39.23
   3  -4   3    3.88    2.45
  -3  -4  -3    9.39    2.50
   3  -4   3    6.43    2.49
  -3  -4  -3    3.28    3.39
   3  -4   3    7.35    3.20
   3  -4   4  432.36   18.93
   3  -4   4  401.62   19.52
   3  -4   4  381.49   21.87
  -3  -4  -5 1012.94   41.56
   3  -4   5 1131.34   37.55
   3  -4   5 1000.16   40.36
  -3  -4  -5  997.76   40.32
  -3  -4  -6   80.06   11.05
   3  -4   6  118.51   11.76
   3  -4   6   88.77   11.87
   3  -4   7  200.91   19.12
  -3  -4  -7  207.82   18.20
   3  -3  -8   55.34    9.93
  -3  -3   8   63.88   10.24
  -3  -3   7   75.66   10.35
  -3  -3   7   69.04    9.97
   3  -3  -7   92.81   11.76
   3  -3  -6  229.62   15.37
  -3  -3   6  254.76   17.48
  -3  -3   6  227.89   16.95
   3  -3  -6  225.73   17.09
  -3  -3   5  727.59   30.66
   3  -3  -5  731.48   28.82
  -3  -3   5  786.15   30.35
   3  -3  -5  814.15   31.67
   3  -3  -4  253.14   15.26
  -3  -3   4  270.18   16.68
   3  -3  -4  279.96   16.17
   3  -3  -3 1000.60   32.66
   3  -3  -3  988.51   31.48
  -3  -3   3 1015.87   33.99
   3  -3  -2 1010.21   29.81
   3  -3  -2  972.83   31.88
  -3  -3   2 1066.59   33.43
   3  -3  -1  369.98   17.15
   3  -3  -1  371.78   14.37
  -3  -3   1  379.31   17.43
   3  -3   0 1058.99   31.41
   3  -3   0  983.90   29.70
  -3  -3   0  971.46   29.76
  -3  -3   0  990.85   30.19
   3  -3   0 1027.43   25.39
   3  -3   1 2500.84   58.82
   3  -3   1 2557.33   58.49
  -3  -3  -1 2450.83   60.13
  -3  -3  -1 2540.18   57.22
   3  -3   1 2523.71   60.35
   3  -3   2  508.42   21.93
   3  -3   2  528.42   19.85
   3  -3   2  512.00   20.43
   3  -3   3  325.73   14.78
  -3  -3  -3  363.48   13.68
  -3  -3  -3  309.15   18.26
   3  -3   3  287.56   17.23
   3  -3   3  318.40   16.34
   3  -3   4 1160.37   40.07
   3  -3   4 1130.32   36.51
  -3  -3  -4 1063.82   39.79
   3  -3   5  681.74   31.52
   3  -3   5  738.93   29.45
  -3  -3  -5  683.00   32.56
  -3  -3  -5  731.24   31.76
   3  -3   6  675.85   32.79
  -3  -3  -6  602.65   29.96
   3  -3   6  691.61   30.21
   3  -3   7  319.59   23.57
  -3  -3  -7  269.96   19.94
   3  -3   8  123.75   15.39
  -3  -3  -8   90.04   11.85
  -3  -2   8   37.65    7.75
   3  -2  -8   36.51    8.13
  -3  -2   7 2067.01   61.17
   3  -2  -7 1944.12   62.54
  -3  -2   7 2022.99   60.20
  -3  -2   6  750.02   31.18
   3  -2  -6  809.16   30.25
   3  -2  -6  793.23   33.63
  -3  -2   6  767.02   31.52
   3  -2  -5  117.75   10.18
   3  -2  -5  118.47   11.29
  -3  -2   5   97.51    9.91
  -3  -2   5  117.71   10.81
   3  -2  -4   38.29    5.86
   3  -2  -4   43.28    5.91
  -3  -2   4   39.94    6.01
   3  -2  -3  825.53   27.76
   3  -2  -3  803.00   27.66
  -3  -2   3  837.95   28.71
   3  -2  -2  498.05   19.75
   3  -2  -2  480.64   18.76
  -3  -2   2  532.59   20.50
   3  -2  -1 3038.83   64.85
   3  -2  -1 2987.39   67.21
  -3  -2   1 3073.48   67.32
  -3  -2   0 2684.08   58.97
   3  -2   0 2677.28   59.94
   3  -2   0 2599.22   55.99
  -3  -2   0 2722.14   61.31
   3  -2   0 2690.02   60.30
   3  -2   1  614.28   20.79
   3  -2   1  654.67   22.65
  -3  -2  -1  637.39   19.81
  -3  -2  -1  659.36   23.73
   3  -2   1  635.94   23.08
   3  -2   2  621.29   20.28
   3  -2   2  624.72   23.23
  -3  -2  -2  658.38   18.71
   3  -2   2  658.32   24.65
   3  -2   3  849.60   30.65
   3  -2   3  851.30   23.96
  -3  -2  -3  848.49   31.42
   3  -2   3  804.36   28.49
   3  -2   4 1324.74   40.72
  -3  -2  -4 1298.27   41.13
  -3  -2  -4 1281.40   43.68
   3  -2   4 1348.86   43.09
   3  -2   5  706.90   30.73
   3  -2   5  662.25   28.02
  -3  -2  -5  620.70   30.18
  -3  -2  -5  619.89   27.55
   3  -2   6 1104.14   42.75
   3  -2   6 1183.06   41.61
  -3  -2  -6 1069.94   39.67
  -3  -2  -7   34.65    6.82
   3  -2   7   35.80    7.33
   3  -2   7   27.66    7.15
  -3  -2  -8   83.30   10.94
   3  -2   8  111.90   14.28
   3  -1  -9  132.20   16.13
  -3  -1   9  149.44   15.67
  -3  -1   8  111.80   12.77
   3  -1  -8  103.27   13.19
  -3  -1   7  626.88   28.31
  -3  -1   7  644.72   29.46
   3  -1  -7  608.56   31.12
   3  -1  -6  707.91   28.06
  -3  -1   6  730.34   29.51
  -3  -1   6  736.28   29.66
   3  -1  -6  725.65   31.93
   3  -1  -5  107.70    9.60
  -3  -1   5   95.72    9.22
   3  -1  -5  101.03   10.42
  -3  -1   5   98.25    9.55
   3  -1  -4   24.78    4.95
   3  -1  -4   35.88    5.31
  -3  -1   4   38.44    5.64
   3  -1  -3  395.94   17.33
   3  -1  -3  381.23   17.83
  -3  -1   3  355.40   16.92
   3  -1  -2   60.43    6.36
   3  -1  -2   71.42    6.65
  -3  -1   2   68.07    6.61
   3  -1  -1  910.08   26.66
   3  -1  -1  843.29   25.97
  -3  -1   1  898.23   26.32
   3  -1   0 3713.22   77.24
   3  -1   0 3794.13   76.52
  -3  -1   0 3767.35   80.21
  -3  -1   0 3722.87   76.56
   3  -1   1  842.79   23.63
   3  -1   1  863.03   27.02
   3  -1   1  849.87   27.10
  -3  -1  -1  845.25   22.54
   3  -1   2   26.81    3.16
   3  -1   2   23.09    4.26
  -3  -1  -2   21.70    2.49
   3  -1   2   27.53    4.58
   3  -1   3 1165.36   27.82
   3  -1   3 1233.55   37.41
   3  -1   3 1154.98   35.99
  -3  -1  -3 1178.18   24.58
   3  -1   4  289.16   17.28
   3  -1   4  305.10   17.38
  -3  -1  -4  304.07   18.49
  -3  -1  -4  312.75   16.48
   3  -1   5  215.78   15.32
  -3  -1  -5  196.23   15.86
   3  -1   5  211.41   15.77
  -3  -1  -5  213.68   14.31
  -3  -1  -6  380.05   20.48
  -3  -1  -6  357.47   23.46
   3  -1   6  351.37   22.03
   3  -1   6  331.91   20.73
   3  -1   7  798.10   36.99
   3  -1   7  860.91   36.99
  -3  -1  -7  863.92   33.93
   3  -1   8  307.92   23.38
  -3   0   9   45.35    8.47
   3   0  -9   33.85    8.88
  -3   0   8   12.53    4.66
   3   0  -8    5.66    4.28
  -3   0   7 2500.63   68.38
   3   0  -7 2537.50   74.27
  -3   0   7 2639.28   68.89
   3   0  -6  561.70   24.41
  -3   0   6  578.87   24.77
  -3   0   6  526.32   24.23
   3   0  -6  488.53   25.90
   3   0  -5    9.57    3.25
  -3   0   5    8.74    3.24
   3   0  -5    8.97    3.76
   3   0  -4 2804.17   66.69
  -3   0   4 2758.81   66.74
   3   0  -4 2875.29   70.01
   3   0  -3  886.92   28.36
   3   0  -3  860.68   29.56
  -3   0   3  829.21   27.85
   3   0  -2 1360.10   36.18
   3   0  -2 1265.00   36.90
  -3   0   2 1326.45   36.18
   3   0  -1 1902.95   45.08
   3   0  -1 1833.83   45.85
  -3   0   1 1859.11   44.54
   3   0   0  185.15    9.66
  -3   0   0  185.47    9.56
   3   0   1 6549.73  126.32
   3   0   1 6805.83  131.48
  -3   0  -1 6782.03  125.76
   3   0   2   72.49    4.95
  -3   0  -2   73.76    7.44
   3   0   2   68.40    6.93
  -3   0  -2   69.35    4.56
   3   0   3  110.45    5.44
  -3   0  -3  129.50   10.81
   3   0   3  119.69    9.92
  -3   0  -3  117.31    5.02
   3   0   4   88.24    9.11
  -3   0  -4   70.95    8.57
   3   0   4   87.31    9.07
  -3   0  -4   81.77    7.61
   3   0   5 1319.21   43.62
   3   0   5 1348.20   44.05
  -3   0  -5 1330.72   45.78
  -3   0  -5 1440.60   40.45
  -3   0  -6  847.01   36.93
   3   0   6  824.05   34.84
   3   0   6  892.84   35.75
  -3   0  -6  863.59   30.49
   3   0   7  915.05   38.83
   3   0   7  927.05   38.82
  -3   0  -7  843.93   39.54
  -3   0  -8  112.46   14.49
   3   0   8  144.18   15.41
   3   1  -9  141.09   16.69
   3   1  -8  103.76   13.48
  -3   1   8   87.40   10.54
   3   1  -7  588.70   30.92
  -3   1   7  624.54   27.46
  -3   1   7  625.09   27.57
   3   1  -6  718.64   28.97
  -3   1   6  800.49   29.13
   3   1  -6  738.77   32.84
  -3   1   6  709.59   29.08
   3   1  -5   89.06    9.06
   3   1  -5   94.82   10.35
  -3   1   5   97.81    9.38
   3   1  -4   30.78    5.12
  -3   1   4   30.22    5.19
   3   1  -4   31.08    5.64
   3   1  -3  386.83   18.91
  -3   1   3  397.33   17.96
   3   1  -3  376.60   17.53
  -3   1   2   60.03    6.32
   3   1  -2   80.31    7.24
   3   1  -2   74.67    7.72
  -3   1   1  862.67   26.72
   3   1  -1  890.72   26.58
   3   1  -1  856.86   27.81
  -3   1   0 3686.66   77.31
   3   1   0 3733.34   76.97
  -3   1  -1  828.24   23.58
   3   1   1  826.60   23.30
   3   1   1  853.33   27.15
  -3   1  -1  807.65   26.42
  -3   1  -2   31.20    3.46
   3   1   2   30.03    3.31
   3   1   2   30.96    4.63
  -3   1  -2   28.98    4.80
  -3   1  -3 1258.51   28.67
   3   1   3 1200.26   37.22
  -3   1  -3 1204.37   37.30
   3   1   3 1192.70   26.92
   3   1   3 1159.00   35.88
  -3   1  -3 1259.08   31.24
   3   1   4  305.77   17.59
  -3   1  -4  290.51   17.28
  -3   1  -4  324.95   13.93
   3   1   4  289.23   16.59
   3   1   5  197.48   14.85
  -3   1  -5  209.78   15.71
   3   1   5  210.78   14.91
   3   1   6  379.79   21.80
  -3   1  -6  382.62   23.43
   3   1   6  376.84   22.27
   3   1   7  884.67   37.32
   3   1   7  916.52   38.72
  -3   1  -7  831.40   38.57
   3   1   8  279.75   21.09
  -3   1  -8  263.29   21.91
   3   2  -8   27.19    7.19
   3   2  -7 1894.56   56.21
   3   2  -7 1786.73   60.75
  -3   2   7 1974.19   56.53
   3   2  -6  760.19   30.85
  -3   2   6  804.07   28.72
   3   2  -6  805.14   34.95
  -3   2   6  809.10   31.41
   3   2  -5  118.29   10.75
   3   2  -5  111.01   11.53
  -3   2   5  114.60   10.46
   3   2  -4   41.49    6.13
   3   2  -4   40.28    6.52
  -3   2   4   36.21    5.74
  -3   2   3  822.84   28.84
   3   2  -3  847.17   29.00
   3   2  -3  826.04   30.63
   3   2  -2  533.18   21.11
   3   2  -2  525.01   22.28
  -3   2   2  519.30   21.18
  -3   2   1 3055.55   68.78
   3   2  -1 2984.77   67.60
   3   2   0 2681.23   60.26
  -3   2   0 2707.77   61.48
  -3   2  -1  633.41   21.27
   3   2   1  617.13   20.13
   3   2   1  595.14   22.06
  -3   2  -1  605.69   21.73
   3   2   2  606.57   18.99
  -3   2  -2  634.10   20.62
  -3   2  -2  608.06   22.63
   3   2   3  797.32   29.00
   3   2   3  835.81   20.15
  -3   2  -3  842.07   24.14
  -3   2  -3  776.32   28.43
   3   2   3  779.04   27.12
  -3   2  -3  888.95   21.24
   3   2   4 1397.87   42.76
  -3   2  -4 1313.69   41.79
   3   2   4 1354.34   40.11
  -3   2  -5  641.69   28.49
   3   2   5  615.01   27.96
   3   2   5  667.88   27.00
   3   2   6 1164.41   42.88
  -3   2  -6 1129.37   42.38
   3   2   6 1164.46   40.41
  -3   2  -7   29.74    6.92
  -3   2  -8   62.53   10.61
   3   3  -8   79.66   12.12
   3   3  -7   61.99    8.79
   3   3  -7   80.21   11.35
   3   3  -6  231.67   16.54
  -3   3   6  259.86   17.25
   3   3  -6  260.10   19.28
  -3   3   5  753.81   30.03
   3   3  -5  731.35   30.03
   3   3  -5  733.73   32.31
  -3   3   4  253.57   16.09
   3   3  -4  278.50   16.81
   3   3  -4  265.94   17.48
  -3   3   3  955.65   33.15
   3   3  -3  941.90   32.88
   3   3  -3  990.01   34.84
   3   3  -2 1011.13   33.10
  -3   3   2 1027.31   33.66
   3   3  -2 1027.11   34.65
   3   3  -1  392.07   17.90
  -3   3   1  374.20   17.97
   3   3   0 1034.39   30.95
   3   3   0  975.05   29.13
  -3   3   0  991.08   31.60
  -3   3  -1 2476.78   58.73
   3   3   1 2453.16   57.84
   3   3   1 2440.89   56.64
  -3   3  -2  511.87   19.83
   3   3   2  487.10   17.43
  -3   3  -2  539.69   20.49
   3   3   3  299.42   16.53
  -3   3  -3  345.02   15.16
  -3   3  -3  313.85   16.15
   3   3   4 1120.38   37.71
  -3   3  -4 1127.77   36.62
   3   3   4 1115.54   34.51
  -3   3  -5  699.11   29.24
   3   3   5  650.53   29.15
   3   3   6  631.24   30.22
  -3   3  -6  653.24   30.14
   3   4  -8  297.50   23.82
   3   4  -7   80.40   10.62
   3   4  -7  107.82   13.35
  -3   4   6  302.77   19.22
   3   4  -6  254.57   18.21
   3   4  -6  252.23   19.52
  -3   4   5  453.70   23.35
   3   4  -5  375.84   21.88
   3   4  -5  397.37   23.56
  -3   4   4  106.15   10.71
   3   4  -4  106.86   11.34
   3   4  -4  111.50   11.28
   3   4  -3 1604.65   48.40
  -3   4   3 1628.80   48.64
   3   4  -3 1605.18   49.21
   3   4  -2  346.47   18.67
  -3   4   2  332.31   18.48
  -3   4   1  855.74   31.13
   3   4  -1  864.80   30.56
   3   4   0  382.82   18.37
  -3   4   0  409.46   19.56
   3   4   0  369.39   15.85
  -3   4  -1  476.61   21.19
   3   4   1  514.19   20.44
   3   4   1  526.62   20.00
  -3   4  -2 1194.85   36.62
   3   4   2 1219.39   34.04
   3   4   3   13.29    3.54
  -3   4  -3    9.64    2.95
  -3   4  -3    8.79    2.74
  -3   4  -4  385.66   18.19
   3   4   4  385.58   20.24
  -3   4  -4  402.77   19.46
   3   4   5  991.85   37.06
   3   4   6  105.28   11.94
   3   5  -7  103.74   13.26
  -3   5   6  130.24   13.25
   3   5  -6  128.22   14.17
   3   5  -5  404.16   23.79
  -3   5   5  424.47   23.80
   3   5  -5  415.44   24.62
   3   5  -4  166.01   14.41
  -3   5   4  182.37   15.05
   3   5  -4  186.06   15.37
   3   5  -3  199.65   15.26
  -3   5   3  193.21   15.24
  -3   5   2  275.03   17.84
  -3   5   1  225.50   15.65
   3   5  -1  226.82   11.62
  -3   5   0   81.30    9.24
   3   5   0   78.08    8.45
   3   5   0   93.25    7.31
  -3   5  -1 1008.42   35.89
   3   5   1 1055.36   34.26
   3   5   1 1081.34   31.74
  -3   5  -2  253.14   16.06
   3   5   2  274.82   14.78
  -3   5  -3  505.56   23.34
   3   5   3  538.23   22.82
  -3   5  -4  177.85   13.15
   3   5   4  188.59   13.85
   3   5   5   65.99    8.92
   3   6  -7    9.97    5.13
  -3   6   6  166.87   15.95
   3   6  -6  160.29   16.25
  -3   6   5  151.93   14.81
   3   6  -5  128.32   14.08
   3   6  -4   39.30    7.74
  -3   6   4   52.29    8.63
  -3   6   3  811.59   35.20
   3   6  -3  817.44   34.87
  -3   6   2  830.82   35.28
   3   6  -2  883.56   35.62
  -3   6   1 1067.45   39.68
   3   6  -1 1049.12   38.60
  -3   6   0  214.60   16.01
   3   6   0  209.61   15.39
   3   6   1   86.84    9.27
  -3   6  -1   71.83    9.20
  -3   6  -2  846.46   33.98
   3   6   2  898.81   31.90
  -3   6  -3  791.82   32.53
  -3   6  -4   19.61    4.84
   3   6   4   12.13    3.92
  -3   7   6  322.36   23.41
   3   7  -6  322.27   24.32
  -3   7   5  224.77   19.24
   3   7  -5  297.05   22.48
  -3   7   4  245.91   19.84
   3   7  -4  236.97   19.60
  -3   7   3  170.18   16.10
   3   7  -3  168.78   16.03
  -3   7   2  281.01   20.48
   3   7  -2  242.37   18.66
  -3   7   1  568.68   29.30
   3   7  -1  565.58   28.44
  -3   7   0   -0.35    2.79
   3   7   0    1.91    2.47
  -3   7  -1   86.45   10.78
   3   7   1   79.58    9.72
  -3   7  -2  524.22   27.46
   3   7   2  532.17   25.41
  -3   7  -3    3.65    3.39
  -3   7  -4    1.20    2.47
  -3   8   5  151.19   16.59
   3   8  -5  169.67   17.99
   3   8  -4   83.75   12.28
  -3   8   4   64.64   11.00
  -3   8   3  432.30   27.78
   3   8  -3  445.25   28.02
   3   8  -2  259.25   20.58
  -3   8   2  312.62   23.05
   3   8  -1  900.94   38.95
  -3   8   1  847.37   39.29
  -3   8   0  188.84   17.33
   3   8   0  213.72   17.58
   3   8   1  116.79   12.67
  -3   8  -1  131.01   14.27
  -3   8  -2    1.70    3.21
   3   8   2    8.51    4.03
  -3   8  -3  291.38   21.51
  -3   8  -4   37.15    7.81
  -3   9   4    8.00    4.66
   3   9  -4   10.48    5.29
  -3   9   3  572.19   34.20
   3   9  -3  569.43   33.76
   3   9  -2   63.78   10.90
  -3   9   2   42.99    9.34
  -3   9   1  219.02   20.10
   3   9  -1  224.05   19.71
  -3   9   0  116.73   14.59
   3   9   0  130.30   14.67
  -3   9  -1  190.22   18.52
   3   9   1  185.81   17.16
  -3   9  -2   19.07    6.33
   3   9   2   19.06    5.90
  -3   9  -3  246.23   21.28
  -3  10   0  185.21   19.43
   3  10   0  168.20   17.71
   4  -9  -3  208.08   19.93
  -4  -9   3  227.48   21.68
   4  -9  -2  123.96   15.23
  -4  -9   2  121.31   15.82
   4  -9  -1   79.96   12.21
  -4  -9   1   69.72   11.92
   4  -9   0  105.53   14.02
  -4  -9   0  112.37   14.40
   4  -9   1   64.53   11.11
  -4  -9  -1   47.20    9.32
   4  -9   2   81.30   12.16
   4  -8  -4  147.89   16.04
  -4  -8   4  162.19   17.86
  -4  -8   4  131.69   13.49
   4  -8  -3  357.86   25.09
  -4  -8   3  412.22   27.98
   4  -8  -2  171.62   16.99
  -4  -8   2  170.50   17.45
   4  -8  -1  198.55   18.26
  -4  -8   1  206.28   18.73
   4  -8   0   66.39   10.55
  -4  -8   0   73.42   11.01
   4  -8   1  215.02   18.74
  -4  -8  -1  238.03   19.17
   4  -8   2   38.99    8.20
  -4  -8  -2   50.17    8.72
   4  -8   3   97.00   12.76
   4  -8   4  205.56   19.01
   4  -7  -6  303.59   22.57
  -4  -7   6  352.95   26.40
  -4  -7   6  309.21   22.97
   4  -7  -6  337.98   23.77
  -4  -7   5  215.02   17.69
   4  -7  -5  219.17   17.51
   4  -7  -4  100.86   12.69
  -4  -7   4   99.89   11.52
   4  -7  -3  340.48   23.01
  -4  -7   3  353.84   24.32
  -4  -7   3  329.00   19.76
   4  -7  -2  140.79   14.46
  -4  -7   2  152.85   15.50
   4  -7  -1   30.15    6.98
  -4  -7   1   36.14    7.52
   4  -7   0  738.88   34.00
  -4  -7   0  709.30   33.17
   4  -7   1  127.09   13.35
  -4  -7  -1  124.43   12.93
   4  -7   2  588.99   29.83
  -4  -7  -2  579.02   28.47
   4  -7   2  631.32   29.78
   4  -7   3  803.94   35.29
   4  -7   3  767.16   35.48
  -4  -7  -4   93.84   12.25
   4  -7   4   86.77   12.23
   4  -7   5  287.90   23.30
  -4  -7  -5  293.21   23.26
  -4  -7  -5  263.44   23.15
   4  -6  -6   50.54    9.02
  -4  -6   6   81.68   11.35
   4  -6  -6   78.83   10.99
   4  -6  -5  198.35   16.87
  -4  -6   5  165.37   14.99
   4  -6  -5  195.09   16.25
   4  -6  -4   34.97    6.47
  -4  -6   4   35.17    6.54
   4  -6  -4   30.83    6.79
   4  -6  -3   40.60    6.40
   4  -6  -3   48.54    8.35
   4  -6  -2   79.22   10.47
   4  -6  -1  272.92   18.88
   4  -6   0  554.30   27.13
  -4  -6   0  504.98   25.82
   4  -6   0  522.84   23.32
   4  -6   1  133.23   12.83
  -4  -6  -1  106.94   11.10
  -4  -6  -1  109.15   10.61
   4  -6   1  106.47   10.66
   4  -6   2   93.86   10.72
  -4  -6  -2  115.12   11.18
  -4  -6  -2   83.35   10.07
   4  -6   2  118.57   12.07
   4  -6   3  430.77   25.17
   4  -6   3  460.27   24.27
  -4  -6  -3  463.48   25.78
  -4  -6  -4   54.42    9.33
   4  -6   4   66.43   10.23
   4  -6   5  215.87   19.57
  -4  -6  -5  192.92   18.51
  -4  -6  -5  208.05   19.55
   4  -6   6  316.16   25.18
  -4  -6  -6  360.05   26.95
  -4  -6  -6  347.21   26.37
   4  -5  -7  364.38   25.42
  -4  -5   7  416.16   26.36
  -4  -5   7  338.57   25.07
   4  -5  -6  260.37   19.34
  -4  -5   6  315.72   21.52
  -4  -5   6  306.35   22.86
   4  -5  -6  332.02   22.44
   4  -5  -5   11.14    4.36
  -4  -5   5    8.44    3.82
   4  -5  -5   16.84    4.86
  -4  -5   5    9.70    4.68
   4  -5  -4 1136.97   39.44
   4  -5  -4 1119.17   41.05
  -4  -5   4 1036.82   42.06
   4  -5  -3 1405.87   47.33
  -4  -5   3 1462.58   49.58
   4  -5  -3 1494.74   44.11
   4  -5  -2 1093.52   33.55
   4  -5  -2  996.68   37.56
  -4  -5   2  985.45   37.98
   4  -5  -1   10.25    4.00
   4  -5   0   70.75    8.76
   4  -5   0   65.40    7.64
  -4  -5   0   61.45    7.34
   4  -5   1   70.77    7.76
   4  -5   1   57.89    8.00
  -4  -5  -1   70.22    8.41
   4  -5   1   62.63    7.99
   4  -5   2   68.68    8.49
  -4  -5  -2   69.48    8.08
   4  -5   2   76.61    8.23
  -4  -5  -2   79.92    9.59
   4  -5   2   78.52    9.63
   4  -5   3   18.35    4.54
  -4  -5  -3   14.80    5.17
   4  -5   3   22.03    5.60
   4  -5   4 1214.59   45.88
  -4  -5  -4 1117.88   44.52
  -4  -5  -5    1.89    3.44
  -4  -5  -5   -0.60    2.85
   4  -5   5    4.63    3.96
  -4  -5  -6   33.87    8.33
   4  -5   6   35.64    8.46
  -4  -4   8  185.66   18.25
  -4  -4   8  198.25   18.94
   4  -4  -8  149.96   17.12
   4  -4  -7  829.09   39.38
  -4  -4   7  851.63   38.41
  -4  -4   7  845.00   39.58
   4  -4  -6  396.92   23.27
  -4  -4   6  442.47   24.87
  -4  -4   6  424.41   26.09
   4  -4  -6  429.92   25.48
   4  -4  -5  804.69   33.24
  -4  -4   5  808.68   32.96
  -4  -4   5  792.71   35.39
   4  -4  -5  781.74   33.44
   4  -4  -4  294.02   18.49
  -4  -4   4  302.15   19.86
   4  -4  -4  318.39   18.79
   4  -4  -3  616.76   27.47
   4  -4  -3  701.49   27.06
  -4  -4   3  632.05   28.76
   4  -4  -2  307.00   18.24
  -4  -4   2  312.46   18.61
   4  -4  -2  330.25   16.36
   4  -4  -1  119.36   10.85
  -4  -4   1  109.38   10.35
   4  -4  -1  114.43    8.48
   4  -4   0  526.60   23.87
  -4  -4   0  600.65   24.37
  -4  -4   0  558.60   23.85
   4  -4   0  568.70   23.46
   4  -4   1   66.87    7.51
   4  -4   1   41.21    6.20
  -4  -4  -1   55.76    7.35
   4  -4   1   46.39    6.87
   4  -4   2  145.97   11.46
   4  -4   2  189.60   13.15
  -4  -4  -2  171.61   13.92
   4  -4   2  183.08   14.12
   4  -4   3   57.61    7.42
   4  -4   3   58.28    7.13
  -4  -4  -3   53.08    8.30
   4  -4   3   56.00    8.56
   4  -4   4  493.12   27.00
   4  -4   4  528.44   24.88
  -4  -4  -4  534.72   28.24
   4  -4   5  321.28   22.69
   4  -4   5  319.75   19.75
  -4  -4  -5  323.86   23.13
  -4  -4  -5  284.49   20.89
   4  -4   6  120.19   14.54
  -4  -4  -6  125.69   15.25
   4  -4   6  133.01   13.26
  -4  -4  -6  102.06   12.90
  -4  -4  -7   40.84    8.53
   4  -4   7   44.43    8.41
  -4  -4  -7   25.47    8.18
   4  -4   7   28.59    8.14
   4  -3  -8  101.64   13.87
  -4  -3   8   97.75   12.81
  -4  -3   8  112.17   13.82
   4  -3  -7   92.23   12.30
  -4  -3   7   87.17   11.52
   4  -3  -7   87.58   10.68
  -4  -3   7   79.36   11.25
   4  -3  -6   16.73    5.62
  -4  -3   6   11.57    4.66
   4  -3  -6   13.52    4.53
  -4  -3   6   12.00    4.58
   4  -3  -5   12.30    4.68
   4  -3  -5   18.90    4.75
  -4  -3   5    9.71    4.26
   4  -3  -4   90.52    9.73
  -4  -3   4  103.58   10.87
   4  -3  -4   99.61   10.21
   4  -3  -3    1.74    2.54
   4  -3  -3    5.50    2.85
  -4  -3   3    1.14    2.11
   4  -3  -2  836.04   28.54
   4  -3  -2  820.97   30.30
  -4  -3   2  852.25   31.04
   4  -3  -1   31.90    5.39
  -4  -3   1   41.19    5.86
   4  -3  -1   34.70    4.78
   4  -3   0  173.88   12.05
   4  -3   0  172.64    9.65
  -4  -3   0  175.81   11.66
   4  -3   1  475.87   20.73
   4  -3   1  498.55   21.82
  -4  -3  -1  501.00   22.87
  -4  -3  -1  536.70   20.53
   4  -3   1  517.65   22.77
   4  -3   2 1456.72   40.30
   4  -3   2 1425.85   42.82
  -4  -3  -2 1374.67   44.60
  -4  -3  -2 1476.59   37.86
   4  -3   2 1391.50   44.34
   4  -3   3  115.62    9.06
   4  -3   3  127.25   11.07
  -4  -3  -3  107.49   11.32
   4  -3   3   96.02   10.61
   4  -3   4  163.23   14.68
   4  -3   4  172.29   13.65
  -4  -3  -4  151.50   14.50
   4  -3   5  412.47   25.01
   4  -3   5  406.14   22.65
  -4  -3  -5  361.89   24.23
  -4  -3  -5  405.83   23.91
  -4  -3  -6   38.12    7.65
   4  -3   6   41.27    7.77
  -4  -3  -6   33.48    8.22
   4  -3   6   27.70    7.14
   4  -3   7  326.06   22.72
   4  -3   7  332.63   25.25
  -4  -3  -7  394.84   28.07
  -4  -3  -7  317.04   22.64
   4  -2  -8   12.55    5.37
  -4  -2   8   33.36    7.57
  -4  -2   8   33.88    7.48
   4  -2  -7  400.04   23.31
  -4  -2   7  444.39   25.25
   4  -2  -7  412.71   26.53
  -4  -2   7  456.17   25.86
  -4  -2   6   59.97    8.86
   4  -2  -6   59.71    8.36
  -4  -2   6   55.98    8.64
   4  -2  -6   49.04    8.66
   4  -2  -5 1760.76   54.50
   4  -2  -5 1704.91   51.48
  -4  -2   5 1741.89   52.91
   4  -2  -4  541.86   24.36
   4  -2  -4  533.87   25.03
  -4  -2   4  553.70   25.16
   4  -2  -3 1266.98   39.67
   4  -2  -3 1261.58   39.39
  -4  -2   3 1263.23   39.97
   4  -2  -2  377.20   18.40
  -4  -2   2  382.42   18.59
   4  -2  -2  367.74   17.87
   4  -2  -1 1637.57   44.94
   4  -2  -1 1685.48   43.50
  -4  -2   1 1602.93   43.93
   4  -2   0  466.51   19.04
  -4  -2   0  447.53   17.90
   4  -2   1 2284.86   57.39
   4  -2   1 2171.22   52.90
   4  -2   1 2059.08   55.75
  -4  -2  -1 2209.66   57.83
  -4  -2  -1 2203.92   51.18
   4  -2   2  773.88   25.50
   4  -2   2  763.36   29.32
  -4  -2  -2  824.71   31.44
  -4  -2  -2  878.10   24.37
   4  -2   2  804.55   30.55
   4  -2   3  161.07    9.61
   4  -2   3  137.87   11.78
  -4  -2  -3  161.39   13.57
   4  -2   3  130.69   12.05
   4  -2   4  384.58   20.98
  -4  -2  -4  347.27   21.82
   4  -2   4  356.52   21.40
   4  -2   5  400.41   24.00
   4  -2   5  398.47   22.41
  -4  -2  -5  324.52   22.34
  -4  -2  -5  364.71   21.41
   4  -2   6  142.13   14.98
   4  -2   6  140.81   13.96
  -4  -2  -6  135.59   15.31
  -4  -2  -6  111.40   12.04
   4  -2   7  248.67   21.25
  -4  -2  -7  236.45   21.57
   4  -2   7  242.86   19.55
  -4  -2  -7  275.55   19.73
  -4  -2  -8  105.28   15.11
   4  -2   8   92.38   13.94
   4  -1  -8   31.45    8.22
  -4  -1   8   40.31    8.16
  -4  -1   8   42.41    8.02
   4  -1  -7  330.68   20.78
   4  -1  -7  348.97   24.32
  -4  -1   7  344.18   21.47
  -4  -1   7  331.84   21.45
   4  -1  -6  164.55   13.94
  -4  -1   6  158.62   13.59
   4  -1  -6  161.79   15.40
  -4  -1   6  154.77   13.79
   4  -1  -5   48.79    8.11
   4  -1  -5   43.44    6.79
  -4  -1   5   46.08    7.19
   4  -1  -4  136.61   11.54
  -4  -1   4  156.38   12.36
   4  -1  -4  129.87   12.03
   4  -1  -3  186.00   13.42
   4  -1  -3  182.86   12.77
  -4  -1   3  184.37   12.85
   4  -1  -2 1460.19   41.23
   4  -1  -2 1333.91   40.70
  -4  -1   2 1440.06   40.81
   4  -1  -1  541.40   21.33
   4  -1  -1  525.87   21.38
  -4  -1   1  531.23   20.79
   4  -1   0  576.63   21.17
   4  -1   0  524.32   20.26
  -4  -1   0  549.46   20.06
   4  -1   1 2678.04   65.66
   4  -1   1 2614.67   64.80
   4  -1   1 2677.46   60.47
  -4  -1  -1 2724.68   59.20
   4  -1   2  894.40   26.24
   4  -1   2  864.16   31.45
  -4  -1  -2  870.25   32.39
   4  -1   2  881.50   31.94
  -4  -1  -2  931.05   24.62
   4  -1   3 1483.33   35.97
  -4  -1  -3 1396.63   46.19
   4  -1   3 1516.96   45.73
   4  -1   3 1508.57   46.38
   4  -1   4   82.78    9.57
  -4  -1  -4   60.72    8.90
   4  -1   4   77.25    9.71
  -4  -1  -5   57.17    7.68
   4  -1   5   51.56    8.11
  -4  -1  -5   49.68    8.73
   4  -1   5   51.06    8.38
   4  -1   6 1195.33   46.41
   4  -1   6 1227.72   45.17
  -4  -1  -6 1207.51   47.99
  -4  -1  -6 1164.63   41.03
   4  -1   7  456.33   28.52
  -4  -1  -7  394.91   27.81
   4  -1   8  291.64   23.96
   4  -1   8  372.00   25.88
  -4  -1  -8  328.37   26.25
  -4   0   8  116.36   12.88
   4   0  -8  134.79   15.98
   4   0  -7  211.18   18.82
   4   0  -7  212.40   16.39
  -4   0   7  205.25   16.16
  -4   0   7  204.16   16.42
   4   0  -6 1567.84   49.94
   4   0  -6 1527.43   53.76
  -4   0   6 1613.29   50.64
   4   0  -5  664.87   28.79
   4   0  -5  768.30   32.96
  -4   0   5  720.45   29.77
   4   0  -4    4.25    2.61
  -4   0   4    1.66    2.21
   4   0  -4    6.68    3.61
   4   0  -3  428.01   20.28
   4   0  -3  414.41   21.30
  -4   0   3  470.66   21.17
   4   0  -2  956.11   31.51
   4   0  -2  948.32   32.94
  -4   0   2  989.12   31.91
   4   0  -1  402.50   17.86
  -4   0   1  388.32   17.37
   4   0   0  545.14   20.33
  -4   0   0  518.23   19.62
   4   0   1  198.49   11.04
  -4   0  -1  223.31   11.13
   4   0   2   40.94    4.51
   4   0   2   41.98    6.10
  -4   0  -2   35.98    6.13
   4   0   2   42.08    6.38
  -4   0  -2   41.29    4.23
  -4   0  -3  611.03   26.99
   4   0   3  602.61   26.25
   4   0   3  586.72   25.65
   4   0   4  463.83   23.56
  -4   0  -4  430.29   23.69
   4   0   4  457.27   23.40
  -4   0  -4  461.20   20.08
   4   0   5  813.83   34.16
  -4   0  -5  806.81   35.42
   4   0   5  834.20   34.63
  -4   0  -6   40.81    8.33
   4   0   6   26.37    6.44
   4   0   6   38.34    7.70
  -4   0  -7   92.65   12.81
   4   0   7  102.16   12.86
   4   0   7  115.37   13.74
   4   0   8   87.63   12.55
  -4   0  -8  103.69   14.69
   4   0   8   98.34   13.71
  -4   1   8   35.97    7.18
   4   1  -8   42.77    9.49
   4   1  -7  342.81   24.54
   4   1  -7  325.46   20.89
  -4   1   7  335.61   20.15
  -4   1   7  362.46   22.03
   4   1  -6  172.13   14.39
   4   1  -6  141.24   14.71
  -4   1   6  156.85   13.69
   4   1  -5   48.51    7.41
   4   1  -5   51.87    8.53
  -4   1   5   58.11    8.19
   4   1  -4  142.46   12.00
   4   1  -4  134.64   12.70
  -4   1   4  161.47   12.67
   4   1  -3  182.32   12.99
   4   1  -3  167.84   13.44
  -4   1   3  174.73   12.67
  -4   1   2 1414.95   41.48
   4   1  -2 1460.92   42.00
   4   1  -2 1459.15   44.26
  -4   1   1  543.70   21.55
   4   1  -1  544.08   21.77
   4   1  -1  518.88   22.79
  -4   1   0  587.55   21.50
   4   1   0  535.88   20.86
  -4   1  -1 2574.60   58.62
   4   1   1 2544.47   58.37
  -4   1  -1 2572.86   63.67
  -4   1  -2  920.99   26.21
   4   1   2  902.45   25.97
   4   1   2  913.06   32.26
  -4   1  -2  868.21   31.69
   4   1   2  859.06   30.35
   4   1   3 1396.18   44.03
  -4   1  -3 1473.20   45.36
   4   1   3 1386.09   42.82
  -4   1  -4   83.45   10.02
   4   1   4   81.83    9.45
   4   1   4   72.67    9.15
   4   1   5   54.64    8.47
  -4   1  -5   51.04    8.59
   4   1   5   58.33    8.57
  -4   1  -6 1151.39   45.99
   4   1   6 1229.63   45.75
   4   1   6 1274.54   46.07
  -4   1  -7  508.63   30.12
   4   1   7  496.22   28.70
   4   1   7  432.42   26.74
  -4   1  -8  281.01   23.65
   4   2  -8   25.85    7.96
   4   2  -7  435.17   25.00
   4   2  -7  445.19   28.57
  -4   2   7  443.89   25.00
   4   2  -6   43.82    8.46
  -4   2   6   54.53    8.24
   4   2  -5 1738.04   56.21
   4   2  -5 1587.19   50.84
  -4   2   5 1697.16   51.52
  -4   2   4  524.39   24.64
   4   2  -4  529.86   24.86
   4   2  -4  550.62   27.29
  -4   2   3 1283.79   40.56
   4   2  -3 1251.82   40.28
   4   2  -3 1248.37   42.64
  -4   2   2  382.46   18.98
   4   2  -2  353.90   18.32
   4   2  -2  351.71   19.62
   4   2  -1 1644.82   45.62
  -4   2   1 1672.17   46.09
  -4   2   0  429.03   19.15
   4   2   0  442.12   18.95
  -4   2  -1 2252.01   54.54
   4   2   1 2174.49   53.19
   4   2   2  837.55   25.53
  -4   2  -2  865.57   26.88
   4   2   2  851.81   30.89
  -4   2  -3  162.67    9.73
  -4   2  -3  137.56   11.85
   4   2   3  141.13   11.38
   4   2   3  146.28   12.26
   4   2   4  331.81   20.09
  -4   2  -4  340.92   20.37
   4   2   4  381.61   20.17
   4   2   5  364.37   22.01
  -4   2  -5  373.25   22.55
   4   2   5  403.23   22.06
  -4   2  -6  144.43   14.52
   4   2   6  162.33   15.26
   4   2   6  131.66   13.29
   4   2   7  240.50   19.90
  -4   2  -7  210.90   18.86
   4   3  -8  121.40   15.84
   4   3  -7   62.94    9.86
  -4   3   7  103.58   11.96
   4   3  -7   83.16   12.39
   4   3  -6   18.03    5.41
  -4   3   6   21.77    5.63
   4   3  -6   16.56    5.52
   4   3  -5   15.10    4.83
  -4   3   5   20.07    5.17
   4   3  -5    8.85    4.05
  -4   3   4   94.43   10.39
   4   3  -4   73.21    9.27
   4   3  -4  100.49   11.63
   4   3  -3    1.84    2.82
  -4   3   3    3.32    2.75
   4   3  -3    3.48    2.91
   4   3  -2  811.37   31.09
  -4   3   2  873.65   32.19
   4   3  -1   36.94    5.90
  -4   3   1   40.98    6.38
   4   3   0  153.02   11.25
  -4   3   0  154.40   11.81
  -4   3  -1  532.67   22.30
   4   3   1  502.98   22.11
   4   3   1  494.71   20.59
   4   3   2 1440.09   38.85
  -4   3  -2 1459.88   41.12
  -4   3  -2 1372.47   41.82
   4   3   2 1351.39   42.59
  -4   3  -3  114.17    9.14
  -4   3  -3  106.11   10.21
   4   3   3   91.73    9.84
   4   3   4  147.61   13.13
  -4   3  -4  154.07   13.17
   4   3   4  180.61   13.24
   4   3   5  356.82   22.02
  -4   3  -5  409.18   23.32
   4   3   5  409.21   21.54
   4   3   6   36.72    7.57
  -4   3  -6   28.86    6.52
   4   3   7  368.44   25.20
   4   4  -8  163.60   18.49
   4   4  -7  825.00   37.68
  -4   4   7  778.15   36.13
   4   4  -7  859.34   41.68
  -4   4   6  395.41   24.09
   4   4  -6  443.26   25.90
   4   4  -6  411.90   26.98
  -4   4   5  749.93   33.82
   4   4  -5  770.05   34.42
   4   4  -5  812.27   37.00
  -4   4   4  306.06   19.94
   4   4  -4  324.39   20.41
   4   4  -4  273.68   19.82
   4   4  -3  648.23   29.05
  -4   4   3  635.62   28.99
   4   4  -3  600.48   29.29
   4   4  -2  327.53   19.35
  -4   4   2  320.65   19.40
   4   4  -1  113.31   10.75
  -4   4   1  112.74   11.07
   4   4   0  532.90   23.68
  -4   4   0  565.78   25.30
   4   4   1   47.23    6.38
  -4   4  -1   51.05    7.03
   4   4   1   45.59    6.36
  -4   4  -2  181.36   13.02
   4   4   2  175.96   11.35
   4   4   2  165.72   12.63
  -4   4  -3   62.25    7.41
  -4   4  -3   53.42    7.18
   4   4   3   63.58    8.32
   4   4   4  532.65   26.18
  -4   4  -4  579.49   25.93
   4   4   5  303.72   20.23
   4   4   6  122.86   13.63
   4   4   7   40.24    8.81
  -4   5   7  355.91   24.05
   4   5  -7  338.59   25.96
   4   5  -7  342.84   24.24
  -4   5   6  307.97   21.86
   4   5  -6  310.82   22.41
   4   5  -6  327.92   24.21
   4   5  -5   12.62    4.84
  -4   5   5   12.98    5.04
   4   5  -5   18.38    6.08
   4   5  -4 1128.66   42.81
  -4   5   4 1051.48   41.78
   4   5  -3 1504.49   50.14
  -4   5   3 1428.30   49.32
   4   5  -2 1071.27   39.53
  -4   5   2 1042.13   40.15
   4   5  -1    9.08    4.09
  -4   5   1   13.76    4.70
  -4   5   0   75.39    9.47
  -4   5  -1   70.95    9.12
   4   5   1   62.80    7.71
   4   5   1   73.75    7.92
   4   5   2   61.24    7.69
  -4   5  -2   79.49    9.23
   4   5   2   65.10    7.60
   4   5   3   18.47    4.67
  -4   5  -3   22.84    5.03
   4   5   4 1312.56   44.43
   4   5   5    2.18    2.91
   4   5   6   49.97    9.03
  -4   6   6   70.60   10.98
   4   6  -6   62.65   10.93
  -4   6   5  169.52   16.74
  -4   6   4   38.55    7.99
  -4   6   3   56.82    9.42
  -4   6   2   96.33   11.93
  -4   6   1  259.44   19.33
   4   6  -1  303.09   19.82
  -4   6   0  534.61   27.83
   4   6   0  555.26   26.79
  -4   6  -1  133.71   13.24
   4   6   1  119.97   11.43
  -4   6  -2  100.52   11.42
   4   6   2  136.77   11.56
  -4   6  -3  452.28   24.32
   4   6   4   40.17    7.12
   4   6   5  227.71   17.66
  -4   7   6  346.77   25.53
   4   7  -6  318.60   25.26
  -4   7   5  195.54   18.81
   4   7  -5  187.64   18.65
   4   7  -4  128.53   15.03
  -4   7   4  102.23   13.45
  -4   7   3  314.72   23.40
   4   7  -3  331.59   23.50
  -4   7   2  133.47   14.78
   4   7  -2  151.54   15.34
  -4   7   1   31.53    7.56
   4   7  -1   34.55    7.40
  -4   7   0  755.13   35.68
   4   7   0  797.82   34.61
  -4   7  -1  109.77   12.72
   4   7   1  118.09   12.12
  -4   7  -2  594.93   30.42
  -4   7  -3  722.21   33.81
   4   8  -4  142.86   16.59
  -4   8   4  112.89   15.03
  -4   8   3  374.42   26.86
   4   8  -3  350.36   25.60
  -4   8   2  140.62   16.06
   4   8  -2  154.80   16.37
  -4   8   1  166.54   17.36
   4   8  -1  221.14   18.77
  -4   8   0   66.55   10.75
   4   8   0   55.03    9.34
  -4   8  -1  235.06   20.16
   4   8   1  258.71   19.34
  -4   8  -2   29.21    7.48
  -4   8  -3  104.68   13.05
  -4   9   3  237.14   22.50
   4   9  -3  278.71   23.66
   4   9  -2  111.29   14.53
  -4   9   2  100.11   14.32
  -4   9   1   96.87   14.06
   4   9  -1   78.27   12.11
   4   9   0  126.19   14.95
  -4   9   0  114.45   15.12
  -4   9  -1   64.53   11.25
   4   9   1   51.71    9.39
  -4   9  -2   89.64   13.17
   5  -8  -3   71.20   11.68
  -5  -8   3   89.99   13.67
   5  -8  -2   46.07    9.29
  -5  -8   2   53.21   10.36
   5  -8  -1   98.75   13.23
  -5  -8   1   84.38   12.31
   5  -8   0  285.31   22.33
  -5  -8   0  218.72   19.70
   5  -8   1  237.22   20.32
  -5  -8  -1  233.80   19.69
   5  -8   2   33.17    7.64
  -5  -7   5   68.02   10.36
   5  -7  -5   62.90   10.53
   5  -7  -4  578.98   32.42
  -5  -7   4  575.34   29.49
   5  -7  -3  166.56   16.73
   5  -7  -2  283.23   21.76
   5  -7  -1  266.41   20.74
  -5  -7   1  264.33   20.78
   5  -7   0  205.68   18.10
  -5  -7   0  217.98   18.30
   5  -7   1  328.18   22.55
  -5  -7  -1  294.08   20.93
   5  -7   2  244.03   19.31
   5  -7   2  239.89   18.97
   5  -7   3   61.68   10.34
   5  -7   3   88.49   11.45
  -5  -7  -4   79.01   12.16
   5  -7   4   80.95   12.36
   5  -6  -6   14.94    5.36
  -5  -6   6   14.26    5.22
   5  -6  -6   13.75    5.60
   5  -6  -5   48.25    8.54
  -5  -6   5   62.68    9.67
   5  -6  -5   69.82   10.75
   5  -6  -4   27.48    7.14
   5  -6  -3   43.56    8.28
   5  -6  -2   77.26   10.75
   5  -6  -1    0.51    2.97
   5  -6   0  208.35   17.07
   5  -6   1   86.21   10.77
  -5  -6  -1   92.00   11.04
  -5  -6  -1  113.14   11.85
   5  -6   1   76.29    9.89
   5  -6   2   74.82    9.90
  -5  -6  -2   73.99   10.29
   5  -6   2   60.05    9.40
   5  -6   3   75.88   10.10
  -5  -6  -3   59.00    9.87
   5  -6   3   77.10   11.09
  -5  -6  -4  133.80   15.58
   5  -6   4  137.70   15.66
  -5  -6  -5  332.09   25.87
   5  -6   5  369.19   27.05
   5  -5  -6  231.44   19.14
  -5  -5   6  273.33   20.66
   5  -5  -6  213.94   19.15
  -5  -5   6  246.17   21.54
   5  -5  -5  559.03   30.12
  -5  -5   5  579.08   29.42
  -5  -5   5  652.84   34.40
   5  -5  -5  557.08   29.60
   5  -5  -4  551.13   28.98
  -5  -5   4  518.03   29.86
   5  -5  -4  595.44   28.59
   5  -5  -3  265.65   19.11
  -5  -5   3  239.65   18.89
   5  -5  -3  256.57   16.98
   5  -5  -2  667.53   31.13
  -5  -5   2  656.11   31.14
   5  -5  -1  427.79   23.86
  -5  -5   1  423.02   23.62
   5  -5   0 1135.67   41.89
  -5  -5   0 1262.16   42.30
   5  -5   1  141.22   13.13
   5  -5   1  178.98   13.91
  -5  -5  -1  161.46   14.10
   5  -5   1  163.97   14.07
   5  -5   2  333.73   19.99
   5  -5   2  308.61   19.01
  -5  -5  -2  296.55   20.46
   5  -5   2  297.64   20.36
   5  -5   3  124.19   11.74
  -5  -5  -3  108.62   12.96
   5  -5   3  116.46   13.29
  -5  -5  -4   16.74    6.34
   5  -5   4   10.16    5.40
  -5  -5  -5  195.26   19.34
   5  -5   5  208.19   19.78
  -5  -5  -6  190.38   19.95
  -5  -5  -6  190.54   19.26
   5  -5   6  227.65   21.63
   5  -4  -7   78.51   12.18
  -5  -4   7   84.78   11.85
   5  -4  -7   86.92   11.82
  -5  -4   7   92.71   13.20
   5  -4  -6   56.79    9.80
  -5  -4   6   65.41   10.12
   5  -4  -6   70.48   10.30
  -5  -4   6   72.68   11.29
   5  -4  -5  106.29   12.29
   5  -4  -5  130.40   13.83
  -5  -4   5  133.55   14.44
   5  -4  -4  251.99   18.40
  -5  -4   4  289.49   20.43
   5  -4  -4  265.22   18.68
   5  -4  -3   35.74    6.30
   5  -4  -3   30.43    6.47
  -5  -4   3   32.34    6.88
   5  -4  -2 1174.89   37.95
   5  -4  -2 1116.07   40.78
  -5  -4   2 1134.55   41.09
   5  -4  -1 1222.65   42.30
  -5  -4   1 1258.43   42.20
   5  -4   0  464.94   23.26
  -5  -4   0  452.12   23.20
  -5  -4   0  442.28   22.17
   5  -4   1   19.76    4.87
   5  -4   1   18.61    4.69
  -5  -4  -1   27.37    5.05
  -5  -4  -1   10.81    4.64
   5  -4   1   15.22    4.50
   5  -4   2  146.14   12.19
   5  -4   2  121.80   11.92
  -5  -4  -2  118.25   12.51
   5  -4   2  126.99   12.80
   5  -4   3  264.69   18.07
  -5  -4  -3  266.40   19.79
   5  -4   3  236.27   18.74
   5  -4   4   57.60    8.83
  -5  -4  -4   73.61   10.91
   5  -4   4   75.20   11.05
   5  -4   5  299.12   20.89
  -5  -4  -5  270.68   22.44
   5  -4   5  318.39   23.94
   5  -4   6  310.79   21.91
  -5  -4  -6  313.11   25.33
  -5  -4  -6  333.42   24.54
   5  -4   6  314.63   25.07
   5  -3  -7   27.72    7.83
  -5  -3   7   39.48    8.08
   5  -3  -7   49.62    8.79
  -5  -3   7   36.75    8.03
   5  -3  -6 1174.63   45.12
  -5  -3   6 1177.52   44.64
  -5  -3   6 1234.14   47.72
   5  -3  -6 1189.14   47.62
   5  -3  -5  116.95   12.65
   5  -3  -5  124.32   13.40
   5  -3  -4  103.37   11.33
  -5  -3   4   99.97   11.61
   5  -3  -4  108.36   11.65
   5  -3  -3  208.66   15.87
   5  -3  -3  219.66   15.69
  -5  -3   3  227.61   16.56
   5  -3  -2   62.20    7.79
   5  -3  -2   82.89    9.58
  -5  -3   2   69.63    8.75
   5  -3  -1  147.54   12.35
   5  -3  -1  133.88   10.66
  -5  -3   1  122.40   10.99
   5  -3   0 1394.48   43.02
  -5  -3   0 1325.50   44.13
  -5  -3   0 1419.01   42.21
   5  -3   1   91.42    9.13
   5  -3   1   63.38    8.52
   5  -3   1   67.38    8.69
  -5  -3  -1   70.00    9.07
  -5  -3  -1   86.55    8.25
   5  -3   2  608.74   24.44
   5  -3   2  601.77   27.25
  -5  -3  -2  545.44   27.55
   5  -3   2  509.57   26.50
  -5  -3  -3  118.79   12.95
   5  -3   3  156.55   13.67
   5  -3   3  141.66   13.91
  -5  -3  -4  698.36   34.59
   5  -3   4  722.54   34.55
   5  -3   4  733.66   32.56
   5  -3   5  450.98   25.82
  -5  -3  -5  431.33   27.79
   5  -3   5  420.59   27.18
   5  -3   6  330.65   22.88
  -5  -3  -6  287.86   24.00
  -5  -3  -6  348.93   23.82
   5  -3   6  301.03   23.86
  -5  -3  -7   56.12    9.90
   5  -3   7   53.24    9.69
  -5  -3  -7   65.82   12.22
   5  -3   7   61.26   11.47
  -5  -2   8  145.59   16.04
  -5  -2   8  161.40   16.41
   5  -2  -8  142.36   17.36
   5  -2  -7   -1.47    3.46
  -5  -2   7    9.02    4.17
   5  -2  -7    6.76    4.15
  -5  -2   7    8.50    4.49
   5  -2  -6 1294.58   47.14
   5  -2  -6 1295.21   50.44
  -5  -2   6 1366.33   49.39
   5  -2  -5  306.03   20.31
   5  -2  -5  386.69   23.76
  -5  -2   5  357.18   22.17
   5  -2  -4  155.74   14.23
   5  -2  -4  197.39   15.38
  -5  -2   4  168.43   14.30
   5  -2  -3  202.89   15.00
   5  -2  -3  163.63   13.82
  -5  -2   3  205.25   15.16
   5  -2  -2   36.57    6.14
   5  -2  -2   26.41    5.58
  -5  -2   2   27.27    5.31
   5  -2  -1  376.76   19.51
   5  -2  -1  404.30   19.65
  -5  -2   1  336.47   18.22
   5  -2   0  388.80   19.28
   5  -2   0  403.65   18.28
  -5  -2   0  404.24   18.87
   5  -2   1  255.14   14.90
   5  -2   1  275.25   17.47
  -5  -2  -1  271.35   17.77
  -5  -2  -1  291.81   14.81
   5  -2   2  179.04   11.78
   5  -2   2  169.88   14.03
  -5  -2  -2  167.25   14.44
   5  -2   2  155.01   13.72
  -5  -2  -3  182.34   15.93
   5  -2   3  237.21   17.11
   5  -2   3  196.52   16.07
  -5  -2  -4  243.67   19.22
   5  -2   4  247.66   18.93
   5  -2   4  221.00   17.16
   5  -2   5  509.31   27.62
  -5  -2  -5  479.14   29.22
   5  -2   5  488.38   28.74
  -5  -2  -5  520.20   27.04
   5  -2   6  223.77   18.92
  -5  -2  -6  194.27   19.27
  -5  -2  -6  193.24   16.65
   5  -2   6  240.30   20.77
  -5  -2  -7  436.02   30.48
   5  -2   7  419.18   27.34
   5  -2   7  415.37   29.27
  -5  -1   8  253.11   20.52
   5  -1  -8  288.71   24.88
  -5  -1   8  272.76   21.46
   5  -1  -7   38.91    9.06
  -5  -1   7   37.64    7.62
   5  -1  -7   38.82    7.77
  -5  -1   7   36.84    7.72
   5  -1  -6  292.94   20.25
   5  -1  -6  281.50   21.92
  -5  -1   6  300.28   20.86
   5  -1  -5  164.27   15.47
   5  -1  -5  129.74   13.01
  -5  -1   5  164.33   14.51
   5  -1  -4   70.44    9.76
   5  -1  -4   56.73    8.17
  -5  -1   4   79.22    9.61
   5  -1  -3   20.96    5.20
   5  -1  -3   17.00    4.63
  -5  -1   3   18.94    4.64
   5  -1  -2  490.11   22.87
   5  -1  -2  436.81   22.37
  -5  -1   2  440.55   21.50
   5  -1  -1   78.59    8.60
   5  -1  -1   76.14    8.42
  -5  -1   1   85.68    8.57
   5  -1   0  729.36   27.08
  -5  -1   0  701.07   25.68
   5  -1   1 2605.73   63.49
   5  -1   1 2708.93   69.74
  -5  -1  -1 2526.19   69.06
  -5  -1  -1 2719.26   61.94
   5  -1   2  194.14   11.98
   5  -1   2  192.14   14.93
  -5  -1  -2  188.95   15.22
   5  -1   2  198.37   14.99
  -5  -1  -2  238.02   11.84
  -5  -1  -3  224.99   17.38
   5  -1   3  180.13   15.12
   5  -1   3  224.71   16.73
  -5  -1  -4  263.72   19.95
   5  -1   4  252.37   18.79
   5  -1   4  244.51   18.07
   5  -1   5  228.17   18.15
  -5  -1  -5  199.89   18.20
   5  -1   5  260.25   20.08
  -5  -1  -5  218.53   16.12
  -5  -1  -6   17.93    6.38
   5  -1   6    8.98    4.26
   5  -1   6    4.86    3.67
  -5  -1  -7  320.79   25.75
   5  -1   7  348.95   24.99
   5  -1   7  352.45   26.25
   5   0  -8   22.75    7.34
  -5   0   8   16.85    5.38
  -5   0   8   14.48    5.40
   5   0  -7  317.99   21.96
  -5   0   7  295.11   20.31
   5   0  -7  358.16   26.19
  -5   0   7  330.71   22.61
   5   0  -6   42.38    8.83
   5   0  -6   25.71    6.31
  -5   0   6   36.58    7.50
   5   0  -5  214.32   16.59
   5   0  -5  232.86   18.86
  -5   0   5  251.69   18.03
   5   0  -4  127.27   13.41
   5   0  -4  107.04   11.26
  -5   0   4  110.85   11.40
   5   0  -3 1584.77   49.24
   5   0  -3 1635.21   51.93
  -5   0   3 1678.47   49.91
   5   0  -2 1725.22   49.84
   5   0  -2 1660.55   51.12
  -5   0   2 1719.62   49.40
   5   0  -1   23.97    4.81
  -5   0   1   27.36    4.95
   5   0  -1   28.61    5.66
   5   0   0   11.88    3.35
  -5   0   0   11.29    3.13
   5   0   1  187.48   12.05
   5   0   1  198.11   14.72
  -5   0  -1  216.99   15.43
  -5   0  -1  186.50   11.60
   5   0   2   25.00    4.25
   5   0   2   27.85    5.94
  -5   0  -2   26.91    4.02
  -5   0  -2   29.18    6.22
  -5   0  -3  137.60   13.31
   5   0   3  113.47   11.84
   5   0   3  121.44   12.22
  -5   0  -4  216.05   17.88
   5   0   4  217.38   17.10
   5   0   4  235.81   17.70
   5   0   5   59.27    9.55
  -5   0  -5   64.40   10.45
   5   0   6  752.65   35.80
  -5   0  -6  665.88   35.71
   5   0   6  695.00   35.40
   5   0   7    6.30    4.73
  -5   0  -7    2.71    4.03
   5   0   7   -1.59    3.39
  -5   1   8  287.11   20.73
   5   1  -8  272.92   24.76
  -5   1   8  295.07   22.17
   5   1  -7   34.14    8.59
  -5   1   7   33.85    7.22
   5   1  -7   47.01    8.63
  -5   1   7   35.80    7.59
   5   1  -6  298.72   20.73
   5   1  -6  294.75   22.94
  -5   1   6  335.87   21.93
   5   1  -5  139.05   13.54
   5   1  -5  141.49   14.94
  -5   1   5  173.85   14.94
   5   1  -4   70.68    9.27
  -5   1   4   50.72    7.86
   5   1  -4   67.40    9.86
   5   1  -3   15.45    4.47
  -5   1   3   15.34    4.38
   5   1  -3   19.96    5.41
   5   1  -2  446.04   22.22
   5   1  -2  463.87   24.03
  -5   1   2  446.78   21.98
   5   1  -1   72.23    8.28
  -5   1   1   75.04    8.26
  -5   1   0  689.69   26.24
   5   1   0  722.12   27.02
  -5   1  -1 2628.62   62.55
   5   1   1 2609.83   62.95
   5   1   1 2524.67   68.19
  -5   1  -1 2689.29   69.46
  -5   1  -2  200.56   11.67
   5   1   2  210.87   12.17
   5   1   2  180.01   14.59
  -5   1  -2  188.36   14.82
   5   1   3  198.35   15.16
  -5   1  -3  199.70   15.90
   5   1   3  209.76   16.37
   5   1   4  241.36   17.97
  -5   1  -4  205.20   17.21
   5   1   4  242.78   17.75
   5   1   5  200.78   17.37
  -5   1  -5  230.05   18.98
   5   1   5  232.64   18.18
  -5   1  -6   10.37    5.11
   5   1   6    3.84    3.38
   5   1   6    6.65    3.85
  -5   1  -7  323.97   25.32
   5   1   7  348.08   24.96
   5   1   7  322.85   24.29
   5   2  -8  169.05   19.36
  -5   2   8  163.76   16.47
   5   2  -7    0.62    3.47
   5   2  -7    0.20    2.69
  -5   2   7    2.73    2.90
   5   2  -6 1268.15   47.97
   5   2  -6 1341.26   53.41
  -5   2   6 1374.47   49.35
   5   2  -5  355.13   22.30
   5   2  -5  397.93   25.95
  -5   2   5  361.02   22.44
   5   2  -4  177.22   14.86
   5   2  -4  170.11   16.09
  -5   2   4  159.62   14.16
  -5   2   3  205.16   15.46
   5   2  -3  210.02   15.70
   5   2  -3  218.89   17.30
   5   2  -2   41.55    6.75
  -5   2   2   37.05    6.34
   5   2  -2   29.42    6.41
  -5   2   1  358.69   19.32
   5   2  -1  347.90   19.07
  -5   2   0  347.14   18.47
   5   2   0  345.88   18.13
   5   2   0  347.77   19.53
  -5   2  -1  267.25   15.47
   5   2   1  285.11   15.58
   5   2   1  279.26   17.68
  -5   2  -2  176.97   11.80
   5   2   2  184.92   11.71
   5   2   2  154.06   13.62
  -5   2  -2  183.10   14.42
  -5   2  -3  257.96   17.89
   5   2   3  194.95   15.92
   5   2   4  240.51   18.15
  -5   2  -4  258.48   18.97
   5   2   4  243.70   17.42
   5   2   5  481.67   27.26
  -5   2  -5  450.48   26.86
   5   2   5  457.34   25.52
   5   2   6  225.40   19.05
  -5   2  -6  187.07   17.82
   5   2   6  190.67   17.05
  -5   2  -7  400.92   27.76
   5   2   7  424.46   27.99
   5   3  -7   35.65    7.99
  -5   3   7   45.63    8.99
   5   3  -7   46.81   10.20
   5   3  -6 1204.95   47.33
  -5   3   6 1300.23   48.38
   5   3  -6 1235.67   51.68
  -5   3   5  140.96   14.05
   5   3  -5  118.51   13.09
   5   3  -5  120.50   14.56
   5   3  -4   95.84   11.44
  -5   3   4   86.50   10.84
   5   3  -4   95.73   12.38
  -5   3   3  191.18   15.53
   5   3  -3  208.49   16.07
   5   3  -3  186.62   16.53
  -5   3   2   80.12    9.70
   5   3  -2   76.56    9.44
  -5   3   1  126.71   11.94
   5   3  -1  157.14   12.91
  -5   3   0 1311.46   42.64
   5   3   0 1360.28   42.42
   5   3   0 1371.49   43.65
   5   3   1   71.50    8.06
   5   3   1   60.30    8.12
  -5   3  -1   52.70    7.26
   5   3   2  630.99   24.40
  -5   3  -2  602.25   24.96
   5   3   2  541.50   26.69
  -5   3  -2  635.70   28.11
  -5   3  -3  127.47   12.52
   5   3   3  147.15   13.53
   5   3   4  626.29   30.88
  -5   3  -4  777.57   33.53
   5   3   5  420.80   25.61
  -5   3  -5  473.32   26.99
   5   3   6  323.62   23.23
  -5   3  -6  328.84   23.35
   5   3   7   71.87   11.48
   5   4  -7   53.16    9.82
   5   4  -7   80.39   13.08
   5   4  -6   74.14   11.30
  -5   4   6   62.33   10.32
   5   4  -6   67.69   11.54
  -5   4   5  138.88   14.52
   5   4  -5  138.00   14.71
   5   4  -5  122.70   14.85
  -5   4   4  261.60   19.45
   5   4  -4  241.16   18.98
   5   4  -4  233.74   19.76
   5   4  -3   27.06    6.34
  -5   4   3   48.27    8.28
  -5   4   2 1166.67   43.07
   5   4  -2 1180.22   42.65
   5   4  -1 1177.86   41.65
  -5   4   1 1202.26   42.71
   5   4   0  433.12   22.52
  -5   4   0  445.10   23.64
   5   4   0  442.06   22.35
   5   4   1   25.30    5.28
  -5   4  -1   23.16    5.28
   5   4   1   18.12    4.72
   5   4   2   99.67    9.60
  -5   4  -2  109.45   10.86
   5   4   2  119.28   11.78
  -5   4  -3  301.66   18.99
   5   4   3  253.77   18.18
   5   4   4   69.11    9.93
  -5   4  -4   72.65    9.74
   5   4   5  269.75   20.36
   5   4   6  304.81   22.72
  -5   5   6  258.20   21.30
   5   5  -6  273.28   22.05
   5   5  -6  268.24   23.26
  -5   5   5  608.15   32.76
   5   5  -5  553.23   31.70
   5   5  -5  616.94   34.87
  -5   5   4  574.66   31.29
   5   5  -4  620.69   32.30
   5   5  -3  223.60   18.39
  -5   5   3  233.01   19.04
   5   5  -2  660.57   31.48
  -5   5   2  592.19   30.46
   5   5  -1  424.98   24.38
  -5   5   1  459.14   25.77
   5   5  -1  458.81   22.48
   5   5   0 1084.23   40.52
  -5   5   0 1099.93   42.31
   5   5   0 1221.36   39.91
  -5   5  -1  172.94   14.95
   5   5   1  135.25   12.19
  -5   5  -2  313.13   19.82
   5   5   2  277.83   18.40
   5   5   3  115.50   12.15
   5   5   4    5.93    3.88
   5   5   5  202.07   17.72
   5   5   6  200.13   18.37
   5   6  -6   21.85    6.79
  -5   6   6   12.72    5.86
   5   6  -5   58.12   10.48
  -5   6   5   47.51    9.62
   5   6  -4   31.82    7.90
  -5   6   4   37.02    8.38
   5   6  -3   35.61    8.09
  -5   6   3   57.10    9.85
   5   6  -2   77.23   11.13
  -5   6   2   83.07   11.66
  -5   6   1    0.63    2.96
  -5   6   0  199.72   17.31
   5   6   0  217.64   16.93
  -5   6  -1   94.54   11.74
   5   6   1  110.64   11.74
  -5   6  -2   84.69   11.11
  -5   6  -3   62.25    9.35
   5   6   5  356.01   23.66
  -5   7   5   79.12   12.63
  -5   7   4  566.63   33.75
  -5   7   3  174.97   18.13
   5   7  -3  161.64   17.12
  -5   7   2  258.06   21.95
   5   7  -2  296.64   22.59
  -5   7   1  318.96   23.59
   5   7  -1  281.10   21.26
  -5   7   0  220.69   19.60
   5   7   0  243.16   19.00
  -5   7  -1  304.17   22.56
   5   7   1  316.30   20.93
  -5   7  -2  231.65   19.47
  -5   7  -3   64.39   10.20
  -5   8   3   69.29   12.50
   5   8  -3   79.62   12.63
  -5   8   2   56.80   10.86
   5   8  -2   48.03   10.01
  -5   8   1   94.29   13.59
   5   8  -1   86.31   12.41
  -5   8   0  271.31   22.75
   5   8   0  251.43   20.33
  -5   8  -1  264.26   22.16
  -5   8  -2   27.70    7.34
   6  -7  -3  330.53   24.88
   6  -7  -2  109.22   14.03
   6  -7  -1  250.61   21.34
   6  -7   0   28.03    7.70
   6  -7   1  202.43   18.36
  -6  -7  -1  156.30   15.90
   6  -7   2   -0.35    3.24
   6  -7   2    4.05    4.01
  -6  -6   5   31.71    7.57
   6  -6  -5   16.78    6.64
  -6  -6   5   25.45    7.59
   6  -6  -4  606.64   33.56
  -6  -6   4  564.18   33.80
   6  -6  -3   24.70    7.19
  -6  -6   3   17.98    6.39
   6  -6  -2  212.93   18.65
  -6  -6   2  145.07   15.58
   6  -6  -1   57.24    9.70
   6  -6   0   17.03    5.91
   6  -6   1  327.54   22.45
  -6  -6  -1  359.05   23.49
   6  -6   2  210.02   17.60
  -6  -6  -2  195.03   18.02
   6  -6   2  207.36   18.40
  -6  -6  -3  144.66   16.39
   6  -6   3  191.10   18.67
  -6  -6  -4  129.33   16.21
   6  -6   4  170.38   18.28
   6  -5  -5   61.94   10.58
   6  -5  -5   45.37    9.02
  -6  -5   5   68.05   11.57
   6  -5  -4  595.12   32.23
  -6  -5   4  584.92   33.00
   6  -5  -3  388.46   25.21
  -6  -5   3  453.52   27.56
   6  -5  -2  310.27   21.62
  -6  -5   2  271.51   20.44
   6  -5  -1  120.41   13.14
  -6  -5   1  100.18   11.84
   6  -5   0  105.30   11.96
   6  -5   0   81.61   10.61
  -6  -5   0   92.10   10.85
   6  -5   1   95.98   11.40
   6  -5   1   99.40   11.71
  -6  -5  -1   84.00   11.19
   6  -5   2   47.26    7.90
  -6  -5  -2   30.56    7.46
   6  -5   2   39.66    7.51
   6  -5   2   21.95    6.55
  -6  -5  -3   27.28    7.39
   6  -5   3   35.70    8.25
  -6  -5  -4  257.07   22.45
   6  -5   4  261.86   22.38
  -6  -5  -5  833.95   43.35
   6  -5   5  755.81   41.34
   6  -4  -6  201.60   18.76
  -6  -4   6  193.78   19.36
   6  -4  -6  239.10   21.24
   6  -4  -5  242.48   20.06
  -6  -4   5  292.37   22.82
   6  -4  -5  242.82   20.19
  -6  -4   4  273.94   21.14
   6  -4  -4  261.77   20.24
   6  -4  -4  259.47   19.76
   6  -4  -3  101.53   12.19
   6  -4  -3  143.12   13.69
  -6  -4   3  129.45   13.94
   6  -4  -2 1056.98   41.66
  -6  -4   2 1091.51   42.12
   6  -4  -1   77.02   10.16
  -6  -4   1   76.61    9.86
   6  -4   0   92.02   10.96
  -6  -4   0   96.05   10.52
   6  -4   1  246.60   17.50
   6  -4   1  229.03   17.75
  -6  -4  -1  224.52   18.04
  -6  -4  -1  263.06   16.86
   6  -4   2  500.18   24.65
   6  -4   2  448.88   25.64
  -6  -4  -2  435.66   26.66
   6  -4   2  438.83   26.28
  -6  -4  -3  471.80   29.08
   6  -4   3  531.31   28.41
   6  -4   3  460.74   28.46
  -6  -4  -4  445.80   29.56
   6  -4   4  436.51   28.74
   6  -4   4  488.19   27.98
   6  -4   5  133.82   14.88
  -6  -4  -5  126.90   16.16
   6  -4   5  114.10   15.18
   6  -3  -6  368.14   25.37
   6  -3  -6  442.24   29.02
  -6  -3   6  445.38   28.35
   6  -3  -5  313.03   22.42
   6  -3  -5  346.25   24.07
  -6  -3   5  299.42   22.41
   6  -3  -4  315.66   21.80
   6  -3  -4  316.91   22.05
  -6  -3   4  308.20   21.70
   6  -3  -3   90.45   11.33
   6  -3  -3   92.13   11.05
  -6  -3   3   81.00   10.48
   6  -3  -2  147.59   13.80
   6  -3  -2  149.17   13.38
  -6  -3   2  131.85   12.88
   6  -3  -1  629.83   29.16
  -6  -3   1  620.80   28.11
   6  -3   0  728.08   31.32
  -6  -3   0  820.96   31.44
   6  -3   1  321.78   19.28
   6  -3   1  307.50   20.71
  -6  -3  -1  317.72   21.34
  -6  -3  -1  348.41   18.59
   6  -3   2   86.39    9.48
   6  -3   2   69.08    9.92
  -6  -3  -2   86.41   11.53
   6  -3   2   87.46   11.20
  -6  -3  -3  117.38   13.99
   6  -3   3   97.30   12.01
   6  -3   3  106.12   13.02
   6  -3   4   26.66    7.17
   6  -3   4   17.51    5.56
  -6  -3  -4   29.96    8.07
  -6  -3  -5    5.23    4.03
   6  -3   5   13.23    5.46
   6  -3   5    8.89    4.46
   6  -3   6  310.15   23.77
  -6  -3  -6  284.38   25.31
   6  -3   6  315.22   25.82
  -6  -3  -6  314.33   23.61
   6  -2  -7   61.10   11.76
  -6  -2   7   85.02   11.77
   6  -2  -7   80.82   11.93
  -6  -2   7   76.33   11.92
   6  -2  -6  244.68   20.20
   6  -2  -6  273.61   22.82
  -6  -2   6  296.14   22.26
   6  -2  -5  228.67   18.69
   6  -2  -5  186.35   17.95
  -6  -2   5  241.01   19.31
   6  -2  -4  393.28   24.33
   6  -2  -4  452.07   26.58
  -6  -2   4  435.48   25.43
   6  -2  -3  283.60   19.57
   6  -2  -3  275.22   19.54
  -6  -2   3  258.27   18.52
   6  -2  -2  181.35   15.06
   6  -2  -2  178.94   15.00
  -6  -2   2  170.84   14.25
   6  -2  -1 1113.27   40.23
  -6  -2   1 1059.48   38.42
   6  -2   0  608.52   27.24
  -6  -2   0  636.78   26.45
   6  -2   1  365.12   19.84
   6  -2   1  379.51   22.86
  -6  -2  -1  363.78   22.76
  -6  -2  -1  352.50   18.06
   6  -2   2   81.87    8.84
   6  -2   2   80.64   10.71
  -6  -2  -2   55.04    9.30
   6  -2   2   68.00    9.81
  -6  -2  -3  157.23   15.98
   6  -2   3  129.95   13.77
   6  -2   3  148.92   15.12
  -6  -2  -4  125.22   15.00
   6  -2   4  135.15   15.06
   6  -2   4  130.14   14.18
   6  -2   5  113.03   13.81
  -6  -2  -5  104.09   14.53
   6  -2   5  114.54   14.63
   6  -2   6   26.34    7.51
  -6  -2  -6   29.31    8.24
   6  -2   6   50.08   10.28
   6  -1  -7   89.32   14.07
   6  -1  -7   77.56   11.68
  -6  -1   7   92.46   12.81
   6  -1  -6  150.08   15.59
   6  -1  -6  164.42   17.79
  -6  -1   6  158.06   16.04
   6  -1  -5   11.59    5.27
   6  -1  -5    7.40    4.26
  -6  -1   5    6.08    3.99
   6  -1  -4  144.18   14.41
   6  -1  -4  155.94   15.69
  -6  -1   4  140.96   13.96
   6  -1  -3   45.62    7.82
  -6  -1   3   49.64    8.03
   6  -1  -3   49.73    8.45
   6  -1  -2  263.98   18.26
   6  -1  -2  311.09   20.21
  -6  -1   2  294.53   18.56
   6  -1  -1  449.65   23.44
   6  -1  -1  487.65   24.39
  -6  -1   1  468.12   23.09
   6  -1   0  247.60   16.38
  -6  -1   0  240.89   15.27
   6  -1   1  171.37   13.21
   6  -1   1  178.53   15.69
  -6  -1  -1  184.59   15.91
  -6  -1  -1  193.31   12.77
   6  -1   2  109.47    9.90
   6  -1   2  109.49   12.57
  -6  -1  -2   95.84   11.93
  -6  -1  -3  118.56   13.69
   6  -1   3  106.89   12.50
   6  -1   3  128.07   13.72
  -6  -1  -4  150.99   16.25
   6  -1   4  116.58   13.92
   6  -1   4  134.70   14.46
  -6  -1  -5   24.35    7.43
   6  -1   5   35.73    8.16
   6  -1   5   22.47    6.55
   6  -1   6   47.87    9.47
  -6  -1  -6   34.30    8.82
   6  -1   6   53.39   10.50
   6   0  -7    6.80    5.42
   6   0  -7    2.45    3.36
  -6   0   7    9.50    4.90
   6   0  -6  136.08   14.90
   6   0  -6  138.72   16.61
  -6   0   6  155.41   15.74
   6   0  -5   16.33    5.41
  -6   0   5   28.45    6.87
   6   0  -5   34.07    8.14
   6   0  -4    3.03    2.98
  -6   0   4   -1.58    3.29
   6   0  -4   -0.70    3.09
   6   0  -3  370.37   22.17
   6   0  -3  340.60   22.60
  -6   0   3  311.38   20.14
   6   0  -2    7.56    3.89
  -6   0   2    9.37    4.14
   6   0  -2    6.74    3.66
   6   0  -1 1690.89   51.18
  -6   0   1 1627.02   49.61
   6   0   0 1632.40   49.27
  -6   0   0 1683.13   48.63
   6   0   1  236.75   15.32
   6   0   1  243.53   18.31
  -6   0  -1  279.58   19.45
  -6   0  -1  260.01   15.17
   6   0   2  134.55   10.93
   6   0   2  146.04   14.32
  -6   0  -2  133.47   13.81
  -6   0  -3  616.73   32.15
   6   0   3  617.16   31.24
  -6   0  -4  177.32   17.22
   6   0   4  158.58   15.74
   6   0   4  159.89   15.88
   6   0   5  205.87   18.76
  -6   0  -5  209.88   19.63
   6   0   5  215.48   19.16
   6   0   6  181.68   18.27
  -6   0  -6  160.24   17.97
   6   0   6  192.79   19.19
   6   1  -7   69.83   11.27
  -6   1   7  118.89   14.53
   6   1  -7  110.72   15.87
   6   1  -6  137.63   15.00
   6   1  -6  141.18   17.05
  -6   1   6  137.71   14.99
   6   1  -5   19.94    6.29
  -6   1   5    7.58    4.56
   6   1  -5   18.29    6.51
   6   1  -4  164.42   15.34
   6   1  -4  156.01   16.37
  -6   1   4  145.92   14.46
   6   1  -3   39.05    7.55
  -6   1   3   49.68    8.08
   6   1  -3   42.84    8.59
   6   1  -2  289.51   19.17
   6   1  -2  332.05   21.79
  -6   1   2  306.97   19.38
   6   1  -1  464.11   23.86
  -6   1   1  477.01   23.79
   6   1   0  240.81   16.24
   6   1   0  281.33   19.30
  -6   1   0  254.95   16.20
   6   1   1  205.49   14.24
   6   1   1  172.74   15.29
  -6   1  -1  210.40   13.94
   6   1   2   86.60   11.14
  -6   1  -2   83.05   10.96
  -6   1  -3  121.71   13.50
   6   1   3  105.07   12.50
  -6   1  -4   86.92   11.97
   6   1   4  135.59   14.59
  -6   1  -5   24.46    6.86
   6   1   5   23.21    6.85
   6   1   5   29.07    7.50
   6   1   6   47.25    9.64
  -6   1  -6   48.75    9.83
   6   1   6   55.59   10.13
   6   2  -7   93.16   13.08
  -6   2   7   91.63   13.07
   6   2  -7   90.72   14.43
   6   2  -6  281.06   22.04
   6   2  -6  320.37   25.82
  -6   2   6  301.45   22.74
   6   2  -5  221.95   18.71
   6   2  -5  229.06   21.09
  -6   2   5  215.91   18.55
   6   2  -4  446.82   26.47
   6   2  -4  484.91   29.35
  -6   2   4  442.81   25.83
   6   2  -3  285.85   20.13
   6   2  -3  301.88   22.26
  -6   2   3  335.33   21.42
  -6   2   2  196.04   15.86
   6   2  -2  207.21   16.29
  -6   2   1 1115.68   39.98
   6   2  -1 1083.89   39.67
  -6   2   0  626.32   27.73
   6   2   0  627.84   27.83
   6   2   0  690.57   31.43
  -6   2  -1  349.70   19.25
   6   2   1  379.83   20.09
   6   2   1  352.57   22.03
  -6   2  -2   75.48   10.49
   6   2   2   51.73    8.89
  -6   2  -3  119.00   13.32
   6   2   3  135.00   14.10
  -6   2  -4  130.99   14.51
   6   2   4  142.56   15.03
   6   2   5   86.74   12.21
  -6   2  -5  118.55   14.33
   6   2   6   19.34    7.12
  -6   2  -6   29.12    7.73
   6   2   6   19.97    6.18
   6   3  -6  346.91   25.20
   6   3  -6  416.14   30.25
  -6   3   6  377.46   25.93
   6   3  -5  327.19   23.50
   6   3  -5  295.41   24.47
  -6   3   5  339.78   23.70
  -6   3   4  339.78   23.32
   6   3  -4  349.44   23.62
   6   3  -4  339.39   25.19
   6   3  -3   78.26   10.77
  -6   3   3   83.09   11.04
  -6   3   2  163.95   14.74
   6   3  -2  126.78   13.11
  -6   3   1  615.56   29.20
   6   3  -1  614.50   29.01
  -6   3   0  826.17   33.60
   6   3   0  827.72   33.39
   6   3   0  779.84   34.06
  -6   3  -1  321.33   19.59
   6   3   1  360.44   20.10
   6   3   1  321.84   21.02
  -6   3  -2   88.19    9.52
   6   3   2   77.46   10.53
  -6   3  -3  115.88   13.10
   6   3   3  112.88   13.00
   6   3   4   31.25    7.81
  -6   3  -4   22.58    6.26
   6   3   5   18.17    5.96
  -6   3  -5   20.70    6.36
   6   3   6  315.14   24.16
  -6   3  -6  291.20   23.68
   6   4  -6  222.78   20.49
   6   4  -6  232.88   22.70
  -6   4   6  210.20   19.85
  -6   4   5  268.13   21.79
   6   4  -5  254.21   21.22
   6   4  -5  217.82   21.36
  -6   4   4  271.58   21.29
   6   4  -4  233.76   19.84
  -6   4   3  135.42   14.54
   6   4  -3  145.08   15.01
  -6   4   2 1105.87   43.68
   6   4  -2 1088.89   43.15
  -6   4   1   93.21   11.38
   6   4  -1   64.36    9.28
   6   4  -1   79.26   10.44
  -6   4   0   85.84   10.64
   6   4   0   85.74   10.49
   6   4   0   85.64   10.59
   6   4   1  243.60   17.26
  -6   4  -1  233.22   17.37
   6   4   1  232.94   17.87
  -6   4  -2  426.25   23.38
   6   4   2  448.72   25.75
   6   4   3  492.74   27.81
   6   4   4  446.61   27.30
   6   4   5  114.52   14.38
   6   5  -5   82.67   12.73
  -6   5   5   69.81   11.87
  -6   5   4  576.50   33.19
   6   5  -4  605.03   33.80
  -6   5   3  419.55   27.30
   6   5  -3  421.44   27.06
  -6   5   2  271.99   21.19
   6   5  -2  302.66   22.12
   6   5  -1  130.43   13.93
  -6   5   1  112.09   13.17
   6   5  -1  132.79   13.08
  -6   5   0   94.50   11.97
   6   5   0   84.23   11.04
   6   5   0   84.78   10.61
   6   5   1  101.72   11.48
   6   5   1   89.03   11.23
  -6   5  -1   85.88   11.11
   6   5   2   37.08    7.59
  -6   5  -2   31.45    6.97
   6   5   3   24.34    6.56
   6   5   4  261.05   20.64
   6   5   5  797.07   38.77
   6   6  -5   17.87    6.84
  -6   6   5   11.69    5.24
  -6   6   4  624.27   35.80
   6   6  -4  621.98   35.59
   6   6  -3   34.21    8.61
  -6   6   3   19.40    6.82
   6   6  -2  185.44   17.94
  -6   6   2  233.74   20.44
   6   6  -1   63.39   10.24
  -6   6   1   78.42   11.78
  -6   6   0   11.89    4.93
  -6   6  -1  330.98   23.31
  -6   6  -2  204.17   17.84
  -6   7   3  331.30   26.18
  -6   7   2  114.53   15.29
  -6   7   1  215.24   20.28
   6   7  -1  209.14   19.05
  -6   7   0   19.60    6.74
   6   7   0   12.70    5.10
  -6   7  -1  150.39   16.51
  -6   7  -2   -0.37    3.06
   7  -6  -3  156.36   17.37
  -7  -6   3  149.02   17.02
   7  -6  -2   97.44   13.60
  -7  -6   2  107.11   14.09
   7  -6  -1  250.15   21.28
   7  -6   0   25.71    7.16
   7  -6   1   34.93    7.99
  -7  -6  -2  200.36   19.78
   7  -5  -4  159.81   17.26
  -7  -5   4  119.99   15.35
   7  -5  -3   29.22    7.59
  -7  -5   3   31.28    7.73
   7  -5  -2   61.88   10.41
  -7  -5   2   51.43    9.45
   7  -5  -1  239.15   19.91
  -7  -5   1  200.32   17.82
   7  -5   0  106.84   13.22
   7  -5   0   97.57   12.45
  -7  -5   0  108.16   12.75
   7  -5   1  344.22   23.16
   7  -5   1  362.57   24.56
  -7  -5  -1  349.96   24.99
  -7  -5  -2    3.04    3.81
   7  -5   2    4.42    3.50
  -7  -5  -3   31.49    8.61
   7  -5   3   17.08    6.18
   7  -4  -5   93.23   13.37
  -7  -4   5   76.89   12.65
   7  -4  -4   79.59   11.96
  -7  -4   4   74.53   11.71
   7  -4  -3  320.37   23.38
  -7  -4   3  293.72   22.43
   7  -4  -2   96.24   12.45
  -7  -4   2  114.30   13.30
   7  -4  -1  232.79   19.00
  -7  -4   1  244.56   18.91
   7  -4   0  325.89   21.97
   7  -4   0  296.70   22.33
  -7  -4   0  288.92   19.83
   7  -4   1   77.34   11.53
   7  -4   1   65.02    9.80
  -7  -4  -1   57.95   10.40
   7  -4   2    3.62    3.49
  -7  -4  -2   -1.35    3.79
  -7  -4  -3  397.35   28.32
   7  -4   3  356.80   25.17
   7  -4   3  350.55   26.00
   7  -4   4   53.94   10.00
  -7  -4  -4   69.41   12.33
   7  -4   4   74.26   12.36
   7  -3  -5  304.72   24.51
  -7  -3   5  349.40   25.77
   7  -3  -4   12.42    5.40
   7  -3  -4   13.89    5.84
  -7  -3   4   11.23    4.95
   7  -3  -3  272.98   21.20
   7  -3  -3  271.14   20.70
  -7  -3   3  260.76   20.25
   7  -3  -2   59.08    9.75
  -7  -3   2   58.05    9.26
   7  -3  -1  126.92   13.62
  -7  -3   1  151.04   14.11
   7  -3   0  292.14   20.36
   7  -3   0  282.61   21.80
  -7  -3   0  322.31   20.00
   7  -3   1   96.26   11.19
   7  -3   1   75.01   11.31
  -7  -3  -1   83.07   11.96
   7  -3   2  128.14   14.86
  -7  -3  -2  109.23   14.04
  -7  -3  -3  249.52   22.10
   7  -3   3  232.56   20.24
   7  -3   3  272.08   22.32
   7  -3   4   70.90   11.35
  -7  -3  -4   59.38   11.68
   7  -3   4   53.29   10.62
   7  -2  -6  180.51   18.63
   7  -2  -6  196.98   20.57
  -7  -2   6  205.37   19.67
   7  -2  -5  117.99   14.62
   7  -2  -5  130.03   15.91
  -7  -2   5  120.36   14.64
   7  -2  -4  191.40   18.13
   7  -2  -4  202.50   19.12
  -7  -2   4  216.56   18.68
   7  -2  -3  724.42   35.33
   7  -2  -3  763.87   36.44
  -7  -2   3  704.48   34.02
   7  -2  -2  480.37   27.37
   7  -2  -2  472.91   26.80
  -7  -2   2  461.09   25.81
   7  -2  -1  100.94   11.90
  -7  -2   1  124.09   12.45
   7  -2   0 1030.13   40.14
   7  -2   0 1006.19   43.04
  -7  -2   0 1047.42   38.05
   7  -2   1  172.25   14.63
   7  -2   1  185.07   17.27
   7  -2   2  144.38   15.53
  -7  -2  -2  147.73   16.35
   7  -2   3  645.82   34.33
  -7  -2  -3  584.53   34.25
   7  -2   4   23.96    7.25
  -7  -2  -4   21.85    7.25
   7  -2   4   27.87    7.68
   7  -2   5   62.38   10.94
  -7  -2  -5   63.23   11.91
   7  -2   5   50.47   10.73
   7  -1  -6  891.73   42.86
   7  -1  -6  854.27   45.01
  -7  -1   6  888.82   42.55
   7  -1  -5  402.00   27.15
   7  -1  -5  381.49   28.10
  -7  -1   5  422.95   27.28
   7  -1  -4  109.31   13.52
   7  -1  -4  110.93   14.16
  -7  -1   4  125.67   14.29
   7  -1  -3  108.16   13.14
   7  -1  -3  122.34   14.16
  -7  -1   3  138.63   14.22
   7  -1  -2  277.60   20.18
   7  -1  -2  277.99   20.63
  -7  -1   2  258.14   18.82
   7  -1  -1  829.76   35.78
  -7  -1   1  848.81   34.67
   7  -1   0  310.77   20.16
   7  -1   0  293.91   21.92
  -7  -1   0  272.97   17.80
   7  -1   1  412.06   22.95
   7  -1   1  420.65   26.43
   7  -1   2   52.20    9.48
  -7  -1  -2   40.26    8.51
  -7  -1  -3   36.30    8.51
   7  -1   3   45.13    9.00
  -7  -1  -4  334.94   26.22
   7  -1   4  326.84   24.87
   7  -1   4  323.13   24.45
   7  -1   5  131.87   15.93
  -7  -1  -5  136.67   17.15
   7  -1   5  142.70   17.04
   7   0  -6    6.56    4.32
  -7   0   6    3.32    2.97
   7   0  -6    5.27    4.47
   7   0  -5  342.53   24.94
   7   0  -5  339.55   26.54
  -7   0   5  349.85   24.62
   7   0  -4  356.46   24.52
   7   0  -4  310.65   24.30
  -7   0   4  362.35   24.19
   7   0  -3   66.33   10.26
  -7   0   3   33.04    7.29
   7   0  -3   67.12   11.02
   7   0  -2    1.75    3.44
  -7   0   2    0.16    2.73
   7   0  -2    0.40    3.03
   7   0  -1  577.25   28.77
  -7   0   1  532.32   26.92
   7   0   0   30.14    7.30
   7   0   0   24.35    5.91
  -7   0   0   25.63    5.65
   7   0   1 1571.48   49.71
   7   0   1 1501.50   55.04
   7   0   2    4.57    4.41
  -7   0  -2   -0.48    2.76
   7   0   3   73.37   11.51
  -7   0  -3   66.09   11.15
   7   0   4   88.71   12.97
  -7   0  -4  100.29   14.14
   7   0   5    9.65    5.38
  -7   0  -5    5.39    4.19
   7   0   5    6.50    4.15
   7   1  -6  874.18   42.82
   7   1  -6  830.30   45.33
  -7   1   6  945.53   43.88
   7   1  -5  414.91   27.65
   7   1  -5  411.49   29.61
  -7   1   5  412.07   27.37
   7   1  -4  100.42   13.33
  -7   1   4  104.51   13.00
   7   1  -4   91.25   13.37
   7   1  -3  116.49   13.67
   7   1  -3  130.87   15.46
  -7   1   3  116.05   13.14
   7   1  -2  248.96   19.41
  -7   1   2  270.30   19.46
   7   1  -1  821.20   35.94
  -7   1   1  836.22   35.11
   7   1   0  276.92   19.15
   7   1   0  309.53   22.44
  -7   1   0  276.79   18.36
   7   1   1  464.79   24.12
   7   1   1  493.85   28.65
   7   1   2   66.98   10.63
   7   1   3   42.79    9.13
  -7   1  -3   27.49    7.44
  -7   1  -4  334.56   25.46
   7   1   4  375.99   26.72
   7   1   5  142.73   16.84
  -7   1  -5  145.32   17.30
   7   2  -6  196.38   19.70
   7   2  -6  235.25   23.68
  -7   2   6  234.47   21.33
   7   2  -5  140.08   16.19
  -7   2   5  154.74   16.65
   7   2  -5  117.37   15.99
   7   2  -4  200.02   18.51
   7   2  -4  206.38   20.24
  -7   2   4  199.84   18.45
   7   2  -3  754.15   36.43
   7   2  -3  728.63   38.49
  -7   2   3  791.54   36.78
   7   2  -2  488.89   27.73
  -7   2   2  475.64   26.93
   7   2  -1  110.52   12.48
  -7   2   1  108.05   12.30
   7   2   0  999.63   39.16
   7   2   0  960.83   41.75
  -7   2   0  953.82   38.05
   7   2   1  204.26   15.75
   7   2   1  192.29   17.66
  -7   2  -1  182.18   14.67
   7   2   2  147.03   15.82
  -7   2  -3  595.64   33.37
   7   2   3  629.03   34.10
   7   2   4   44.96    9.37
  -7   2  -4   29.01    7.77
  -7   2  -5   59.31   11.11
   7   2   5   47.51   10.12
   7   3  -5  384.48   27.47
   7   3  -5  339.88   28.04
  -7   3   5  393.45   27.41
   7   3  -4   19.69    6.86
  -7   3   4    2.77    4.08
   7   3  -4   19.81    7.00
  -7   3   3  288.21   21.87
   7   3  -3  298.75   22.48
   7   3  -2   49.54    8.94
  -7   3   2   73.61   10.74
  -7   3   1  130.05   13.84
   7   3  -1   97.23   12.17
   7   3  -1  125.20   14.20
  -7   3   0  296.97   20.26
   7   3   0  275.00   19.67
   7   3   0  272.10   20.86
  -7   3  -1   94.35   11.10
   7   3   1   94.33   11.03
   7   3   1  110.49   13.49
   7   3   2  136.71   15.11
   7   3   3  216.13   19.50
   7   3   4   63.78   10.89
  -7   3  -4   54.16   10.24
   7   4  -5   86.81   13.60
  -7   4   5   93.60   13.56
   7   4  -5   90.28   14.51
   7   4  -4   92.99   13.38
  -7   4   4   79.21   12.28
  -7   4   3  308.33   23.41
   7   4  -3  320.11   24.10
   7   4  -2  116.65   13.94
  -7   4   2  100.15   13.07
  -7   4   1  241.66   19.67
   7   4  -1  250.77   19.85
   7   4  -1  238.91   19.62
  -7   4   0  310.48   21.79
   7   4   0  331.60   22.40
   7   4   0  317.77   22.61
  -7   4  -1   63.45    9.52
   7   4   1   65.69   10.46
   7   4   2    1.53    2.90
   7   4   3  390.52   26.53
   7   4   4   77.74   12.38
  -7   5   4  156.12   17.58
   7   5  -4  147.93   17.16
   7   5  -3   27.93    7.75
  -7   5   3   35.91    8.47
   7   5  -2   72.86   11.83
  -7   5   2   70.64   11.48
  -7   5   1  233.57   20.19
   7   5  -1  212.59   19.08
   7   5  -1  223.44   18.77
   7   5   0   98.40   12.59
   7   5   0  124.58   13.95
  -7   5   0  103.94   13.24
  -7   5  -1  364.38   24.25
   7   5   1  334.96   23.66
   7   5   2    1.60    3.27
   7   5   3   34.43    8.04
  -7   6   3  137.11   16.89
   7   6  -3  105.12   14.72
  -7   6   2  138.15   16.46
   7   6  -2  113.08   14.89
   7   6  -1  255.56   21.64
  -7   6   1  248.51   21.76
   7   6   0   27.63    7.26
  -7   6   0   39.06    8.74
  -7   6  -1   35.18    8.28
   8  -4  -3  137.59   16.39
  -8  -4   3  172.68   17.99
   8  -4  -2  168.48   17.81
  -8  -4   2  155.92   16.58
   8  -4  -1  378.04   26.21
  -8  -4   1  354.82   24.38
   8  -4   0   88.69   13.14
   8  -4   0   70.86   11.02
   8  -4   1   47.15    9.75
   8  -4   1   69.73   10.73
   8  -3  -3  532.04   32.45
  -8  -3   3  509.73   30.84
   8  -3  -2  364.18   25.94
  -8  -3   2  357.65   24.43
   8  -3  -1  309.58   23.19
  -8  -3   1  273.47   20.60
   8  -3   0   11.22    6.18
   8  -3   0   -2.27    3.05
   8  -3   1  819.56   37.35
   8  -3   1  806.84   41.40
   8  -3   2   82.67   13.16
  -8  -3  -2   91.33   13.93
   8  -2  -4   13.25    5.52
  -8  -2   4   15.23    5.70
   8  -2  -4   18.23    6.80
   8  -2  -3    5.66    3.90
  -8  -2   3    0.13    3.29
   8  -2  -2  134.51   15.32
  -8  -2   2  110.39   13.25
   8  -2  -1  237.66   19.91
  -8  -2   1  258.62   19.49
   8  -2   0  335.62   23.05
   8  -2   0  304.67   24.37
   8  -2   1   66.81   11.44
   8  -2   1   62.22    9.71
   8  -2   2  104.94   14.66
  -8  -2  -2  135.37   16.77
  -8  -2  -3   16.71    6.53
   8  -2   3   -1.05    3.27
   8  -1  -4  101.51   13.99
  -8  -1   4  106.40   13.90
   8  -1  -4   84.03   13.38
   8  -1  -3  308.88   23.87
   8  -1  -3  304.69   24.18
  -8  -1   3  293.92   22.41
   8  -1  -2   13.69    5.74
  -8  -1   2   24.86    6.71
   8  -1  -2   13.24    5.28
   8  -1  -1   63.45   10.25
  -8  -1   1   51.70    8.67
   8  -1   0  401.62   25.15
   8  -1   0  399.09   28.00
  -8  -1   0  410.43   23.68
   8  -1   1  152.05   17.17
   8  -1   2  116.59   15.21
   8  -1   3   28.95    8.16
  -8  -1  -3   57.22   11.08
   8   0  -4  160.04   17.81
  -8   0   4  151.91   16.62
   8   0  -4  128.84   16.78
   8   0  -3    8.51    4.94
  -8   0   3   12.64    5.18
   8   0  -3   14.79    5.82
   8   0  -2  147.47   15.78
  -8   0   2  131.95   14.40
   8   0  -1  206.61   18.15
  -8   0   1  184.42   16.36
   8   0   0  664.01   32.80
   8   0   0  602.99   35.01
  -8   0   0  657.71   30.92
   8   0   1  252.10   22.10
   8   0   2   79.25   12.64
   8   0   3   -0.54    3.25
  -8   0  -3    6.69    4.73
   8   1  -4  118.65   15.18
  -8   1   4  108.66   14.20
   8   1  -4  116.94   16.12
   8   1  -3  237.22   21.08
  -8   1   3  320.87   23.55
   8   1  -2   19.47    6.46
  -8   1   2   16.35    5.52
   8   1  -1   41.01    8.39
  -8   1   1   55.80    9.34
   8   1   0  442.11   26.23
   8   1   0  418.20   28.48
  -8   1   0  398.79   24.04
   8   1   1  147.13   16.84
   8   1   2  132.59   16.19
   8   1   3   47.53   10.25
  -8   1  -3   75.94   12.61
   8   2  -4   14.64    5.76
  -8   2   4   27.40    7.63
   8   2  -4   24.46    8.07
   8   2  -3    2.28    3.54
  -8   2   3   -0.51    3.69
   8   2  -2  124.32   14.84
  -8   2   2  150.87   15.82
   8   2  -1  282.60   21.73
   8   2  -1  288.64   23.55
  -8   2   1  269.73   20.68
   8   2   0  297.68   21.58
   8   2   0  353.45   25.86
  -8   2   0  292.49   20.89
   8   2   1   72.30   11.99
   8   2   2  125.37   16.01
   8   2   3    8.24    5.34
   8   3  -3  516.09   32.13
  -8   3   3  489.47   30.87
   8   3  -2  392.79   27.19
  -8   3   2  390.29   26.62
   8   3  -1  293.11   22.53
   8   3  -1  267.74   22.85
  -8   3   1  253.92   20.66
   8   3   0   -3.74    4.09
   8   3   0   -0.07    2.13
  -8   3   0    0.87    2.80
   8   3   1  826.94   41.58
   8   3   2   98.29   14.33
  -8   4   3  137.11   16.69
   8   4  -3  172.13   18.70
  -8   4   2  160.51   17.52
   8   4  -2  172.94   18.17
   8   4  -2  195.26   19.36
  -8   4   1  351.20   25.29
   8   4  -1  370.10   26.02
   8   4  -1  346.02   25.96
   8   4   0   80.50   12.40
   8   4   0   82.18   11.79
  -8   4   0   66.66   10.69
   8   4   1   85.34   13.01
   0   0   0    0.00    0.00


TITL UARG in P2(1)
REM P2(1) (#4 in standard setting)
CELL 0.71073   7.548141   8.941929   7.988062  90.0000  94.0659  90.0000
ZERR   10.00   0.000217   0.000257   0.000245   0.0000   0.0025   0.0000
LATT -1
SYMM -x, y+1/2,-z
SFAC C H N O
UNIT 10.00 10.00 10.00 10.00
TREF
HKLF 4
END
_computing_structure_solution     'SHELXT 2014/4 (Sheldrick, 2014)'
_computing_structure_solution     'SHELXT 2014/5 (Sheldrick, 2014)'
;
_shelx_hkl_checksum              45764
_olex2_date_sample_data_collection 2018-04-12
_olex2_submission_special_instructions 'No special instructions were received'
_oxdiff_exptl_absorpt_empirical_details
;
Empirical correction (ABSPACK) includes:
- Absorption correction using spherical harmonics
- Frame scaling
;
_oxdiff_exptl_absorpt_empirical_full_max 1.204
_oxdiff_exptl_absorpt_empirical_full_min 0.830
loop_
_space_group_symop_operation_xyz
'x, y, z'
'-x, y+1/2, -z'
loop_
_atom_site_label
_atom_site_type_symbol
_atom_site_fract_x
_atom_site_fract_y
_atom_site_fract_z
_atom_site_U_iso_or_equiv
_atom_site_adp_type
_atom_site_occupancy
_atom_site_site_symmetry_order
_atom_site_calc_flag
_atom_site_refinement_flags_posn
O1 O 0.2077(2) 0.06492(18) 1.17128(19) 0.0160(4) Uani 1 1 d .
O2 O -0.12249(19) 0.01808(18) 0.88637(18) 0.0144(4) Uani 1 1 d .
O3 O 0.01840(19) 0.05433(18) 0.65341(18) 0.0144(4) Uani 1 1 d .
N1 N 0.0898(3) -0.1246(2) 1.3134(2) 0.0157(4) Uani 1 1 d .
H1A H 0.094319 -0.072657 1.404265 0.019 Uiso 1 1 calc R
H1B H 0.048502 -0.214202 1.312866 0.019 Uiso 1 1 calc R
N2 N 0.1408(2) -0.1544(2) 1.0361(2) 0.0126(4) Uani 1 1 d .
H2 H 0.122652 -0.248387 1.050104 0.015 Uiso 1 1 calc R
N3 N 0.3525(2) -0.4251(2) 0.4980(2) 0.0121(4) Uani 1 1 d .
H3 H 0.250375 -0.433607 0.443962 0.015 Uiso 1 1 calc R
N4 N 0.6486(2) -0.3567(2) 0.4884(3) 0.0150(4) Uani 1 1 d .
H4A H 0.666(3) -0.378(3) 0.598(3) 0.018 Uiso 1 1 d .
H4B H 0.742(3) -0.360(3) 0.425(3) 0.018 Uiso 1 1 d .
N5 N 0.4618(2) -0.3596(2) 0.2484(2) 0.0154(4) Uani 1 1 d .
H5A H 0.358748 -0.374999 0.198287 0.018 Uiso 1 1 calc R
H5B H 0.548396 -0.330710 0.191956 0.018 Uiso 1 1 calc R
C1 C 0.1474(3) -0.0654(3) 1.1719(3) 0.0127(5) Uani 1 1 d .
C2 C 0.1627(3) -0.1008(2) 0.8667(3) 0.0117(5) Uani 1 1 d .
H2A H 0.271601 -0.040934 0.868912 0.014 Uiso 1 1 calc R
C3 C 0.0064(3) -0.0021(3) 0.7980(3) 0.0115(5) Uani 1 1 d .
C4 C 0.1846(3) -0.2353(3) 0.7509(3) 0.0132(5) Uani 1 1 d .
H4C H 0.084234 -0.301870 0.759626 0.016 Uiso 1 1 calc R
H4D H 0.181774 -0.200005 0.635939 0.016 Uiso 1 1 calc R
C5 C 0.3545(3) -0.3233(3) 0.7891(3) 0.0133(5) Uani 1 1 d .
H5C H 0.361207 -0.354853 0.905530 0.016 Uiso 1 1 calc R
H5D H 0.455663 -0.259195 0.773423 0.016 Uiso 1 1 calc R
C6 C 0.3643(3) -0.4608(3) 0.6766(3) 0.0125(5) Uani 1 1 d .
H6A H 0.475315 -0.512585 0.704847 0.015 Uiso 1 1 calc R
H6B H 0.268245 -0.528352 0.699139 0.015 Uiso 1 1 calc R
C7 C 0.4870(3) -0.3806(2) 0.4128(3) 0.0118(5) Uani 1 1 d .
O4 O 0.2678(2) -0.72813(19) 0.9342(2) 0.0192(4) Uani 1 1 d .
H4E H 0.250955 -0.793120 1.009123 0.029 Uiso 1 1 d G
H4F H 0.233366 -0.646393 0.975381 0.029 Uiso 1 1 d G
loop_
_atom_site_aniso_label
_atom_site_aniso_U_11
_atom_site_aniso_U_22
_atom_site_aniso_U_33
_atom_site_aniso_U_23
_atom_site_aniso_U_13
_atom_site_aniso_U_12
O1 0.0198(8) 0.0147(8) 0.0133(8) 0.0001(7) 0.0005(6) -0.0048(7)
O2 0.0141(8) 0.0145(9) 0.0148(8) 0.0004(7) 0.0026(6) 0.0027(7)
O3 0.0161(8) 0.0142(8) 0.0130(8) 0.0028(7) 0.0013(6) 0.0008(7)
N1 0.0235(10) 0.0130(10) 0.0106(10) -0.0008(8) 0.0021(7) -0.0043(9)
N2 0.0167(10) 0.0101(9) 0.0109(10) 0.0012(8) 0.0012(7) 0.0009(8)
N3 0.0106(9) 0.0158(11) 0.0099(9) -0.0014(8) -0.0006(7) -0.0001(8)
N4 0.0123(10) 0.0230(11) 0.0099(10) 0.0026(9) 0.0012(7) -0.0012(9)
N5 0.0117(9) 0.0246(11) 0.0100(9) 0.0018(9) 0.0016(7) -0.0016(9)
C1 0.0099(11) 0.0149(12) 0.0128(12) 0.0022(9) -0.0022(8) 0.0032(9)
C2 0.0124(11) 0.0118(11) 0.0109(11) -0.0004(9) 0.0009(8) -0.0015(9)
C3 0.0111(11) 0.0098(11) 0.0134(11) -0.0018(9) -0.0007(8) -0.0029(9)
C4 0.0158(11) 0.0144(12) 0.0093(11) -0.0010(10) 0.0011(8) 0.0003(10)
C5 0.0144(11) 0.0160(12) 0.0094(11) -0.0006(9) 0.0006(8) 0.0019(9)
C6 0.0127(10) 0.0134(12) 0.0115(11) 0.0027(10) 0.0022(8) 0.0006(10)
C7 0.0139(11) 0.0085(10) 0.0132(11) -0.0011(9) 0.0018(8) 0.0026(9)
O4 0.0243(10) 0.0171(9) 0.0169(9) 0.0032(7) 0.0076(7) 0.0043(8)
loop_
_atom_type_symbol
_atom_type_description
_atom_type_scat_dispersion_real
_atom_type_scat_dispersion_imag
_atom_type_scat_source
C C 0.0033 0.0016 'International Tables Vol C Tables 4.2.6.8 and 6.1.1.4'
H H 0.0000 0.0000 'International Tables Vol C Tables 4.2.6.8 and 6.1.1.4'
N N 0.0061 0.0033 'International Tables Vol C Tables 4.2.6.8 and 6.1.1.4'
O O 0.0106 0.0060 'International Tables Vol C Tables 4.2.6.8 and 6.1.1.4'
loop_
_geom_angle_atom_site_label_1
_geom_angle_atom_site_label_2
_geom_angle_atom_site_label_3
_geom_angle
C1 N2 C2 123.7(2)
C7 N3 C6 125.01(18)
O1 C1 N1 120.5(2)
O1 C1 N2 122.8(2)
N2 C1 N1 116.6(2)
N2 C2 C3 112.62(17)
N2 C2 C4 109.07(18)
C4 C2 C3 110.26(17)
O2 C3 O3 124.2(2)
O2 C3 C2 119.08(19)
O3 C3 C2 116.68(18)
C5 C4 C2 114.31(19)
C4 C5 C6 112.02(17)
N3 C6 C5 113.38(18)
N3 C7 N4 121.5(2)
N3 C7 N5 119.35(19)
N5 C7 N4 119.1(2)
loop_
_geom_bond_atom_site_label_1
_geom_bond_atom_site_label_2
_geom_bond_distance
O1 C1 1.251(3)
O2 C3 1.255(3)
O3 C3 1.269(3)
N1 C1 1.348(3)
N2 C1 1.343(3)
N2 C2 1.456(3)
N3 C6 1.458(3)
N3 C7 1.323(3)
N4 C7 1.339(3)
N5 C7 1.326(3)
C2 C3 1.543(3)
C2 C4 1.533(3)
C4 C5 1.517(3)
C5 C6 1.528(3)
