#------------------------------------------------------------------------------
#$Date: 2018-02-04 00:29:57 +0200 (Sun, 04 Feb 2018) $
#$Revision: 206131 $
#$URL: file:///home/coder/svn-repositories/cod/cif/4/51/43/4514327.cif $
#------------------------------------------------------------------------------
#
# This file is available in the Crystallography Open Database (COD),
# http://www.crystallography.net/
#
# All data on this site have been placed in the public domain by the
# contributors.
#
data_4514327
loop_
_publ_author_name
'Mixdorf, Jason C.'
'Sorlin, Alexandre M.'
'Zhang, Qi'
'Nguyen, Hien M.'
_publ_section_title
;
 Asymmetric Synthesis of Allylic Fluorides via Fluorination of Racemic
 Allylic Trichloroacetimidates Catalyzed by a Chiral Diene-Iridium Complex
;
_journal_issue                   2
_journal_name_full               'ACS Catalysis'
_journal_page_first              790
_journal_paper_doi               10.1021/acscatal.7b03786
_journal_volume                  8
_journal_year                    2017
_chemical_absolute_configuration ad
_chemical_formula_sum            'C14 H18 F N O2 S'
_chemical_formula_weight         283.35
_space_group_crystal_system      monoclinic
_space_group_IT_number           4
_space_group_name_Hall           'P 2yb'
_space_group_name_H-M_alt        'P 1 21 1'
_symmetry_space_group_name_Hall  'P 2yb'
_symmetry_space_group_name_H-M   'P 1 21 1'
_atom_sites_solution_hydrogens   geom
_audit_creation_method           SHELXL-2014/7
_cell_angle_alpha                90
_cell_angle_beta                 101.713(5)
_cell_angle_gamma                90
_cell_formula_units_Z            2
_cell_length_a                   6.1963(6)
_cell_length_b                   13.8442(13)
_cell_length_c                   8.5199(9)
_cell_measurement_reflns_used    9612
_cell_measurement_temperature    190(2)
_cell_measurement_theta_max      27.12
_cell_measurement_theta_min      2.44
_cell_volume                     715.64(12)
_computing_cell_refinement       'APEXII (Bruker-AXS, 2015)'
_computing_data_collection       'APEXII (Bruker-AXS, 2015)'
_computing_data_reduction        'APEXII (Bruker-AXS, 2015)'
_computing_structure_refinement  'SHELXL-2014/7 (Sheldrick, 2014)'
_computing_structure_solution    'Shelxt, APEXII (Bruker-AXS, 2015)'
_diffrn_ambient_temperature      190(2)
_diffrn_measured_fraction_theta_full 1.000
_diffrn_measured_fraction_theta_max 0.999
_diffrn_measurement_device_type  'Bruker Nonius KappaCCD-ApexII'
_diffrn_measurement_method       'CCD phi and omega scans'
_diffrn_radiation_type           MoK\a
_diffrn_radiation_wavelength     0.71073
_diffrn_reflns_av_R_equivalents  0.0266
_diffrn_reflns_av_unetI/netI     0.0233
_diffrn_reflns_Laue_measured_fraction_full 1.000
_diffrn_reflns_Laue_measured_fraction_max 0.999
_diffrn_reflns_limit_h_max       7
_diffrn_reflns_limit_h_min       -7
_diffrn_reflns_limit_k_max       17
_diffrn_reflns_limit_k_min       -17
_diffrn_reflns_limit_l_max       10
_diffrn_reflns_limit_l_min       -10
_diffrn_reflns_number            15154
_diffrn_reflns_point_group_measured_fraction_full 1.000
_diffrn_reflns_point_group_measured_fraction_max 0.996
_diffrn_reflns_theta_full        25.242
_diffrn_reflns_theta_max         27.171
_diffrn_reflns_theta_min         2.441
_exptl_absorpt_coefficient_mu    0.235
_exptl_absorpt_correction_type   multi-scan
_exptl_absorpt_process_details   'SADABS, APEXII (Bruker-AXS, 2015)'
_exptl_crystal_colour            colorless
_exptl_crystal_density_diffrn    1.315
_exptl_crystal_description       prism
_exptl_crystal_F_000             300
_exptl_crystal_size_max          0.400
_exptl_crystal_size_mid          0.360
_exptl_crystal_size_min          0.170
_exptl_transmission_factor_max   0.7455
_exptl_transmission_factor_min   0.7178
_refine_diff_density_max         0.234
_refine_diff_density_min         -0.235
_refine_diff_density_rms         0.033
_refine_ls_abs_structure_details
;
 Flack x determined using 1342 quotients [(I+)-(I-)]/[(I+)+(I-)]
 (Parsons, Flack and Wagner, Acta Cryst. B69 (2013) 249-259).
;
_refine_ls_abs_structure_Flack   0.02(2)
_refine_ls_extinction_method     none
_refine_ls_goodness_of_fit_ref   1.028
_refine_ls_hydrogen_treatment    constr
_refine_ls_matrix_type           full
_refine_ls_number_parameters     189
_refine_ls_number_reflns         3154
_refine_ls_number_restraints     5
_refine_ls_restrained_S_all      1.027
_refine_ls_R_factor_all          0.0312
_refine_ls_R_factor_gt           0.0279
_refine_ls_shift/su_max          0.000
_refine_ls_shift/su_mean         0.000
_refine_ls_structure_factor_coef Fsqd
_refine_ls_weighting_details
'w=1/[\s^2^(Fo^2^)+(0.0355P)^2^+0.1189P] where P=(Fo^2^+2Fc^2^)/3'
_refine_ls_weighting_scheme      calc
_refine_ls_wR_factor_gt          0.0673
_refine_ls_wR_factor_ref         0.0691
_reflns_Friedel_coverage         0.914
_reflns_Friedel_fraction_full    1.000
_reflns_Friedel_fraction_max     0.992
_reflns_number_gt                2970
_reflns_number_total             3154
_reflns_threshold_expression     'I > 2\s(I)'
_cod_data_source_file            cs7b03786_si_003.cif
_cod_data_source_block           ngu173
_cod_depositor_comments
'Adding full bibliography for 4514324--4514328.cif.'
_cod_database_code               4514327
_shelx_shelxl_version_number     2014/7
_shelx_space_group_comment
;
The symmetry employed for this shelxl refinement is uniquely defined
by the following loop, which should always be used as a source of
symmetry information in preference to the above space-group names.
They are only intended as comments.
;
_shelx_estimated_absorpt_t_min   0.912
_shelx_estimated_absorpt_t_max   0.961
_shelx_res_file
;

    ngu173.res created by SHELXL-2014/7


TITL Ngu17_3 in P2(1)
CELL  0.71073   6.1963  13.8442   8.5199   90.000  101.713   90.000
ZERR    2.000   0.0006   0.0013   0.0009    0.000    0.005    0.000
LATT -1
SYMM -X, 1/2+Y, -Z
SFAC C H N O F S
UNIT 28 36 2 4 2 2
TEMP -83
SIZE 0.17 0.36 0.40
L.S. 10
BOND $H
htab
conf
acta
LIST 6
FMAP 2
PLAN -30
eadp  c2 c2'
eadp  c4 c4'
sadi  0.01 n1 c2 n1 c2'
sadi  0.01 c2 c3 c2' c3'
sadi  0.01 c3 c4 c3' c4'
sadi  0.01 c5 c4 c5 c4'
WGHT    0.035500    0.118900
FVAR       0.41969   0.71136
S1    6    0.436163    0.575104    0.720674    11.00000    0.02420    0.02544 =
         0.03062    0.00260    0.01138    0.00394
O1    4    0.527223    0.669678    0.756296    11.00000    0.04132    0.02437 =
         0.03878    0.00029    0.01618    0.00386
O2    4    0.208757    0.557501    0.721539    11.00000    0.02567    0.04567 =
         0.04421    0.00805    0.01475    0.00802
N1    3    0.471039    0.549066    0.541601    11.00000    0.02367    0.03081 =
         0.02759    0.00079    0.00689   -0.00093
PART   1
C2    1    0.382017    0.456118    0.468756    21.00000    0.03442    0.04718 =
         0.03787   -0.01089    0.00822   -0.01309
AFIX  23
H2A   2    0.278132    0.466750    0.365493    21.00000   -1.20000
H2B   2    0.306141    0.419731    0.541734    21.00000   -1.20000
AFIX   0
C3    1    0.588754    0.403388    0.444180    21.00000    0.04919    0.03342 =
         0.05708   -0.01291    0.01862   -0.00730
AFIX  23
H3A   2    0.666249    0.372275    0.544507    21.00000   -1.20000
H3B   2    0.553115    0.353893    0.358983    21.00000   -1.20000
AFIX   0
C4    1    0.725424    0.484985    0.394452    21.00000    0.04317    0.03616 =
         0.05109   -0.00715    0.02237    0.00129
AFIX  23
H4A   2    0.674002    0.501110    0.279740    21.00000   -1.20000
H4B   2    0.883231    0.467034    0.413052    21.00000   -1.20000
AFIX   0
PART   2
C2'   1    0.394091    0.452319    0.477840   -21.00000    0.03442    0.04718 =
         0.03787   -0.01089    0.00822   -0.01309
AFIX  23
H2A'  2    0.233265    0.452440    0.434469   -21.00000   -1.20000
H2B'  2    0.428728    0.402292    0.562237   -21.00000   -1.20000
AFIX   0
C3'   1    0.521704    0.434895    0.345465   -21.00000    0.04076    0.05248 =
         0.06255   -0.02669    0.00956   -0.00702
AFIX  23
H3A'  2    0.534231    0.365041    0.324111   -21.00000   -1.20000
H3B'  2    0.451107    0.467837    0.244990   -21.00000   -1.20000
AFIX   0
C4'   1    0.745631    0.478772    0.415468   -21.00000    0.04317    0.03616 =
         0.05109   -0.00715    0.02237    0.00129
AFIX  23
H4A'  2    0.826088    0.495188    0.329839   -21.00000   -1.20000
H4B'  2    0.836457    0.433812    0.491976   -21.00000   -1.20000
AFIX   0
PART   0
C5    1    0.689510    0.569756    0.500825    11.00000    0.02315    0.03009 =
         0.02839    0.00245    0.00932    0.00345
AFIX  13
H5    2    0.806546    0.569717    0.600748    11.00000   -1.20000
AFIX   0
C6    1    0.688045    0.666177    0.416684    11.00000    0.04049    0.03817 =
         0.04059    0.01056    0.01647    0.00636
AFIX  13
H6    2    0.647444    0.717723    0.487663    11.00000   -1.20000
AFIX   0
F6    5    0.529582    0.663601    0.275697    11.00000    0.04411    0.10182 =
         0.06471    0.04923    0.00624    0.00602
C7    1    0.907359    0.689941    0.380075    11.00000    0.04458    0.04107 =
         0.04745    0.00723    0.01722   -0.00569
AFIX  43
H7    2    1.028879    0.693409    0.468105    11.00000   -1.20000
AFIX   0
C8    1    0.946826    0.706290    0.238658    11.00000    0.05338    0.07015 =
         0.05874    0.01924    0.02632    0.00088
AFIX  93
H8A   2    0.830219    0.703592    0.147157    11.00000   -1.20000
H8B   2    1.092341    0.720964    0.226582    11.00000   -1.20000
AFIX   0
C9    1    0.594264    0.493358    0.855383    11.00000    0.02666    0.02448 =
         0.02317   -0.00068    0.00954    0.00053
C10   1    0.500614    0.407256    0.892684    11.00000    0.02706    0.03126 =
         0.03475    0.00178    0.00824   -0.00629
AFIX  43
H10   2    0.350112    0.393498    0.849336    11.00000   -1.20000
AFIX   0
C11   1    0.628628    0.341991    0.993352    11.00000    0.04041    0.02379 =
         0.03580    0.00287    0.01069   -0.00497
AFIX  43
H11   2    0.564846    0.283260    1.019468    11.00000   -1.20000
AFIX   0
C12   1    0.850102    0.360867    1.057354    11.00000    0.03445    0.02828 =
         0.02503   -0.00105    0.00988    0.00556
C13   1    0.939253    0.446971    1.017784    11.00000    0.02300    0.03851 =
         0.02960    0.00063    0.00677   -0.00050
AFIX  43
H13   2    1.090039    0.460641    1.060280    11.00000   -1.20000
AFIX   0
C14   1    0.814134    0.513281    0.918132    11.00000    0.03015    0.02922 =
         0.02903   -0.00014    0.01026   -0.00609
AFIX  43
H14   2    0.877935    0.572145    0.892626    11.00000   -1.20000
AFIX   0
C15   1    0.986739    0.290182    1.170712    11.00000    0.05159    0.03602 =
         0.04157    0.00544    0.00580    0.01051
part  1
AFIX 137
H15A  2    0.928649    0.224775    1.147177    21.00000   -1.50000
H15B  2    0.980340    0.307147    1.281347    21.00000   -1.50000
H15C  2    1.140002    0.292701    1.157262    21.00000   -1.50000
AFIX 137
part  2
H15D  2    0.889121    0.246978    1.215201   -21.00000   -1.50000
H15E  2    1.081469    0.325577    1.257992   -21.00000   -1.50000
H15F  2    1.078401    0.252068    1.112593   -21.00000   -1.50000
part  0
AFIX   0
HKLF 4

REM  Ngu17_3 in P2(1)
REM R1 =  0.0279 for    2970 Fo > 4sig(Fo)  and  0.0312 for all    3154 data
REM    189 parameters refined using      5 restraints

END

WGHT      0.0356      0.1208

REM Instructions for potential hydrogen bonds
EQIV $1 x+1, y, z
HTAB C5 O2_$1
HTAB C6 O1

REM Highest difference peak  0.234,  deepest hole -0.235,  1-sigma level  0.033
Q1    1   0.5191  0.5315  0.8018  11.00000  0.05    0.23
Q2    1   0.8621  0.4976  1.0118  11.00000  0.05    0.16
Q3    1   0.5593  0.4482  0.8548  11.00000  0.05    0.15
Q4    1   0.7242  0.5260  0.4572  11.00000  0.05    0.14
Q5    1   0.5881  0.5671  0.5197  11.00000  0.05    0.13
Q6    1   0.7427  0.3535  1.0025  11.00000  0.05    0.13
Q7    1   0.6964  0.4931  0.8244  11.00000  0.05    0.13
Q8    1   0.6680  0.5112  0.9133  11.00000  0.05    0.13
Q9    1   0.2959  0.5805  0.7955  11.00000  0.05    0.12
Q10   1   0.5027  0.6206  0.7877  11.00000  0.05    0.12
Q11   1   0.8038  0.6787  0.4023  11.00000  0.05    0.12
Q12   1   0.4222  0.5179  0.5052  11.00000  0.05    0.12
Q13   1   0.6879  0.6182  0.4596  11.00000  0.05    0.12
Q14   1   0.8528  0.4187  1.0417  11.00000  0.05    0.12
Q15   1   0.9700  0.7398  0.3307  11.00000  0.05    0.11
Q16   1   0.5916  0.6166  0.2582  11.00000  0.05    0.11
Q17   1   0.2190  0.5819  0.8416  11.00000  0.05    0.11
Q18   1   0.8880  0.3947  1.0067  11.00000  0.05    0.11
Q19   1   0.5717  0.3647  0.9079  11.00000  0.05    0.11
Q20   1   0.5747  0.3760  0.9441  11.00000  0.05    0.11
Q21   1   0.4038  0.6314  0.2321  11.00000  0.05    0.11
Q22   1   0.4753  0.5357  0.6205  11.00000  0.05    0.11
Q23   1   0.8589  0.6420  0.8843  11.00000  0.05    0.11
Q24   1   0.9002  0.3332  1.1046  11.00000  0.05    0.11
Q25   1   0.5685  0.6917  0.3608  11.00000  0.05    0.10
Q26   1   0.3925  0.5975  0.4828  11.00000  0.05    0.10
Q27   1   0.9580  0.6441  0.3101  11.00000  0.05    0.10
Q28   1   0.5529  0.6902  0.8593  11.00000  0.05    0.10
Q29   1   0.4403  0.5647  0.5943  11.00000  0.05    0.10
Q30   1   0.6708  0.4414  0.4255  11.00000  0.05    0.10
;
_shelx_res_checksum              28081
_shelx_hkl_file
;
  -1   0   0  752.70   13.86
  -1   0   0  736.75   13.66
   1   0   0  736.68   13.79
  -1   0   0  754.26   13.93
   2   0   0  443.79    8.12
   2   0   0  459.38    8.39
  -2   0   0  442.31    8.14
  -2   0   0  436.49    8.56
  -2   0   0  438.87    8.55
   2   0   0  454.73    8.32
   3   0   0   94.48    2.32
   3   0   0   95.81    2.09
   3   0   0   96.73    2.22
   3   0   0   96.46    2.39
  -3   0   0   96.06    2.08
  -3   0   0   92.43    2.06
  -3   0   0   94.20    1.96
   3   0   0   94.05    2.06
   4   0   0   14.33    0.62
   4   0   0   13.96    0.87
   4   0   0   14.57    0.64
  -4   0   0   14.30    0.54
   4   0   0   13.89    0.79
  -4   0   0   14.21    0.62
  -4   0   0   14.11    0.62
   5   0   0    0.21    0.31
   5   0   0    0.19    0.38
  -5   0   0    0.05    0.16
  -5   0   0    0.47    0.17
   5   0   0    0.06    0.15
  -5   0   0    0.24    0.17
  -6   0   0    0.71    0.41
   6   0   0    0.50    0.41
  -6   0   0    1.18    0.30
   6   0   0    1.00    0.49
  -7   0   0    1.03    0.53
   7   0   0    1.36    0.55
  -7   0   0    1.16    0.31
   7   0   0    1.02    0.57
   0  -1   0   -0.93    0.02
   0  -1   0   -0.95    0.02
   0  -1   0   -0.95    0.02
   0   1   0   -0.95    0.01
   0   1   0   -0.94    0.02
   0   1   0   -0.96    0.01
  -1  -1   0  158.51    3.09
  -1  -1   0  162.99    3.09
   1  -1   0  162.88    2.98
   1  -1   0  159.18    2.95
  -1   1   0  163.10    3.06
  -1   1   0  163.74    3.02
   1   1   0  162.41    3.09
  -1   1   0  165.00    3.03
   2  -1   0   21.75    0.54
  -2  -1   0   21.20    0.68
  -2  -1   0   21.37    0.48
   2  -1   0   22.22    0.74
  -2  -1   0   20.95    0.68
   2  -1   0   22.44    0.80
  -2   1   0   21.02    0.54
   2   1   0   22.90    0.81
   2   1   0   21.64    0.68
  -2   1   0   21.16    0.54
   2   1   0   21.84    0.75
  -2   1   0   21.74    0.64
  -3  -1   0    2.05    0.18
   3  -1   0    2.45    0.34
   3  -1   0    2.15    0.36
   3  -1   0    2.31    0.23
  -3  -1   0    1.94    0.28
  -3  -1   0    2.04    0.30
   3  -1   0    1.95    0.34
   3   1   0    2.05    0.28
   3   1   0    1.99    0.32
   3   1   0    2.48    0.32
  -3   1   0    2.59    0.25
  -3   1   0    2.35    0.23
  -3   1   0    2.53    0.27
   3   1   0    2.83    0.43
   4  -1   0   84.81    2.40
   4  -1   0   85.50    2.18
  -4  -1   0   83.84    1.72
   4  -1   0   82.24    2.29
   4  -1   0   85.35    1.88
  -4  -1   0   83.82    2.07
  -4  -1   0   83.04    2.07
  -4   1   0   83.15    1.87
   4   1   0   81.93    2.38
   4   1   0   82.32    2.30
  -4   1   0   84.45    1.88
   4   1   0   85.96    2.10
  -4   1   0   83.10    1.94
   5  -1   0   10.21    0.52
  -5  -1   0   10.75    0.41
   5  -1   0   11.49    0.86
   5  -1   0   11.84    0.96
  -5  -1   0   10.59    0.65
  -5  -1   0   11.18    0.66
   5   1   0   10.81    0.66
   5   1   0    9.63    0.86
  -5   1   0   11.00    0.54
   5   1   0   11.63    0.86
  -5   1   0   11.27    0.58
  -5   1   0   10.57    0.54
   6  -1   0    2.31    0.64
   6  -1   0    2.94    0.63
  -6  -1   0    1.96    0.52
  -6  -1   0    2.45    0.42
   6   1   0    1.97    0.57
  -6   1   0    2.08    0.32
  -6   1   0    2.53    0.62
   6   1   0    2.42    0.62
   7  -1   0   -0.13    0.47
   7  -1   0   -0.35    0.37
  -7  -1   0    0.41    0.29
  -7  -1   0    0.31    0.42
  -7   1   0    0.34    0.41
   7   1   0    0.39    0.47
   7   1   0   -0.05    0.45
   0  -2   0  638.67   11.92
   0  -2   0  632.39   12.09
   0  -2   0  634.02   11.93
   0   2   0  625.07   11.99
   0   2   0  640.96   12.01
   0   2   0  624.65   12.01
  -1  -2   0  432.77    8.18
   1  -2   0  435.92    7.88
  -1  -2   0  434.54    8.53
   1  -2   0  403.74    7.84
  -1  -2   0  441.66    8.41
  -1   2   0  430.04    7.86
  -1   2   0  437.28    8.10
   1   2   0  434.75    8.37
  -1   2   0  430.67    7.93
   1   2   0  440.25    7.99
  -1   2   0  448.94    8.38
   2  -2   0   78.75    1.50
   2  -2   0   81.85    1.93
   2  -2   0   78.36    1.83
   2  -2   0   79.82    1.81
   2  -2   0   78.49    1.50
  -2  -2   0   79.97    1.86
  -2  -2   0   77.14    1.84
   2   2   0   83.17    1.87
   2   2   0   81.11    1.87
  -2   2   0   80.40    1.50
   2   2   0   83.93    1.88
  -2   2   0   78.98    1.78
  -2   2   0   80.17    1.50
   3  -2   0   80.42    1.59
   3  -2   0   77.10    2.09
  -3  -2   0   79.39    1.97
   3  -2   0   81.74    1.95
   3  -2   0   80.18    2.02
   3  -2   0   78.26    1.59
  -3  -2   0   78.04    1.95
  -3   2   0   78.74    1.58
   3   2   0   76.68    2.09
   3   2   0   79.02    1.95
  -3   2   0   79.20    1.58
  -3   2   0   78.87    1.86
   3   2   0   79.43    2.04
   3   2   0   79.68    1.98
   4  -2   0   31.90    1.17
   4  -2   0   31.93    0.82
   4  -2   0   31.39    1.23
   4  -2   0   31.26    1.32
  -4  -2   0   30.81    1.12
  -4  -2   0   31.06    1.13
   4  -2   0   29.95    0.81
   4   2   0   31.81    1.34
   4   2   0   31.28    1.24
  -4   2   0   30.54    1.03
  -4   2   0   32.13    0.81
  -4   2   0   31.45    0.81
   4   2   0   29.83    1.12
   5  -2   0   14.99    0.97
  -5  -2   0   13.84    0.80
   5  -2   0   14.50    0.55
  -5  -2   0   16.77    0.86
   5  -2   0   15.82    0.80
   5  -2   0   17.11    1.12
   5  -2   0   14.47    0.90
  -5   2   0   15.18    0.55
   5   2   0   15.27    1.05
   5   2   0   15.00    0.98
  -5   2   0   12.89    0.69
   5   2   0   15.27    0.84
  -5   2   0   15.49    0.55
   6  -2   0    8.91    1.10
  -6  -2   0    9.56    1.08
  -6  -2   0    9.04    0.70
   6  -2   0    9.20    1.04
  -6   2   0    6.98    0.56
   6   2   0    7.07    0.96
  -6   2   0    9.17    1.05
   6   2   0    9.65    1.09
  -6   2   0    7.49    0.39
  -7  -2   0    3.31    0.55
   7  -2   0    3.15    0.73
  -7  -2   0    3.42    0.75
   7  -2   0    3.44    0.80
   7   2   0    3.75    0.76
   7   2   0    1.90    0.69
  -7   2   0    3.65    0.76
   0  -3   0   -0.23    0.08
   0  -3   0   -0.08    0.08
   0   3   0   -0.15    0.08
   0   3   0   -0.26    0.08
   0   3   0   -0.16    0.07
  -1  -3   0  153.84    3.19
  -1  -3   0  161.06    3.22
  -1  -3   0  152.68    3.12
   1  -3   0  157.84    2.95
   1  -3   0  160.73    3.00
   1   3   0  158.53    3.19
  -1   3   0  154.54    3.15
  -1   3   0  155.26    2.94
   1   3   0  157.10    3.22
  -1   3   0  158.86    3.00
   1   3   0  159.76    3.13
  -1   3   0  154.48    2.95
   2  -3   0   26.10    0.92
  -2  -3   0   27.29    0.91
   2  -3   0   28.59    0.88
  -2  -3   0   27.22    0.92
   2  -3   0   27.18    0.84
  -2  -3   0   27.92    0.93
   2   3   0   26.22    0.93
   2   3   0   25.98    0.85
   2   3   0   27.26    0.92
  -2   3   0   24.71    0.85
  -3  -3   0  169.34    3.69
  -3  -3   0  171.18    3.63
  -3  -3   0  159.12    3.60
   3  -3   0  165.66    3.58
   3  -3   0  161.80    3.70
   3  -3   0  167.91    3.55
   3   3   0  162.28    3.62
   3   3   0  160.88    3.60
   3   3   0  169.90    3.62
  -3   3   0  164.84    3.50
   4  -3   0   82.33    2.27
   4  -3   0   81.33    2.39
   4  -3   0   81.60    2.19
  -4  -3   0   88.24    2.27
  -4  -3   0   84.12    2.25
   4   3   0   80.71    2.40
   4   3   0   87.14    2.28
  -4   3   0   80.65    2.10
   4   3   0   83.86    2.32
   5  -3   0   56.44    1.94
  -5  -3   0   54.72    1.80
  -5  -3   0   54.45    1.98
  -5  -3   0   55.26    1.79
   5  -3   0   53.54    2.02
   5  -3   0   55.40    1.82
  -5   3   0   54.49    1.65
   5   3   0   54.73    1.95
   5   3   0   55.11    2.06
   5   3   0   52.66    1.78
  -6  -3   0    9.46    0.77
   6  -3   0    5.78    0.89
  -6  -3   0    8.59    1.06
   6  -3   0    8.31    0.89
   6  -3   0    7.89    0.95
  -6   3   0    7.74    0.62
  -6   3   0    8.00    0.98
   6   3   0    5.69    0.81
   6   3   0    9.22    1.13
  -7  -3   0    4.53    0.86
   7  -3   0    4.22    0.92
  -7  -3   0    4.14    0.65
   7  -3   0    4.31    0.85
  -7   3   0    4.72    0.89
   7   3   0    3.10    0.77
   7   3   0    4.90    0.97
   0  -4   0   12.08    0.52
   0  -4   0   12.66    0.46
   0  -4   0   13.21    0.56
   0   4   0   13.10    0.54
   0   4   0   12.11    0.50
   0   4   0   13.13    0.53
   0   4   0   14.12    0.47
  -1  -4   0  177.62    3.51
  -1  -4   0  180.67    3.77
  -1  -4   0  187.13    3.67
   1  -4   0  196.37    3.74
  -1  -4   0  183.00    3.77
   1  -4   0  183.43    3.53
   1  -4   0  176.54    3.51
   1  -4   0  191.25    3.74
   1  -4   0  184.60    3.52
   1   4   0  184.92    3.79
   1   4   0  180.43    3.51
   1   4   0  181.49    3.66
  -1   4   0  185.67    3.51
   1   4   0  185.49    3.77
  -1   4   0  178.90    3.71
  -1   4   0  183.73    3.53
  -1   4   0  182.91    3.51
  -2  -4   0   90.14    2.20
   2  -4   0   88.83    1.99
   2  -4   0   87.42    1.72
  -2  -4   0   87.80    2.19
  -2  -4   0   89.78    2.15
   2  -4   0   86.76    2.17
   2  -4   0   91.61    2.12
   2   4   0   89.32    2.19
   2   4   0   89.48    1.73
  -2   4   0   87.52    1.71
  -2   4   0   87.94    1.95
   2   4   0   91.61    2.23
  -2   4   0   87.90    2.12
   2   4   0   91.41    2.05
  -2   4   0   89.40    1.72
   3  -4   0   18.52    0.91
  -3  -4   0   18.81    0.88
  -3  -4   0   17.81    0.85
   3  -4   0   17.44    0.78
   3  -4   0   19.55    0.83
  -3   4   0   18.61    0.81
   3   4   0   18.39    0.82
   3   4   0   18.69    0.88
   4  -4   0    0.06    0.23
  -4  -4   0    0.12    0.20
   4  -4   0   -0.15    0.25
   4  -4   0   -0.08    0.21
  -4  -4   0   -0.02    0.20
  -4   4   0    0.01    0.17
   4   4   0    0.34    0.26
   4   4   0   -0.03    0.27
   4   4   0   -0.10    0.19
  -5  -4   0   43.99    1.76
  -5  -4   0   43.17    1.65
   5  -4   0   42.66    1.61
  -5  -4   0   43.60    1.63
   5  -4   0   44.38    1.69
   5  -4   0   44.21    1.83
   5   4   0   44.23    1.84
   5   4   0   43.60    1.72
   5   4   0   41.45    1.62
  -5   4   0   44.26    1.52
   6  -4   0    0.78    0.43
  -6  -4   0    1.47    0.44
  -6  -4   0    1.37    0.52
   6  -4   0    1.13    0.47
   6  -4   0    1.93    0.59
   6   4   0    1.34    0.51
  -6   4   0    1.55    0.50
  -6   4   0    1.72    0.42
   6   4   0    0.94    0.50
   7  -4   0   11.19    1.37
  -7  -4   0   11.03    1.30
  -7  -4   0   11.50    0.97
   7  -4   0   11.17    1.27
   7   4   0   11.56    1.36
  -7   4   0   10.55    1.23
   7   4   0   11.47    1.28
   0  -5   0   -0.29    0.14
   0  -5   0   -0.13    0.12
   0  -5   0   -0.07    0.14
   0   5   0   -0.21    0.14
   0   5   0   -0.22    0.13
   0   5   0   -0.20    0.10
   0   5   0   -0.40    0.12
   1  -5   0  132.69    2.75
  -1  -5   0  135.35    3.00
   1  -5   0  140.29    2.97
  -1  -5   0  137.43    2.88
   1  -5   0  136.90    2.72
  -1  -5   0  134.60    3.01
   1  -5   0  133.98    2.96
  -1  -5   0  134.19    2.67
  -1   5   0  133.12    2.75
   1   5   0  139.14    3.01
   1   5   0  134.37    3.02
  -1   5   0  137.20    2.72
  -1   5   0  133.44    2.95
   1   5   0  134.86    2.87
  -1   5   0  135.40    2.78
   1   5   0  134.31    2.76
  -2  -5   0   17.97    0.83
   2  -5   0   17.63    0.77
   2  -5   0   18.17    0.53
  -2  -5   0   18.09    0.71
  -2  -5   0   16.45    0.76
  -2  -5   0   18.38    0.84
   2  -5   0   17.61    0.81
   2  -5   0   18.22    0.65
   2   5   0   18.55    0.55
  -2   5   0   18.21    0.53
   2   5   0   18.12    0.85
   2   5   0   17.41    0.82
  -2   5   0   19.01    0.65
  -2   5   0   17.31    0.52
   2   5   0   18.88    0.70
  -2   5   0   18.93    0.80
  -3  -5   0   66.59    1.96
   3  -5   0   66.41    1.76
  -3  -5   0   66.25    1.97
   3  -5   0   65.24    1.95
   3  -5   0   65.88    1.83
  -3   5   0   67.17    1.88
  -3   5   0   66.84    1.71
   3   5   0   67.72    1.83
   3   5   0   66.56    1.98
   4  -5   0   53.95    1.69
  -4  -5   0   53.92    1.79
   4  -5   0   51.42    1.85
  -4  -5   0   51.96    1.78
  -4  -5   0   53.47    1.81
   4  -5   0   52.06    1.67
   4   5   0   52.04    1.80
  -4   5   0   51.29    1.67
   4   5   0   52.96    1.74
  -4   5   0   50.35    1.57
  -5  -5   0  105.02    3.04
  -5  -5   0  110.77    4.12
  -5  -5   0  103.31    2.93
   5  -5   0  102.99    2.90
   5  -5   0  106.68    2.86
   5  -5   0  102.45    3.10
  -5   5   0  103.72    2.80
   5   5   0  107.14    3.00
   5   5   0  108.44    3.18
   5   5   0   97.77    2.92
   6  -5   0    9.19    1.02
   6  -5   0   10.57    0.93
   6  -5   0   11.50    1.25
  -6  -5   0    7.32    0.96
  -6  -5   0    7.84    0.89
  -6   5   0    8.44    0.97
   6   5   0    9.67    1.07
  -6   5   0    9.68    0.78
   6   5   0    8.75    1.10
  -7  -5   0    6.07    1.00
   7  -5   0    7.27    1.14
   7  -5   0    7.50    1.00
  -7  -5   0    7.81    0.97
   7  -5   0    9.13    1.15
  -7   5   0    8.86    1.02
   7   5   0    7.10    1.03
  -7   5   0    6.92    1.06
   7   5   0    6.31    1.04
   0  -6   0  137.18    3.02
   0  -6   0  137.67    2.79
   0  -6   0  132.03    2.92
   0  -6   0  132.46    2.94
   0   6   0  129.94    2.94
   0   6   0  132.88    2.92
   0   6   0  132.85    2.90
   0   6   0  127.65    2.76
   1  -6   0   19.76    0.83
  -1  -6   0   18.40    0.83
   1  -6   0   19.89    0.70
  -1  -6   0   19.47    0.75
  -1  -6   0   19.08    0.83
   1  -6   0   19.00    0.81
  -1  -6   0   18.40    0.57
   1  -6   0   18.06    0.63
   1   6   0   18.54    0.84
  -1   6   0   17.10    0.77
   1   6   0   17.55    0.81
  -1   6   0   17.77    0.47
  -1   6   0   18.54    0.68
   1   6   0   17.81    0.67
  -1   6   0   18.09    0.63
  -1   6   0   17.25    0.69
   1   6   0   18.24    0.73
   2  -6   0   10.29    0.44
   2  -6   0   10.50    0.65
   2  -6   0    9.71    0.61
  -2  -6   0    9.83    0.66
  -2  -6   0   10.07    0.61
  -2  -6   0   10.78    0.69
   2  -6   0    9.84    0.47
  -2  -6   0   10.77    0.54
   2   6   0   10.70    0.68
   2   6   0   10.85    0.53
  -2   6   0   10.10    0.42
  -2   6   0   11.43    0.50
  -2   6   0   10.61    0.65
   2   6   0   11.10    0.45
  -2   6   0   11.14    0.45
   2   6   0    9.92    0.68
   3  -6   0   46.79    1.40
  -3  -6   0   47.26    1.64
   3  -6   0   49.87    1.68
  -3  -6   0   49.75    1.52
   3  -6   0   46.67    1.53
  -3  -6   0   48.47    1.68
  -3   6   0   47.60    1.36
   3   6   0   46.77    1.66
   3   6   0   48.45    1.02
  -3   6   0   47.53    1.57
   3   6   0   47.52    1.46
   4  -6   0    1.26    0.36
   4  -6   0    1.20    0.40
  -4  -6   0    1.79    0.44
   4  -6   0    1.46    0.38
  -4  -6   0    1.56    0.46
  -4  -6   0    1.71    0.43
  -4   6   0    1.77    0.42
  -4   6   0    1.54    0.35
   4   6   0    1.19    0.38
   4   6   0    1.89    0.41
   5  -6   0    1.31    0.47
   5  -6   0    1.05    0.54
  -5  -6   0    1.90    0.54
  -5  -6   0    2.01    0.51
   5  -6   0    2.42    0.53
   5   6   0    1.81    0.50
  -5   6   0    1.65    0.45
  -5   6   0    1.94    0.48
   5   6   0    2.89    0.66
  -5   6   0    1.94    0.42
   5   6   0    1.59    0.50
   6  -6   0    6.74    0.87
  -6  -6   0    5.63    0.79
  -6  -6   0    5.29    0.91
   6  -6   0    6.92    0.93
   6  -6   0    5.87    0.91
  -6   6   0    6.45    0.79
  -6   6   0    5.57    0.73
   6   6   0    5.52    0.81
  -6   6   0    4.77    0.77
   6   6   0    4.41    0.86
  -7  -6   0    2.18    0.70
   7  -6   0    2.25    0.67
   7  -6   0    3.33    0.77
  -7  -6   0    3.16    0.69
   7  -6   0    3.03    0.78
   7   6   0    1.97    0.81
   7   6   0    1.70    0.65
  -7   6   0    2.79    0.73
  -7   6   0    2.48    0.60
   0  -7   0    0.16    0.15
   0  -7   0   -0.17    0.12
   0  -7   0   -0.13    0.16
   0  -7   0    0.26    0.22
   0   7   0    0.06    0.13
   0   7   0    0.07    0.16
   0   7   0   -0.20    0.14
   0   7   0   -0.20    0.13
   1  -7   0  114.82    2.43
  -1  -7   0  111.56    2.58
   1  -7   0  110.76    2.52
  -1  -7   0  112.14    2.26
   1  -7   0  111.43    2.54
  -1  -7   0  108.13    2.75
  -1  -7   0  113.52    2.76
   1  -7   0  115.47    2.75
   1   7   0  109.82    2.77
  -1   7   0  111.62    2.71
  -1   7   0  109.60    2.51
  -1   7   0  113.58    2.57
   1   7   0  110.86    2.75
  -1   7   0  113.54    2.11
   1   7   0  112.05    2.58
   1   7   0  110.24    2.51
  -1   7   0  111.21    2.42
   2  -7   0   62.63    1.46
   2  -7   0   58.62    1.77
  -2  -7   0   60.97    1.57
   2  -7   0   57.23    1.80
   2  -7   0   58.29    1.48
  -2  -7   0   62.43    1.90
   2   7   0   61.07    1.54
  -2   7   0   60.66    1.49
  -2   7   0   61.32    1.82
   2   7   0   61.12    1.49
   2   7   0   63.08    1.93
  -2   7   0   60.55    1.53
  -2   7   0   59.80    1.47
   3  -7   0   32.47    0.83
   3  -7   0   33.03    1.38
   3  -7   0   33.91    0.83
   3  -7   0   34.68    1.13
  -3  -7   0   35.51    1.25
   3  -7   0   33.06    1.29
  -3  -7   0   34.09    1.41
  -3   7   0   35.90    1.12
   3   7   0   34.76    1.20
  -3   7   0   32.00    1.32
  -3   7   0   34.21    0.82
  -3   7   0   33.24    0.81
   3   7   0   31.36    1.39
   3   7   0   35.37    0.87
  -4  -7   0  121.99    3.33
  -4  -7   0  122.66    3.18
   4  -7   0  128.03    3.41
   4  -7   0  119.41    3.00
   4  -7   0  126.41    3.19
   4   7   0  121.41    3.11
   4   7   0  122.46    3.38
  -4   7   0  122.12    2.92
  -4   7   0  120.48    3.20
  -5  -7   0    8.11    0.97
   5  -7   0    6.18    0.87
   5  -7   0    5.35    0.74
   5  -7   0    7.01    0.82
  -5  -7   0    5.57    0.78
   5   7   0    6.22    0.77
  -5   7   0    7.29    0.82
  -5   7   0    6.20    0.70
  -5   7   0    5.35    0.70
   5   7   0    6.51    0.85
  -6  -7   0    7.80    1.04
   6  -7   0    5.72    0.92
   6  -7   0    6.82    0.88
   6  -7   0    8.09    0.96
  -6  -7   0    7.11    0.95
   6   7   0    7.17    1.10
  -6   7   0    7.59    0.94
  -6   7   0    6.65    0.86
   6   7   0    6.89    0.97
  -6   7   0    6.65    0.79
  -7  -7   0    1.30    0.60
   7  -7   0    0.52    0.58
   7  -7   0    0.67    0.48
  -7  -7   0    0.04    0.49
   7  -7   0   -0.37    0.43
   7   7   0    0.56    0.61
   7   7   0    0.61    0.57
  -7   7   0    0.86    0.54
   0  -8   0  247.71    5.34
   0  -8   0  246.69    5.24
   0  -8   0  259.56    5.04
   0   8   0  250.39    5.25
   0   8   0  251.73    5.29
   0   8   0  252.88    5.03
   0   8   0  253.73    5.23
   1  -8   0   43.06    1.32
  -1  -8   0   43.29    1.02
  -1  -8   0   39.93    1.45
  -1  -8   0   42.65    1.33
   1  -8   0   44.61    1.50
   1  -8   0   43.07    1.20
   1   8   0   40.78    1.49
   1   8   0   40.06    1.30
  -1   8   0   42.34    1.44
  -1   8   0   41.00    1.29
  -1   8   0   42.07    1.20
   1   8   0   42.49    1.30
  -1   8   0   41.95    1.33
   1   8   0   42.19    1.49
   2  -8   0   71.37    1.82
   2  -8   0   75.68    1.68
   2  -8   0   75.60    1.82
  -2  -8   0   76.54    2.25
  -2  -8   0   75.65    1.83
   2  -8   0   76.73    2.16
   2  -8   0   76.53    2.20
   2  -8   0   75.00    1.83
  -2   8   0   71.13    2.14
   2   8   0   75.95    2.28
   2   8   0   72.31    1.81
   2   8   0   75.43    1.80
  -2   8   0   71.00    1.81
  -2   8   0   73.29    1.81
  -2   8   0   73.95    1.81
   3  -8   0   21.13    1.10
   3  -8   0   19.96    1.05
  -3  -8   0   20.20    0.91
   3  -8   0   19.94    0.83
   3  -8   0   20.46    0.66
   3  -8   0   20.37    0.66
  -3  -8   0   20.24    1.12
  -3   8   0   19.35    0.63
  -3   8   0   20.29    0.83
   3   8   0   18.00    1.09
  -3   8   0   19.58    1.06
   3   8   0   20.23    0.68
  -3   8   0   19.84    0.64
   3   8   0   19.17    0.88
  -4  -8   0   32.78    1.55
   4  -8   0   33.94    1.59
  -4  -8   0   35.30    1.44
   4  -8   0   36.22    1.33
   4  -8   0   33.29    1.46
  -4   8   0   35.01    1.33
  -4   8   0   34.10    1.50
  -4   8   0   34.40    1.25
   4   8   0   37.35    1.43
   4   8   0   34.30    1.61
   5  -8   0    5.25    0.85
   5  -8   0    4.70    0.66
   5  -8   0    6.45    0.82
  -5  -8   0    6.92    0.95
  -5  -8   0    7.61    0.89
   5   8   0    7.54    0.97
  -5   8   0    6.35    0.84
   5   8   0    5.87    0.76
  -5   8   0    6.56    0.71
  -5   8   0    5.83    0.74
  -6  -8   0   15.38    1.24
  -6  -8   0   18.22    1.30
   6  -8   0   15.57    1.17
   6  -8   0   13.51    1.23
   6  -8   0   14.04    1.09
   6   8   0   15.13    1.30
   6   8   0   16.93    1.21
  -6   8   0   17.09    1.18
  -6   8   0   15.09    1.10
  -6   8   0   15.83    1.04
   0  -9   0   -0.20    0.14
   0  -9   0   -0.09    0.18
   0  -9   0    0.21    0.23
   0   9   0   -0.02    0.20
   0   9   0   -0.04    0.14
   0   9   0    0.00    0.21
   0   9   0   -0.13    0.18
  -1  -9   0   11.03    0.41
   1  -9   0   11.48    0.79
  -1  -9   0   10.40    0.75
   1  -9   0   11.40    0.67
   1  -9   0   11.70    0.59
   1   9   0   10.79    0.66
   1   9   0   10.69    0.86
  -1   9   0   10.16    0.66
  -1   9   0   11.84    0.75
  -1   9   0   11.02    0.57
  -1   9   0   10.24    0.64
   1   9   0   10.81    0.78
   1   9   0   11.19    0.67
   2  -9   0   22.81    1.10
  -2  -9   0   22.01    0.81
  -2  -9   0   21.61    1.15
   2  -9   0   20.09    0.83
   2  -9   0   21.33    0.84
   2  -9   0   21.89    1.12
  -2   9   0   20.46    1.06
   2   9   0   22.42    0.79
  -2   9   0   20.93    0.82
  -2   9   0   21.79    0.68
   2   9   0   23.20    0.88
  -2   9   0   22.40    0.86
   2   9   0   21.71    1.17
  -2   9   0   22.10    0.67
  -2   9   0   21.04    0.86
   3  -9   0    7.28    0.42
   3  -9   0    6.82    0.78
   3  -9   0    8.32    0.86
  -3  -9   0    8.36    0.89
  -3  -9   0    6.67    0.56
   3  -9   0    7.83    0.51
  -3   9   0    6.93    0.41
   3   9   0    7.76    0.87
  -3   9   0    6.60    0.49
  -3   9   0    6.64    0.51
  -3   9   0    6.26    0.72
  -3   9   0    7.01    0.41
   3   9   0    7.71    0.45
   3   9   0    6.75    0.54
  -4  -9   0   63.07    2.00
  -4  -9   0   65.28    2.32
   4  -9   0   59.07    2.08
   4  -9   0   54.69    2.15
   4  -9   0   59.95    1.81
   4   9   0   59.42    2.27
  -4   9   0   58.35    1.81
  -4   9   0   58.72    1.75
   4   9   0   59.00    1.91
  -4   9   0   59.14    2.13
   5  -9   0    9.15    0.79
   5  -9   0   10.83    0.96
  -5  -9   0   11.26    1.25
   5  -9   0    8.20    1.02
  -5  -9   0   10.17    1.02
  -5   9   0    9.72    0.74
  -5   9   0   11.04    1.13
  -5   9   0    8.80    0.90
   5   9   0    9.70    1.12
   5   9   0   10.10    1.02
   6  -9   0    0.88    0.45
   6  -9   0    0.43    0.48
  -6  -9   0    1.11    0.51
  -6  -9   0    1.86    0.59
   6  -9   0    0.80    0.58
   6   9   0    1.09    0.63
  -6   9   0    1.50    0.53
  -6   9   0    1.91    0.54
   6   9   0    1.09    0.49
   0 -10   0  163.06    3.62
   0 -10   0  162.53    4.00
   0 -10   0  167.19    3.91
   0  10   0  166.09    3.95
   0  10   0  167.31    3.65
   0  10   0  163.59    3.86
   0  10   0  165.38    3.91
  -1 -10   0   51.81    1.85
  -1 -10   0   52.86    1.16
   1 -10   0   52.96    1.51
  -1 -10   0   52.19    1.88
   1 -10   0   55.24    1.71
   1 -10   0   52.68    1.87
   1  10   0   53.94    1.67
  -1  10   0   54.66    1.73
  -1  10   0   53.26    1.52
  -1  10   0   51.85    1.81
   1  10   0   55.33    1.93
   1  10   0   52.52    1.67
  -1  10   0   54.23    1.69
   2 -10   0    9.50    0.79
  -2 -10   0    9.27    0.82
  -2 -10   0   10.02    0.53
   2 -10   0   10.76    0.61
   2 -10   0   10.08    0.62
  -2  10   0    9.85    0.81
  -2  10   0    9.71    0.39
   2  10   0   11.21    0.64
  -2  10   0    9.72    0.58
   2  10   0    9.99    0.87
  -2  10   0    9.44    0.60
  -2  10   0   10.14    0.40
  -2  10   0    9.31    0.62
   3 -10   0    1.81    0.33
  -3 -10   0    2.82    0.44
   3 -10   0    2.55    0.56
  -3 -10   0    1.35    0.43
   3 -10   0    1.79    0.50
  -3  10   0    2.71    0.35
   3  10   0    2.25    0.52
  -3  10   0    2.00    0.33
  -3  10   0    1.98    0.36
   3  10   0    2.76    0.43
   3  10   0    2.44    0.34
  -3  10   0    2.82    0.35
  -3  10   0    1.38    0.45
  -4 -10   0    0.38    0.42
  -4 -10   0    0.95    0.38
   4 -10   0    0.82    0.44
   4 -10   0    1.13    0.47
   4 -10   0    0.92    0.34
   4  10   0    0.84    0.44
  -4  10   0    1.03    0.33
  -4  10   0    0.91    0.31
  -4  10   0    1.09    0.48
   4  10   0    1.22    0.37
  -5 -10   0    0.14    0.35
   5 -10   0   -0.53    0.34
   5 -10   0   -0.63    0.38
  -5 -10   0    0.30    0.45
   5 -10   0    0.30    0.35
  -5  10   0    0.18    0.30
   5  10   0    0.04    0.40
   5  10   0   -0.06    0.31
  -5  10   0    0.23    0.35
  -5  10   0   -0.07    0.38
  -6 -10   0    4.08    0.80
   6 -10   0    4.05    0.83
   6 -10   0    4.13    0.85
   6 -10   0    3.70    0.69
  -6 -10   0    3.63    0.85
  -6  10   0    4.07    0.81
   6  10   0    4.07    0.78
   0 -11   0   -0.01    0.29
   0 -11   0    0.15    0.29
   0  11   0    0.32    0.27
   0  11   0   -0.08    0.17
   0  11   0   -0.30    0.23
   0  11   0    0.10    0.28
   1 -11   0   12.89    0.82
   1 -11   0   11.23    0.66
   1 -11   0   11.27    0.91
  -1 -11   0   11.71    0.94
  -1 -11   0   11.60    0.92
  -1  11   0   11.71    0.67
   1  11   0   11.25    0.76
  -1  11   0   10.74    0.76
   1  11   0   12.51    0.95
   1  11   0   12.07    0.77
  -1  11   0   10.75    0.80
  -1  11   0   11.23    0.86
   2 -11   0    3.88    0.48
  -2 -11   0    3.84    0.40
  -2 -11   0    5.55    0.84
   2 -11   0    3.93    0.66
   2 -11   0    4.53    0.53
  -2  11   0    3.02    0.46
   2  11   0    3.80    0.71
  -2  11   0    3.78    0.46
   2  11   0    3.92    0.51
  -2  11   0    2.70    0.45
  -2  11   0    3.22    0.61
  -3 -11   0   15.76    0.82
   3 -11   0   17.77    1.17
  -3 -11   0   15.32    1.17
   3 -11   0   17.04    1.13
  -3  11   0   16.79    0.76
  -3  11   0   16.62    0.69
   3  11   0   16.80    0.78
   3  11   0   16.93    1.22
   3  11   0   15.11    0.80
  -3  11   0   16.78    0.82
  -3  11   0   15.93    1.11
   4 -11   0   18.11    1.25
  -4 -11   0   17.60    1.32
  -4 -11   0   18.09    1.02
   4 -11   0   18.90    1.23
  -4  11   0   14.98    0.85
   4  11   0   17.51    1.32
   4  11   0   16.12    0.95
  -4  11   0   20.56    1.30
  -5 -11   0    2.63    0.62
  -5 -11   0    2.25    0.64
   5 -11   0    1.51    0.59
   5 -11   0    2.15    0.65
   5  11   0    2.75    0.60
   5  11   0    2.20    0.65
  -5  11   0    3.38    0.74
  -6 -11   0    0.70    0.55
   6 -11   0    1.02    0.65
   6 -11   0    1.31    0.72
   6  11   0    1.17    0.56
  -6  11   0    1.40    0.61
   0 -12   0   41.17    1.69
   0 -12   0   44.19    1.83
   0  12   0   47.29    1.75
   0  12   0   45.27    1.52
   0  12   0   45.66    1.81
   1 -12   0  106.50    3.17
  -1 -12   0  105.91    3.16
  -1 -12   0  109.24    3.25
   1 -12   0  109.65    2.96
  -1  12   0  109.68    2.70
   1  12   0  112.29    3.26
  -1  12   0  108.83    2.99
  -1  12   0  110.50    3.14
   1  12   0  110.74    2.95
  -1  12   0  115.56    3.48
   1  12   0  107.83    2.87
  -2 -12   0    2.66    0.64
  -2 -12   0    3.13    0.35
  -2 -12   0    2.75    0.64
   2 -12   0    2.66    0.62
  -2  12   0    2.59    0.40
   2  12   0    2.67    0.64
  -2  12   0    3.34    0.52
  -2  12   0    3.08    0.63
   2  12   0    3.16    0.49
  -3 -12   0    3.59    0.73
  -3 -12   0    3.83    0.50
   3 -12   0    2.78    0.62
   3  12   0    3.02    0.69
  -3  12   0    4.31    0.73
  -3  12   0    3.06    0.44
  -3  12   0    3.66    0.50
   3  12   0    3.88    0.49
  -4 -12   0    2.21    0.66
   4 -12   0    3.13    0.70
  -4 -12   0    2.81    0.52
   4 -12   0    1.36    0.55
  -4  12   0    2.28    0.61
   4  12   0    2.36    0.68
   4  12   0    2.45    0.75
  -5 -12   0    0.22    0.44
   5 -12   0    0.36    0.50
  -5 -12   0    0.31    0.43
   5 -12   0   -0.01    0.45
  -5  12   0    0.23    0.42
   5  12   0    0.05    0.44
   5  12   0   -0.01    0.36
   0 -13   0   -0.09    0.32
   0 -13   0    0.06    0.28
   0  13   0    0.01    0.34
   0  13   0    0.22    0.26
   0  13   0    0.22    0.32
   1 -13   0    4.03    0.59
  -1 -13   0    4.09    0.77
   1 -13   0    3.50    0.68
  -1 -13   0    4.60    0.74
  -1  13   0    5.51    0.72
  -1  13   0    4.27    0.69
   1  13   0    5.66    0.68
  -1  13   0    5.58    0.61
   1  13   0    4.74    0.65
   1  13   0    4.24    0.72
  -2 -13   0    5.06    0.80
  -2 -13   0    4.86    0.82
   2 -13   0    4.09    0.70
   2  13   0    6.50    0.70
  -2  13   0    4.85    0.77
   2  13   0    6.18    0.92
  -2  13   0    5.59    0.60
  -2  13   0    5.62    0.69
   3 -13   0    6.33    0.97
  -3 -13   0    5.91    0.86
  -3  13   0    7.13    0.97
   3  13   0    4.38    0.80
  -3  13   0    6.78    0.59
   4 -13   0    5.80    0.94
  -4 -13   0    5.88    0.99
   4 -13   0    9.48    1.18
  -4  13   0    6.27    0.94
   4  13   0    6.23    1.03
   5 -13   0    9.91    1.22
   5 -13   0   11.54    1.40
  -5  13   0   14.96    1.58
   5  13   0   15.15    1.68
   0 -14   0   20.52    1.39
   0 -14   0   22.65    1.32
   0  14   0   20.95    1.32
   0  14   0   21.48    1.09
   0  14   0   22.43    1.31
   1 -14   0    1.49    0.53
  -1 -14   0    0.97    0.52
  -1 -14   0    2.07    0.58
   1  14   0    1.45    0.48
  -1  14   0    1.33    0.52
  -1  14   0    1.61    0.39
   1  14   0    1.14    0.39
  -1  14   0    1.38    0.47
   1  14   0    1.30    0.55
  -2 -14   0    1.47    0.60
   2 -14   0    1.27    0.58
  -2 -14   0    0.90    0.47
   2  14   0    1.57    0.44
  -2  14   0    1.08    0.42
  -2  14   0    1.90    0.63
   2  14   0    1.82    0.62
   3 -14   0   -0.44    0.39
  -3 -14   0    0.11    0.41
  -3 -14   0   -0.24    0.40
  -3  14   0   -0.42    0.40
   3  14   0    0.07    0.42
  -3  14   0   -0.07    0.23
  -4 -14   0    0.89    0.61
   4 -14   0    0.53    0.53
  -4  14   0    0.58    0.51
   4  14   0    0.57    0.63
   0 -15   0   -0.18    0.32
   0 -15   0    0.32    0.45
   0  15   0    0.40    0.37
   0  15   0   -0.29    0.31
   0  15   0   -0.11    0.26
  -1 -15   0    1.99    0.63
   1 -15   0    1.31    0.60
  -1 -15   0    1.10    0.54
   1  15   0    2.20    0.64
  -1  15   0    1.66    0.59
   1  15   0    2.25    0.58
   1  15   0    1.79    0.50
  -1  15   0    2.53    0.66
  -1  15   0    1.54    0.52
  -2 -15   0   18.27    1.43
   2 -15   0   18.93    1.40
  -2 -15   0   17.78    1.41
  -2  15   0   18.02    1.37
  -2  15   0   18.48    1.16
   2  15   0   19.10    1.52
   2  15   0   17.54    1.13
   3 -15   0   10.70    1.28
  -3 -15   0    8.81    1.24
  -3 -15   0   10.93    1.38
  -3  15   0    9.16    1.19
  -3  15   0    8.52    0.75
   3  15   0   10.98    1.44
   4 -15   0    6.95    1.12
  -4 -15   0    5.97    1.10
  -4 -15   0    5.30    1.01
   4  15   0    6.12    1.10
   0 -16   0    2.29    0.74
   0  16   0    1.41    0.56
   0  16   0    0.87    0.54
   1 -16   0    0.86    0.61
  -1 -16   0    1.20    0.60
  -1 -16   0    1.43    0.64
  -1  16   0    0.90    0.52
  -1  16   0    0.95    0.47
   1  16   0    0.77    0.46
   1  16   0    1.17    0.60
   2 -16   0    0.31    0.55
  -2 -16   0    0.61    0.54
  -2 -16   0    0.32    0.49
  -2  16   0    0.52    0.43
   2  16   0    0.77    0.57
   2  16   0    1.12    0.57
  -2  16   0    1.07    0.61
  -3 -16   0    0.78    0.55
  -3 -16   0    1.27    0.64
   3 -16   0    0.34    0.53
  -3  16   0    0.17    0.32
   0 -17   0    0.32    0.59
   0  17   0   -0.34    0.37
   0  17   0    0.07    0.41
  -1 -17   0    0.46    0.59
   1 -17   0   -0.14    0.53
  -1  17   0    0.13    0.43
   1  17   0    0.24    0.46
  -1  17   0   -0.25    0.44
  -2 -17   0    8.08    1.26
   2 -17   0    7.60    1.21
  -2 -17   0    4.11    0.94
  -2  17   0    5.93    0.86
  -7   0   1   14.27    0.72
   7   0  -1   14.20    1.24
  -7   0   1   13.71    1.20
   7   0  -1   13.61    1.16
   6   0  -1   14.28    1.13
  -6   0   1   13.99    1.07
   6   0  -1   14.64    1.07
  -6   0   1   15.46    0.73
  -5   0   1   16.83    0.63
   5   0  -1   15.44    1.05
   5   0  -1   15.59    0.69
  -5   0   1   16.60    0.71
   5   0  -1   16.10    0.97
  -5   0   1   16.89    0.71
  -5   0   1   16.53    1.01
   4   0  -1    3.09    0.47
  -4   0   1    3.43    0.50
  -4   0   1    3.05    0.34
   4   0  -1    3.93    0.57
  -4   0   1    3.17    0.35
  -4   0   1    2.92    0.29
   4   0  -1    2.89    0.48
   4   0  -1    2.67    0.32
   4   0  -1    2.59    0.32
   3   0  -1  113.86    2.66
  -3   0   1  108.24    2.62
  -3   0   1  110.12    2.33
   3   0  -1  113.04    2.60
  -3   0   1  110.31    2.34
   3   0  -1  112.38    2.33
   3   0  -1  111.74    2.62
   3   0  -1  111.60    2.35
  -2   0   1   31.48    0.80
   2   0  -1   31.43    0.96
   2   0  -1   31.38    0.80
   2   0  -1   30.89    0.79
  -2   0   1   31.77    0.95
  -2   0   1   30.24    0.80
   2   0  -1   31.53    0.94
  -1   0   1    0.26    0.12
   1   0  -1    0.30    0.12
  -1   0   1    0.03    0.13
  -1   0   1    0.25    0.12
   1   0  -1    0.13    0.11
   1   0  -1    0.26    0.14
   0   0  -1   64.46    1.22
   0   0   1   52.48    1.21
   0   0   1   63.55    1.17
   0   0   1   60.77    1.21
   0   0  -1   60.29    1.22
   0   0  -1   51.00    1.20
   1   0   1  979.54   18.22
  -1   0  -1  971.85   18.40
  -1   0  -1  955.53   18.22
  -1   0  -1  966.04   18.38
   1   0   1  975.48   18.47
  -1   0  -1 1000.00   18.53
   1   0   1  970.27   18.29
   1   0   1  982.83   18.60
   2   0   1    6.37    0.42
   2   0   1    7.18    0.38
   2   0   1    7.08    0.33
   2   0   1    7.72    0.47
  -2   0  -1    7.13    0.37
  -2   0  -1    6.62    0.38
   2   0   1    6.76    0.37
  -2   0  -1    6.91    0.37
  -2   0  -1    7.20    0.33
   3   0   1    7.83    0.55
   3   0   1    6.95    0.43
   3   0   1    6.86    0.37
  -3   0  -1    6.90    0.42
  -3   0  -1    7.03    0.43
   3   0   1    6.79    0.56
  -3   0  -1    7.13    0.37
   3   0   1    7.04    0.43
  -4   0  -1   42.74    1.29
   4   0   1   40.96    1.51
  -4   0  -1   42.64    1.29
   4   0   1   43.42    1.61
   4   0   1   44.43    1.31
  -4   0  -1   42.85    1.16
   5   0   1   79.10    2.11
  -5   0  -1   81.37    2.10
   5   0   1   80.12    2.50
   5   0   1   75.11    2.53
  -5   0  -1   78.28    2.10
  -5   0  -1   80.62    1.89
   6   0   1    1.69    0.59
  -6   0  -1    1.54    0.36
   6   0   1    1.29    0.51
   7   0   1    0.54    0.48
  -7   0  -1    0.42    0.28
   7   0   1    1.30    0.63
  -7   0  -1    1.38    0.56
  -7  -1   1    3.73    0.74
  -7  -1   1    3.69    0.51
   7  -1  -1    6.04    0.97
   7  -1  -1    3.80    0.79
   7   1  -1    5.35    0.96
  -7   1   1    5.85    0.97
   7   1  -1    4.78    0.88
  -6  -1   1   20.83    1.27
  -6  -1   1   17.91    0.87
   6  -1  -1   17.57    1.13
   6  -1  -1   16.62    1.19
  -6   1   1   17.58    1.19
   6   1  -1   16.51    1.20
  -6   1   1   18.44    0.69
  -6   1   1   17.60    1.05
   6   1  -1   16.00    1.10
   5  -1  -1   16.51    1.04
  -5  -1   1   16.95    0.78
   5  -1  -1   15.75    0.94
   5  -1  -1   16.09    0.63
  -5  -1   1   16.07    1.01
  -5  -1   1   16.46    0.77
   5  -1  -1   15.08    0.94
  -5  -1   1   16.67    0.51
   5   1  -1   16.03    1.05
  -5   1   1   15.56    0.61
  -5   1   1   15.65    0.61
  -5   1   1   15.42    0.68
  -5   1   1   17.37    1.03
   5   1  -1   14.28    0.92
   5   1  -1   15.43    0.76
  -4  -1   1   72.07    1.85
   4  -1  -1   73.12    1.64
   4  -1  -1   72.61    2.05
  -4  -1   1   72.28    1.53
   4  -1  -1   73.77    1.64
   4  -1  -1   73.19    2.13
  -4  -1   1   74.25    1.85
   4  -1  -1   72.53    2.08
  -4  -1   1   73.65    2.14
  -4   1   1   72.60    1.63
   4   1  -1   75.54    2.12
  -4   1   1   72.60    1.63
  -4   1   1   75.19    2.13
   4   1  -1   74.28    2.16
  -4   1   1   71.58    1.74
   4   1  -1   73.21    1.86
   3  -1  -1  285.70    5.21
   3  -1  -1  283.81    5.63
  -3  -1   1  280.06    5.44
   3  -1  -1  272.58    5.21
   3  -1  -1  281.34    5.64
   3  -1  -1  281.38    5.67
  -3  -1   1  284.30    5.69
  -3  -1   1  274.94    5.42
  -3   1   1  279.51    5.20
  -3   1   1  276.54    5.64
  -3   1   1  276.13    5.21
   3   1  -1  284.20    5.46
   3   1  -1  288.18    5.70
   3   1  -1  277.14    5.64
   3   1  -1  284.70    5.44
  -2  -1   1    3.65    0.32
  -2  -1   1    3.46    0.17
  -2  -1   1    3.33    0.27
  -2  -1   1    3.24    0.26
   2  -1  -1    3.73    0.37
   2  -1  -1    3.59    0.18
   2  -1  -1    3.39    0.29
  -2   1   1    3.46    0.30
  -2   1   1    3.02    0.18
   2   1  -1    3.34    0.29
   2   1  -1    3.61    0.27
   2   1  -1    3.53    0.28
  -2   1   1    3.76    0.19
  -1  -1   1  348.13    6.71
  -1  -1   1  354.28    6.93
  -1  -1   1  342.78    6.62
   1  -1  -1  351.97    6.76
  -1  -1   1  352.51    6.86
   1  -1  -1  374.66    6.83
  -1   1   1  344.37    6.44
  -1   1   1  342.74    6.63
  -1   1   1  337.26    6.67
   1   1  -1  353.18    6.79
   1   1  -1  356.51    6.64
   1   1  -1  350.79    6.64
   1   1  -1  362.21    6.89
  -1   1   1  353.11    6.66
   0  -1  -1  183.05    3.51
   0  -1   1  189.04    3.54
   0  -1  -1  184.18    3.63
   0  -1   1  189.96    3.54
   0  -1  -1  187.82    3.54
   0  -1   1  187.71    3.50
   0  -1   1  181.94    3.50
   0  -1   1  188.36    3.52
   0  -1  -1  191.06    3.54
   0   1   1  184.94    3.53
   0   1  -1  190.25    3.54
   0   1  -1  194.15    3.53
   0   1   1  190.14    3.54
   0   1   1  185.41    3.51
   0   1  -1  193.08    3.94
   0   1  -1  189.50    3.54
   0   1  -1  169.89    3.41
   0   1   1  193.07    3.52
   1  -1   1  240.61    4.55
  -1  -1  -1  244.45    4.65
  -1  -1  -1  243.86    4.50
  -1  -1  -1  236.87    4.63
   1  -1   1  245.04    4.59
  -1  -1  -1  249.91    4.62
   1  -1   1  238.08    4.54
   1   1   1  250.04    4.62
  -1   1  -1  241.05    4.49
   1   1   1  247.26    4.50
  -1   1  -1  250.40    4.56
   1   1   1  246.18    4.66
   1   1   1  245.64    4.64
  -1   1  -1  242.27    4.59
  -1   1  -1  246.08    4.56
  -2  -1  -1   21.47    0.76
   2  -1   1   23.24    0.85
  -2  -1  -1   22.44    0.60
   2  -1   1   21.98    0.67
  -2  -1  -1   22.72    0.76
   2  -1   1   21.21    0.66
   2  -1   1   21.88    0.70
   2  -1   1   21.22    0.77
  -2  -1  -1   23.55    0.77
  -2   1  -1   21.94    0.69
   2   1   1   22.07    0.60
  -2   1  -1   22.38    0.67
  -2   1  -1   21.91    0.66
   2   1   1   22.66    0.83
   2   1   1   22.87    0.81
   2   1   1   21.33    0.74
   2   1   1   22.12    0.76
   3  -1   1   14.85    0.79
   3  -1   1   15.97    0.63
  -3  -1  -1   15.06    0.51
  -3  -1  -1   15.51    0.68
   3  -1   1   15.87    0.62
   3  -1   1   14.89    0.75
   3  -1   1   15.09    0.60
  -3  -1  -1   15.25    0.73
   3  -1   1   15.50    0.59
  -3  -1  -1   13.95    0.66
  -3   1  -1   15.10    0.60
   3   1   1   16.26    0.53
   3   1   1   14.11    0.77
  -3   1  -1   15.73    0.60
   3   1   1   14.98    0.68
  -3   1  -1   15.29    0.59
   3   1   1   15.67    0.77
   3   1   1   15.05    0.67
   4  -1   1   26.17    1.23
  -4  -1  -1   26.85    0.79
  -4  -1  -1   28.30    1.04
  -4  -1  -1   26.75    1.03
   4  -1   1   27.32    1.18
   4  -1   1   26.46    0.91
  -4   1  -1   26.95    0.92
   4   1   1   27.63    1.04
   4   1   1   26.54    1.18
   4   1   1   27.96    1.27
  -4   1  -1   28.53    0.93
  -4   1  -1   27.72    0.93
   5  -1   1   45.47    1.86
  -5  -1  -1   44.72    1.53
   5  -1   1   44.99    1.75
  -5  -1  -1   44.90    1.49
  -5  -1  -1   45.04    1.14
   5  -1   1   41.31    1.33
  -5   1  -1   42.95    1.31
  -5   1  -1   44.95    1.34
  -5   1  -1   44.26    1.32
   5   1   1   43.47    1.49
   5   1   1   46.05    1.90
   5   1   1   45.59    1.77
   6  -1   1    0.65    0.45
   6  -1   1    0.34    0.45
  -6  -1  -1    0.37    0.28
   6   1   1    0.84    0.44
   6   1   1    1.24    0.58
  -6   1  -1    0.94    0.27
  -7  -1  -1    5.10    0.95
  -7  -1  -1    4.58    0.62
   7  -1   1    4.31    0.85
   7  -1   1    4.42    0.89
   7   1   1    4.59    0.97
   7   1   1    4.03    0.79
   7  -2  -1    4.89    0.87
  -7  -2   1    4.15    0.84
   7  -2  -1    1.87    0.64
  -7  -2   1    3.31    0.53
   7   2  -1    3.08    0.74
   7   2  -1    3.94    0.85
  -7   2   1    4.93    0.86
  -6  -2   1    4.16    0.71
   6  -2  -1    3.81    0.67
   6  -2  -1    3.44    0.66
   6  -2  -1    3.74    0.69
  -6  -2   1    4.31    0.56
  -6   2   1    2.83    0.61
   6   2  -1    2.08    0.60
  -6   2   1    2.75    0.42
   6   2  -1    2.84    0.64
   5  -2  -1   10.96    0.40
  -5  -2   1   10.91    0.69
   5  -2  -1   10.44    0.40
   5  -2  -1    9.92    0.79
   5  -2  -1   10.43    0.85
   5  -2  -1    9.04    0.78
  -5  -2   1   10.81    0.85
  -5  -2   1   11.47    0.70
  -5   2   1    9.57    0.36
   5   2  -1   10.39    0.82
  -5   2   1    9.99    0.37
   5   2  -1   10.69    0.90
   5   2  -1   10.22    0.68
  -5   2   1    9.93    0.59
  -5   2   1   10.16    0.81
  -4  -2   1   31.57    1.27
   4  -2  -1   30.08    1.25
  -4  -2   1   30.44    1.08
   4  -2  -1   30.41    0.73
  -4  -2   1   28.33    1.07
   4  -2  -1   30.34    0.73
   4  -2  -1   29.76    1.19
   4  -2  -1   30.45    1.20
   4   2  -1   29.29    1.25
   4   2  -1   30.44    1.11
  -4   2   1   30.42    1.01
  -4   2   1   30.21    0.71
  -4   2   1   30.58    0.72
   4   2  -1   29.61    1.20
  -4   2   1   33.21    1.26
  -3  -2   1   19.22    0.78
  -3  -2   1   19.99    0.87
  -3  -2   1   18.74    0.77
   3  -2  -1   19.94    0.85
   3  -2  -1   19.95    0.47
   3  -2  -1   20.02    0.48
   3  -2  -1   20.07    0.84
   3  -2  -1   21.48    0.90
  -3   2   1   19.86    0.84
   3   2  -1   21.87    0.88
   3   2  -1   20.67    0.79
   3   2  -1   20.77    0.81
  -3   2   1   20.07    0.47
  -2  -2   1   32.68    0.97
   2  -2  -1   33.20    0.98
   2  -2  -1   32.18    0.65
  -2  -2   1   32.87    0.69
   2  -2  -1   31.84    0.99
  -2  -2   1   33.78    0.97
  -2  -2   1   31.29    0.97
   2  -2  -1   33.91    0.97
   2   2  -1   32.08    0.97
   2   2  -1   32.11    0.98
  -2   2   1   31.05    0.93
   2   2  -1   32.23    0.96
  -2   2   1   31.93    0.65
   1  -2  -1  113.44    2.14
  -1  -2   1  111.33    2.33
  -1  -2   1  109.80    2.31
   1  -2  -1  109.43    2.20
  -1  -2   1  110.59    2.15
   1  -2  -1  112.06    2.27
  -1  -2   1  110.31    2.25
   1   2  -1  112.35    2.33
   1   2  -1  114.47    2.33
   1   2  -1  112.59    2.26
  -1   2   1  112.36    2.27
   1   2  -1  111.48    2.15
  -1   2   1  109.90    2.20
  -1   2   1  112.35    2.13
  -1   2   1  113.19    2.14
   0  -2   1  520.41   10.12
   0  -2   1  523.67    9.85
   0  -2  -1  534.07   10.17
   0  -2  -1  522.22    9.94
   0  -2   1  514.07   10.05
   0  -2  -1  525.10   10.17
   0  -2   1  500.35    9.95
   0  -2  -1  511.27    9.91
   0   2  -1  518.79   10.19
   0   2  -1  519.34    9.73
   0   2  -1  525.68   10.14
   0   2   1  539.35   10.06
   0   2   1  531.52   10.39
   0   2   1  524.70   10.06
   0   2  -1  519.76    9.92
   0   2   1  520.15   10.21
   1  -2   1  216.21    4.04
  -1  -2  -1  212.18    4.08
  -1  -2  -1  209.62    4.04
  -1  -2  -1  208.85    4.09
   1  -2   1  208.93    3.92
   1  -2   1  207.09    3.92
   1   2   1  206.28    4.04
   1   2   1  209.15    4.09
  -1   2  -1  205.47    3.92
  -1   2  -1  205.87    3.91
   1   2   1  206.81    3.87
   1   2   1  209.16    4.07
  -1   2  -1  202.35    4.02
   2  -2   1   54.78    1.49
   2  -2   1   54.55    1.37
  -2  -2  -1   53.59    1.44
   2  -2   1   50.78    1.38
  -2  -2  -1   53.13    1.43
  -2  -2  -1   54.30    1.15
  -2  -2  -1   52.72    1.42
   2  -2   1   52.22    1.21
   2   2   1   54.48    1.43
   2   2   1   53.80    1.47
   2   2   1   53.21    1.44
  -2   2  -1   54.31    1.22
  -2   2  -1   52.85    1.35
  -2   2  -1   53.38    1.22
   2   2   1   55.39    1.43
   2   2   1   54.41    1.15
   3  -2   1   38.57    1.38
  -3  -2  -1   40.84    0.94
   3  -2   1   39.63    1.14
   3  -2   1   41.70    1.21
   3  -2   1   41.04    1.06
  -3  -2  -1   37.76    1.26
  -3  -2  -1   42.59    1.35
   3  -2   1   40.56    1.32
  -3  -2  -1   40.61    1.29
   3   2   1   41.56    0.95
  -3   2  -1   43.42    1.07
   3   2   1   40.07    1.33
   3   2   1   41.75    1.29
  -3   2  -1   42.86    1.07
   3   2   1   42.72    1.31
  -3   2  -1   40.69    1.20
   3   2   1   43.48    1.42
   4  -2   1   58.88    1.86
  -4  -2  -1   59.46    1.75
  -4  -2  -1   58.88    1.28
   4  -2   1   59.76    1.46
  -4  -2  -1   56.80    1.72
   4  -2   1   60.46    1.97
   4  -2   1   60.69    1.64
  -4   2  -1   58.54    1.61
  -4   2  -1   59.06    1.46
   4   2   1   55.36    1.91
   4   2   1   54.24    1.82
  -4   2  -1   60.41    1.46
   5  -2   1   54.36    1.96
  -5  -2  -1   55.53    2.18
  -5  -2  -1   54.85    1.78
   5  -2   1   53.36    2.08
  -5   2  -1   55.14    1.44
   5   2   1   54.42    1.79
   5   2   1   53.00    1.96
  -5   2  -1   55.40    1.44
  -5   2  -1   56.40    1.62
   5   2   1   52.50    2.05
   6  -2   1    8.90    0.99
   6  -2   1   11.93    1.26
  -6  -2  -1   12.44    0.86
   6   2   1   13.61    1.09
  -6   2  -1   13.55    1.10
  -6   2  -1   13.03    0.62
   6   2   1   14.83    1.20
   7  -2   1    1.79    0.75
  -7  -2  -1    1.90    0.61
   7  -2   1    1.06    0.57
  -7  -2  -1    1.86    0.49
   7   2   1    1.26    0.63
   7   2   1    2.11    0.68
   7  -3  -1    4.33    0.82
  -7  -3   1    3.58    0.80
  -7  -3   1    3.36    0.57
   7  -3  -1    2.72    0.78
   7   3  -1    3.96    0.87
   7   3  -1    3.66    0.77
  -7   3   1    3.79    0.76
   6  -3  -1    6.85    0.91
  -6  -3   1    7.10    0.89
  -6  -3   1    7.50    0.69
   6  -3  -1    8.10    0.97
   6  -3  -1    9.10    0.96
   6   3  -1    7.28    1.01
  -6   3   1    8.85    1.03
   6   3  -1    7.26    0.91
  -6   3   1    7.08    0.61
   5  -3  -1    1.57    0.44
   5  -3  -1    1.33    0.50
  -5  -3   1    1.23    0.35
   5  -3  -1    0.80    0.35
  -5  -3   1    1.32    0.35
  -5  -3   1    1.14    0.39
  -5   3   1    0.84    0.37
   5   3  -1    1.70    0.41
  -5   3   1    1.16    0.32
   5   3  -1    0.85    0.38
   5   3  -1    1.20    0.43
  -4  -3   1   17.32    0.85
   4  -3  -1   17.99    0.90
  -4  -3   1   18.18    0.87
   4  -3  -1   17.74    0.91
  -4  -3   1   17.62    0.94
   4  -3  -1   17.69    0.97
   4   3  -1   17.46    0.91
  -4   3   1   18.81    0.81
   4   3  -1   19.04    0.89
   4   3  -1   17.71    0.97
  -4   3   1   16.59    0.89
   3  -3  -1   79.82    2.08
   3  -3  -1   80.82    2.02
   3  -3  -1   78.28    2.05
  -3  -3   1   83.13    2.10
  -3  -3   1   77.69    2.02
  -3  -3   1   78.67    2.02
   3   3  -1   77.36    2.03
   3   3  -1   79.95    2.04
   3   3  -1   80.72    2.03
  -3   3   1   76.54    2.00
   2  -3  -1   36.97    1.08
   2  -3  -1   34.40    1.03
  -2  -3   1   32.98    1.06
   2  -3  -1   33.88    0.97
  -2  -3   1   34.62    1.02
  -2  -3   1   34.75    0.73
  -2  -3   1   34.03    1.05
   2   3  -1   32.68    1.04
   2   3  -1   32.09    1.05
  -2   3   1   30.73    0.96
   2   3  -1   32.79    0.99
   2   3  -1   32.33    0.72
  -2   3   1   31.46    0.94
   1  -3  -1   16.42    0.49
  -1  -3   1   16.57    0.64
  -1  -3   1   15.93    0.54
   1  -3  -1   15.95    0.48
   1  -3  -1   16.41    0.57
  -1  -3   1   16.41    0.50
   1  -3  -1   15.92    0.62
  -1  -3   1   15.78    0.62
   1   3  -1   16.88    0.64
   1   3  -1   16.83    0.54
  -1   3   1   17.29    0.50
  -1   3   1   16.93    0.49
   1   3  -1   17.47    0.64
   1   3  -1   16.99    0.50
  -1   3   1   16.68    0.56
  -1   3   1   17.03    0.49
   0  -3  -1  644.86   11.72
   0  -3   1  654.31   12.08
   0  -3   1  656.84   12.51
   0  -3  -1  640.86   12.53
   0  -3   1  639.51   12.23
   0  -3  -1  644.34   11.73
   0  -3   1  649.28   11.88
   0  -3  -1  627.09   12.03
   0  -3   1  658.08   11.96
   0   3  -1  627.60   12.07
   0   3   1  673.89   12.09
   0   3  -1  653.76   12.39
   0   3  -1  632.99   12.42
   0   3  -1  657.65   12.30
   0   3   1  637.20   11.89
   0   3   1  629.59   12.14
   1  -3   1  101.92    2.25
   1  -3   1   98.89    2.07
  -1  -3  -1   99.26    2.25
   1  -3   1  100.92    2.07
  -1  -3  -1   97.15    2.24
   1  -3   1  101.24    2.21
  -1  -3  -1   99.81    2.20
   1   3   1  103.32    2.25
   1   3   1  101.95    2.21
  -1   3  -1  101.97    2.07
   1   3   1  102.91    2.27
  -1   3  -1  101.32    2.21
  -1   3  -1  101.60    1.91
  -1   3  -1  100.43    2.06
   2  -3   1    4.97    0.33
  -2  -3  -1    4.65    0.39
   2  -3   1    4.80    0.35
  -2  -3  -1    4.84    0.41
   2  -3   1    3.77    0.38
   2  -3   1    4.27    0.26
  -2  -3  -1    4.90    0.40
   2  -3   1    4.76    0.41
   2   3   1    3.93    0.37
   2   3   1    3.81    0.22
   2   3   1    4.08    0.35
   2   3   1    3.40    0.38
  -2   3  -1    3.63    0.37
  -2   3  -1    3.94    0.25
  -2   3  -1    3.74    0.25
   3  -3   1   16.25    0.72
  -3  -3  -1   14.83    0.77
   3  -3   1   14.83    0.52
   3  -3   1   16.97    0.69
   3  -3   1   16.09    0.54
   3  -3   1   14.69    0.81
   3  -3   1   17.05    0.78
  -3  -3  -1   15.57    0.77
  -3   3  -1   14.86    0.69
   3   3   1   14.53    0.80
  -3   3  -1   15.57    0.52
   3   3   1   15.95    0.44
  -3   3  -1   15.41    0.52
   3   3   1   15.46    0.77
   3   3   1   15.96    0.79
   4  -3   1   24.11    0.75
   4  -3   1   24.61    1.12
   4  -3   1   25.07    0.99
  -4  -3  -1   25.66    1.10
  -4  -3  -1   23.10    1.05
   4  -3   1   25.02    0.75
   4  -3   1   24.01    1.21
  -4   3  -1   24.10    0.98
   4   3   1   23.63    1.12
  -4   3  -1   24.58    0.74
  -4   3  -1   25.18    0.75
   4   3   1   25.03    1.21
   5  -3   1   39.66    1.41
  -5  -3  -1   38.64    1.51
   5  -3   1   37.90    1.72
   5  -3   1   37.19    1.58
   5   3   1   36.90    1.69
  -5   3  -1   38.17    1.03
   5   3   1   37.21    1.50
  -5   3  -1   37.90    1.01
  -5   3  -1   36.69    1.33
   5   3   1   38.02    1.62
  -6  -3  -1   19.94    1.14
   6  -3   1   20.65    1.29
   6  -3   1   19.39    1.41
  -6   3  -1   19.77    0.68
   6   3   1   20.69    1.32
  -6   3  -1   20.46    1.00
   6   3   1   20.81    1.40
  -7  -3  -1    5.40    0.94
  -7  -3  -1    5.49    0.75
   7  -3   1    4.88    0.89
   7  -3   1    5.27    0.96
   7   3   1    5.27    0.98
  -7   3  -1    5.44    0.93
   7   3   1    6.06    0.96
   7  -4  -1    0.37    0.52
   7  -4  -1    1.45    0.70
  -7  -4   1    1.05    0.41
  -7  -4   1    0.94    0.51
   7  -4  -1    0.86    0.49
   7   4  -1    0.44    0.51
  -7   4   1    1.44    0.61
   7   4  -1    1.16    0.51
   6  -4  -1    3.65    0.75
   6  -4  -1    4.79    0.76
   6  -4  -1    3.53    0.69
  -6  -4   1    2.96    0.66
  -6  -4   1    3.30    0.56
   6   4  -1    3.82    0.77
  -6   4   1    4.43    0.61
   6   4  -1    3.25    0.67
  -6   4   1    4.28    0.71
   5  -4  -1    5.65    0.73
  -5  -4   1    7.09    0.89
  -5  -4   1    5.71    0.67
  -5  -4   1    5.72    0.68
   5  -4  -1    4.60    0.70
   5  -4  -1    5.69    0.72
   5   4  -1    7.17    0.81
   5   4  -1    5.98    0.80
   5   4  -1    6.81    0.82
  -5   4   1    6.88    0.59
  -5   4   1    5.47    0.71
  -4  -4   1   43.32    1.51
   4  -4  -1   43.16    1.48
  -4  -4   1   41.92    1.49
   4  -4  -1   42.00    1.57
  -4  -4   1   43.80    1.56
   4  -4  -1   45.85    1.56
  -4   4   1   43.96    1.51
  -4   4   1   44.24    1.43
   4   4  -1   42.25    1.50
  -4   4   1   43.59    1.44
   4   4  -1   46.53    1.56
   3  -4  -1   31.51    1.16
  -3  -4   1   28.87    1.12
   3  -4  -1   30.47    1.14
  -3  -4   1   28.60    1.09
  -3  -4   1   31.11    1.14
   3  -4  -1   30.84    1.06
   3   4  -1   30.89    1.16
   3   4  -1   33.41    1.12
  -3   4   1   30.95    1.07
  -3   4   1   30.46    1.05
  -2  -4   1   17.51    0.78
   2  -4  -1   17.62    0.45
   2  -4  -1   17.65    0.73
   2  -4  -1   16.98    0.75
   2  -4  -1   17.17    0.44
  -2  -4   1   17.29    0.76
  -2  -4   1   16.74    0.68
   2  -4  -1   17.55    0.65
  -2  -4   1   17.37    0.50
  -2   4   1   17.15    0.66
   2   4  -1   18.81    0.78
   2   4  -1   17.94    0.78
   2   4  -1   17.39    0.50
  -2   4   1   17.34    0.45
  -2   4   1   17.75    0.44
  -2   4   1   18.04    0.64
   2   4  -1   19.44    0.70
  -1  -4   1   26.50    0.74
   1  -4  -1   25.30    0.78
  -1  -4   1   24.54    0.72
  -1  -4   1   26.62    0.89
   1  -4  -1   25.07    0.73
  -1  -4   1   26.43    0.77
  -1  -4   1   26.54    0.91
   1  -4  -1   24.78    0.72
   1  -4  -1   25.55    0.86
   1   4  -1   25.70    0.88
  -1   4   1   25.79    0.73
  -1   4   1   26.00    0.78
   1   4  -1   26.28    0.74
   1   4  -1   25.87    0.73
  -1   4   1   26.30    0.65
  -1   4   1   26.94    0.73
   1   4  -1   25.23    0.89
   0  -4   1   10.79    0.35
   0  -4  -1   11.69    0.53
   0  -4   1   10.44    0.49
   0  -4  -1    9.95    0.48
   0  -4  -1   11.10    0.32
   0  -4  -1   10.45    0.47
   0  -4  -1   10.78    0.50
   0  -4   1   10.77    0.50
   0  -4   1   11.95    0.38
   0  -4   1   11.47    0.50
   0   4   1    9.73    0.49
   0   4  -1   11.12    0.50
   0   4   1   10.90    0.50
   0   4  -1   11.06    0.35
   0   4  -1   10.53    0.36
   0   4   1   11.24    0.48
   0   4  -1   11.00    0.49
   0   4  -1   10.36    0.50
  -1  -4  -1   26.82    0.88
   1  -4   1   27.73    0.90
  -1  -4  -1   25.88    0.91
   1  -4   1   26.05    0.77
  -1  -4  -1   25.67    0.92
   1  -4   1   27.35    0.83
   1  -4   1   25.89    0.78
   1  -4   1   27.41    0.92
  -1   4  -1   26.26    0.89
  -1   4  -1   28.66    0.76
  -1   4  -1   27.35    0.62
   1   4   1   25.71    0.92
  -1   4  -1   25.66    0.78
  -1   4  -1   26.67    0.78
   1   4   1   27.53    0.89
   1   4   1   28.05    0.94
   2  -4   1  123.97    2.80
  -2  -4  -1  123.40    2.88
   2  -4   1  124.38    2.66
   2  -4   1  125.41    2.89
   2  -4   1  123.74    2.50
  -2  -4  -1  126.29    2.84
   2  -4   1  128.16    2.67
  -2  -4  -1  121.94    2.86
  -2   4  -1  123.54    2.49
   2   4   1  122.58    2.88
   2   4   1  124.31    2.87
   2   4   1  121.37    2.70
   2   4   1  122.87    2.44
  -2   4  -1  123.80    2.80
   2   4   1  122.58    2.82
  -2   4  -1  121.47    2.48
  -3  -4  -1   37.14    1.32
   3  -4   1   36.67    0.92
  -3  -4  -1   36.10    1.31
   3  -4   1   36.37    1.36
   3  -4   1   37.01    1.15
   3  -4   1   37.91    0.93
   3  -4   1   37.38    1.24
  -3   4  -1   37.03    0.91
   3   4   1   37.35    1.33
   3   4   1   37.68    1.28
  -3   4  -1   36.17    0.91
  -3   4  -1   36.12    1.23
   3   4   1   36.86    0.81
   4  -4   1  148.41    3.31
  -4  -4  -1  144.57    3.54
   4  -4   1  144.35    2.86
   4  -4   1  143.61    2.86
  -4  -4  -1  142.53    3.55
   4  -4   1  144.51    3.70
   4  -4   1  145.88    3.51
   4   4   1  148.68    3.71
   4   4   1  148.37    3.58
  -4   4  -1  149.25    2.85
  -4   4  -1  144.28    3.39
  -4   4  -1  142.60    2.84
   4   4   1  151.20    3.61
   5  -4   1   34.06    1.64
   5  -4   1   34.70    1.32
  -5  -4  -1   34.11    1.48
   5  -4   1   33.92    1.49
   5   4   1   30.88    1.56
   5   4   1   31.86    1.47
  -5   4  -1   31.55    1.29
   5   4   1   33.82    1.48
   6  -4   1    0.90    0.59
   6  -4   1    1.24    0.49
  -6  -4  -1    2.23    0.51
   6  -4   1    1.94    0.51
   6   4   1    2.10    0.63
   6   4   1    1.36    0.50
  -6   4  -1    1.46    0.40
  -7  -4  -1    0.72    0.43
  -7  -4  -1    1.14    0.55
   7  -4   1    0.72    0.48
   7  -4   1    1.71    0.70
   7   4   1    2.05    0.74
   7   4   1    1.48    0.57
  -7   4  -1    2.24    0.70
  -7  -5   1    2.69    0.72
  -7  -5   1    1.96    0.54
   7  -5  -1    1.55    0.57
   7  -5  -1    2.26    0.68
   7  -5  -1    1.92    0.73
  -7   5   1    2.57    0.68
   7   5  -1    2.07    0.66
  -7   5   1    1.76    0.53
   7   5  -1    2.78    0.79
   6  -5  -1    0.03    0.37
  -6  -5   1   -0.12    0.28
  -6  -5   1   -0.05    0.36
   6  -5  -1    0.72    0.45
   6  -5  -1    0.33    0.44
   6   5  -1   -0.60    0.36
  -6   5   1   -0.36    0.29
   6   5  -1    0.26    0.38
  -6   5   1   -0.19    0.24
  -6   5   1   -0.22    0.23
   5  -5  -1    8.00    0.93
   5  -5  -1   10.47    0.85
  -5  -5   1    9.44    0.81
   5  -5  -1    9.59    0.80
  -5  -5   1    8.02    0.85
  -5  -5   1    9.23    0.94
  -5   5   1   10.18    0.76
   5   5  -1    9.99    1.09
  -5   5   1   11.20    0.79
  -5   5   1    9.00    0.79
   5   5  -1    9.21    0.81
   5   5  -1    8.67    0.79
  -4  -5   1   31.98    1.31
  -4  -5   1   30.29    1.29
   4  -5  -1   32.34    1.24
   4  -5  -1   30.89    1.34
  -4  -5   1   32.05    1.33
   4  -5  -1   32.46    1.31
  -4   5   1   31.57    1.23
  -4   5   1   31.26    1.21
   4   5  -1   33.55    1.36
  -4   5   1   31.73    1.25
   4   5  -1   33.31    1.30
  -3  -5   1    8.95    0.59
   3  -5  -1    8.60    0.54
  -3  -5   1    8.23    0.62
   3  -5  -1    9.80    0.65
   3  -5  -1    9.99    0.66
  -3  -5   1    8.07    0.61
  -3   5   1    8.58    0.58
   3   5  -1    8.69    0.64
   3   5  -1    7.57    0.54
  -3   5   1    8.45    0.52
  -3   5   1    9.45    0.56
  -2  -5   1    2.68    0.42
   2  -5  -1    2.18    0.35
   2  -5  -1    1.79    0.32
  -2  -5   1    1.89    0.32
  -2  -5   1    2.14    0.30
   2  -5  -1    2.10    0.18
  -2  -5   1    1.79    0.30
   2  -5  -1    2.00    0.18
   2  -5  -1    2.21    0.30
   2  -5  -1    2.37    0.29
  -2   5   1    2.86    0.29
  -2   5   1    3.08    0.35
  -2   5   1    2.46    0.19
   2   5  -1    2.05    0.34
   2   5  -1    2.61    0.22
  -2   5   1    2.50    0.19
   2   5  -1    2.28    0.36
   2   5  -1    3.08    0.34
  -1  -5   1  101.80    2.13
   1  -5  -1  107.87    2.42
  -1  -5   1  102.70    2.21
   1  -5  -1  102.24    2.19
  -1  -5   1  104.39    2.42
  -1  -5   1  103.37    2.23
   1  -5  -1  103.93    2.25
  -1  -5   1  107.43    2.46
   1  -5  -1  104.43    2.32
   1  -5  -1  102.78    2.21
  -1   5   1  101.90    2.19
  -1   5   1   97.73    1.98
   1   5  -1  100.16    2.43
   1   5  -1   98.39    2.40
   1   5  -1   99.09    2.13
   1   5  -1  101.93    2.21
  -1   5   1   99.22    2.23
   0  -5  -1  447.74    8.22
   0  -5   1  440.98    8.34
   0  -5  -1  443.87    8.49
   0  -5   1  459.42    8.51
   0  -5   1  447.22    8.46
   0  -5   1  463.29    8.61
   0  -5  -1  452.49    8.52
   0  -5  -1  449.83    8.47
   0  -5  -1  449.95    8.41
   0  -5   1  451.50    8.46
   0   5   1  449.91    8.47
   0   5   1  432.85    9.26
   0   5  -1  454.13    8.34
   0   5  -1  449.58    8.49
   0   5  -1  458.20    8.46
   0   5  -1  449.30    8.48
   0   5   1  445.01    8.48
   0   5  -1  451.02    8.47
  -1  -5  -1    1.74    0.31
   1  -5   1    1.25    0.25
   1  -5   1    1.20    0.26
  -1  -5  -1    1.16    0.25
   1  -5   1    1.02    0.20
   1  -5   1    1.38    0.23
  -1  -5  -1    2.11    0.33
   1  -5   1    1.25    0.15
   1  -5   1    0.91    0.26
  -1   5  -1    0.79    0.16
   1   5   1    1.32    0.27
  -1   5  -1    1.07    0.14
  -1   5  -1    1.10    0.25
  -1   5  -1    0.81    0.18
   1   5   1    0.95    0.26
   1   5   1    0.80    0.23
  -1   5  -1    0.62    0.18
  -2  -5  -1   66.43    1.90
  -2  -5  -1   72.35    1.89
   2  -5   1   68.27    1.85
   2  -5   1   67.65    1.56
   2  -5   1   70.76    1.68
   2  -5   1   69.10    1.75
  -2  -5  -1   65.51    1.92
   2  -5   1   68.45    1.91
  -2   5  -1   68.53    1.86
   2   5   1   68.71    1.92
  -2   5  -1   69.57    1.52
   2   5   1   70.03    1.73
   2   5   1   69.62    1.94
  -2   5  -1   65.79    1.55
   2   5   1   68.43    1.86
  -2   5  -1   67.75    1.56
   3  -5   1    6.30    0.48
  -3  -5  -1    5.96    0.56
   3  -5   1    7.03    0.52
   3  -5   1    6.38    0.32
  -3  -5  -1    6.04    0.56
   3  -5   1    6.28    0.32
   3  -5   1    6.89    0.60
  -3   5  -1    5.61    0.39
   3   5   1    5.87    0.50
  -3   5  -1    6.50    0.32
  -3   5  -1    5.97    0.52
   3   5   1    6.04    0.27
  -3   5  -1    6.32    0.31
   4  -5   1   18.69    0.53
   4  -5   1   19.01    0.53
  -4  -5  -1   19.65    1.07
   4  -5   1   19.62    0.93
   4  -5   1   23.14    1.22
   4  -5   1   18.41    0.98
  -4  -5  -1   19.30    1.07
   4   5   1   19.13    1.11
  -4   5  -1   20.38    0.99
  -4   5  -1   18.76    0.51
  -4   5  -1   19.10    0.52
   4   5   1   20.36    1.04
   4   5   1   20.58    1.10
   5  -5   1    3.22    0.65
   5  -5   1    3.96    0.63
  -5  -5  -1    3.50    0.63
   5  -5   1    2.78    0.51
   5   5   1    3.16    0.64
   5   5   1    2.72    0.57
  -5   5  -1    3.55    0.57
   5   5   1    4.16    0.79
   6  -5   1   18.10    1.21
   6  -5   1   18.73    1.15
   6  -5   1   18.27    1.40
  -6  -5  -1   18.18    1.19
  -6  -5  -1   18.71    1.31
   6   5   1   18.83    1.36
  -6   5  -1   18.55    1.07
   6   5   1   17.70    1.23
  -7  -5  -1    2.19    0.70
   7  -5   1    2.10    0.75
  -7  -5  -1    2.86    0.66
   7  -5   1    1.48    0.60
   7   5   1    3.93    0.97
   7   5   1    3.38    0.79
  -7   5  -1    2.30    0.69
  -7  -6   1    5.97    1.04
   7  -6  -1    6.13    0.95
   7  -6  -1    6.29    1.07
   7  -6  -1    6.90    1.00
  -7  -6   1    4.74    0.80
   7   6  -1    6.06    1.11
   7   6  -1    3.42    0.77
  -7   6   1    6.28    0.91
  -7   6   1    6.09    0.96
   6  -6  -1    0.91    0.45
  -6  -6   1    0.40    0.35
   6  -6  -1    1.90    0.58
  -6  -6   1    0.76    0.46
   6  -6  -1    1.05    0.57
  -6   6   1    1.40    0.43
  -6   6   1    1.10    0.45
   6   6  -1    0.35    0.41
   6   6  -1    1.52    0.63
  -6   6   1    1.17    0.44
   5  -6  -1   65.43    2.30
  -5  -6   1   62.42    2.18
  -5  -6   1   65.26    2.23
   5  -6  -1   65.69    2.19
   5  -6  -1   64.68    2.09
   5   6  -1   60.28    2.19
   5   6  -1   61.42    2.12
  -5   6   1   66.58    2.14
  -5   6   1   64.75    2.04
  -5   6   1   62.26    2.06
   4  -6  -1  127.58    3.21
  -4  -6   1  120.46    3.13
  -4  -6   1  126.71    3.26
   4  -6  -1  121.78    3.24
   4  -6  -1  120.36    3.00
  -4  -6   1  122.54    3.25
   4   6  -1  124.41    3.27
  -4   6   1  122.72    2.99
   4   6  -1  121.64    3.08
  -4   6   1  124.33    3.03
  -4   6   1  118.65    3.09
   3  -6  -1   44.03    1.51
   3  -6  -1   44.48    1.51
  -3  -6   1   39.24    1.51
  -3  -6   1   43.09    1.54
   3  -6  -1   44.98    1.32
  -3  -6   1   41.94    1.38
  -3   6   1   43.24    1.30
  -3   6   1   43.24    1.33
   3   6  -1   41.96    1.34
   3   6  -1   43.07    1.56
   3   6  -1   42.53    0.96
  -3   6   1   41.52    1.44
  -2  -6   1   95.26    2.32
  -2  -6   1   92.46    2.45
   2  -6  -1   92.92    2.41
   2  -6  -1   95.87    2.24
   2  -6  -1   92.84    2.02
   2  -6  -1   95.37    2.09
   2  -6  -1   97.05    2.37
  -2  -6   1   92.66    2.19
  -2   6   1   95.68    2.06
  -2   6   1   95.25    2.00
   2   6  -1   96.47    2.16
   2   6  -1   94.67    2.46
   2   6  -1   96.56    2.50
  -2   6   1   96.69    2.22
   2   6  -1   97.73    2.07
  -2   6   1   94.85    2.02
   1  -6  -1   31.29    0.98
  -1  -6   1   31.66    1.13
  -1  -6   1   32.45    1.16
  -1  -6   1   31.05    0.85
  -1  -6   1   31.99    0.97
   1  -6  -1   31.59    0.97
   1  -6  -1   30.93    1.11
   1  -6  -1   31.50    0.98
  -1   6   1   32.18    0.99
  -1   6   1   28.82    0.95
   1   6  -1   31.39    1.13
   1   6  -1   32.73    0.87
   1   6  -1   30.62    0.97
  -1   6   1   31.59    0.97
   1   6  -1   32.21    1.16
  -1   6   1   30.56    0.69
   0  -6   1   43.35    1.07
   0  -6   1   43.26    1.29
   0  -6  -1   44.89    1.36
   0  -6  -1   41.86    1.30
   0  -6   1   44.53    0.99
   0  -6  -1   43.00    1.29
   0  -6   1   42.70    1.31
   0  -6  -1   44.50    1.25
   0  -6   1   44.28    1.29
   0   6  -1   42.56    0.98
   0   6  -1   43.50    1.30
   0   6   1   43.20    1.24
   0   6  -1   44.76    1.07
   0   6   1   42.53    1.29
   0   6  -1   41.43    1.30
   0   6  -1   42.55    1.27
   1  -6   1   96.26    2.26
   1  -6   1   97.08    2.37
  -1  -6  -1   96.20    2.28
   1  -6   1   93.07    2.15
  -1  -6  -1   91.04    2.34
   1  -6   1   95.12    1.91
  -1  -6  -1   92.49    2.38
   1  -6   1   94.89    2.32
   1  -6   1   93.05    2.18
  -1   6  -1   89.87    2.16
   1   6   1   94.91    2.37
  -1   6  -1   93.11    1.90
   1   6   1   93.30    2.26
  -1   6  -1   94.67    1.97
  -1   6  -1   92.95    2.15
  -1   6  -1   90.60    2.29
   2  -6   1   45.93    1.37
  -2  -6  -1   46.03    1.52
   2  -6   1   46.01    1.20
   2  -6   1   42.54    1.47
   2  -6   1   45.33    1.21
  -2  -6  -1   43.33    1.51
   2  -6   1   43.53    1.17
  -2   6  -1   42.83    1.42
   2   6   1   42.98    1.42
  -2   6  -1   43.19    1.16
  -2   6  -1   43.37    1.08
   2   6   1   45.43    1.28
  -2   6  -1   42.45    1.16
   3  -6   1   41.20    1.30
  -3  -6  -1   38.12    1.51
  -3  -6  -1   40.04    1.52
   3  -6   1   41.28    1.04
   3  -6   1   41.71    1.56
   3  -6   1   41.37    1.04
   3  -6   1   42.39    1.37
   3   6   1   41.23    0.98
   3   6   1   41.40    1.37
   3   6   1   38.77    1.53
  -3   6  -1   39.46    1.44
  -3   6  -1   40.54    1.02
  -3   6  -1   40.26    1.02
  -3   6  -1   40.66    1.15
  -4  -6  -1   37.32    1.56
   4  -6   1   37.20    1.39
   4  -6   1   36.01    1.34
   4  -6   1   36.43    1.58
   4   6   1   35.85    1.56
  -4   6  -1   34.89    1.42
   4   6   1   34.89    1.41
  -4   6  -1   34.89    1.20
   5  -6   1    6.50    0.73
  -5  -6  -1    6.55    0.82
   5  -6   1    6.58    0.93
   5  -6   1    6.73    0.82
   5   6   1    5.64    0.76
   5   6   1    5.90    0.78
   5   6   1    6.71    0.94
  -5   6  -1    6.38    0.74
  -5   6  -1    5.69    0.65
   6  -6   1    0.26    0.52
  -6  -6  -1    1.17    0.49
  -6  -6  -1    1.16    0.53
   6  -6   1    1.49    0.54
   6  -6   1    1.05    0.45
  -6   6  -1    1.08    0.41
   6   6   1    0.43    0.49
  -6   6  -1    1.83    0.50
   6   6   1    0.92    0.45
   7  -6   1   -0.27    0.47
   7  -6   1   -0.01    0.44
  -7  -6  -1    0.49    0.47
  -7  -6  -1    0.27    0.59
   7   6   1    0.46    0.56
   7   6   1    0.66    0.53
  -7   6  -1    0.15    0.44
  -7  -7   1    5.91    0.98
   7  -7  -1    7.36    1.17
   7  -7  -1    8.26    1.13
  -7  -7   1    5.90    0.90
   7  -7  -1    6.42    0.99
   7   7  -1    6.75    1.12
  -7   7   1    7.07    0.93
   7   7  -1    7.10    1.09
  -7   7   1    6.80    1.00
  -6  -7   1   11.01    1.18
   6  -7  -1    9.42    1.13
   6  -7  -1   12.01    1.18
  -6  -7   1   10.05    1.13
   6  -7  -1   11.75    1.06
   6   7  -1   10.56    1.18
  -6   7   1   11.25    0.89
  -6   7   1   10.69    1.05
   6   7  -1    8.16    1.11
  -6   7   1   10.38    0.92
   5  -7  -1    8.95    1.01
   5  -7  -1    9.76    1.01
  -5  -7   1    9.78    0.86
  -5  -7   1   10.21    0.92
   5  -7  -1    8.66    0.76
  -5   7   1    9.40    0.75
   5   7  -1    8.95    0.80
   5   7  -1    9.36    1.00
  -5   7   1    8.75    0.89
  -5   7   1    8.90    0.89
  -4  -7   1   21.91    1.11
   4  -7  -1   21.85    1.15
  -4  -7   1   22.47    1.20
   4  -7  -1   22.18    1.01
   4  -7  -1   21.14    1.16
  -4   7   1   21.91    1.12
   4   7  -1   20.74    1.03
  -4   7   1   20.80    0.98
  -4   7   1   22.48    1.02
   4   7  -1   20.39    1.17
  -3  -7   1   26.04    1.05
   3  -7  -1   26.70    1.19
   3  -7  -1   26.42    0.66
   3  -7  -1   26.53    1.18
   3  -7  -1   27.53    0.97
   3  -7  -1   26.52    0.65
  -3  -7   1   25.59    1.20
   3   7  -1   28.52    1.04
  -3   7   1   25.79    0.63
  -3   7   1   26.70    1.01
   3   7  -1   24.77    1.21
  -3   7   1   26.38    0.95
   3   7  -1   26.17    0.74
  -3   7   1   25.98    1.15
  -3   7   1   26.04    0.64
   2  -7  -1   18.54    0.93
  -2  -7   1   22.19    1.02
   2  -7  -1   19.34    0.67
   2  -7  -1   19.11    0.70
   2  -7  -1   18.78    0.80
   2  -7  -1   19.60    0.91
  -2  -7   1   19.57    0.87
  -2  -7   1   20.47    0.78
  -2   7   1   19.56    0.70
   2   7  -1   19.16    0.98
  -2   7   1   19.96    0.80
   2   7  -1   21.09    0.75
  -2   7   1   20.26    0.65
   2   7  -1   21.63    0.74
  -2   7   1   19.80    0.69
  -1  -7   1   36.38    1.11
   1  -7  -1   37.65    1.32
   1  -7  -1   35.30    1.14
  -1  -7   1   36.61    0.96
  -1  -7   1   36.24    1.33
   1  -7  -1   36.10    1.14
  -1  -7   1   40.17    1.35
   1  -7  -1   37.47    1.15
   1   7  -1   35.80    1.32
   1   7  -1   35.94    1.14
  -1   7   1   37.37    1.17
  -1   7   1   34.25    1.11
   1   7  -1   38.97    1.33
  -1   7   1   38.83    1.16
   0  -7   1   48.83    1.49
   0  -7   1   47.75    1.04
   0  -7   1   46.22    1.43
   0  -7   1   47.08    1.18
   0  -7  -1   45.55    1.47
   0  -7  -1   49.45    1.38
   0  -7   1   46.61    1.45
   0  -7  -1   47.85    1.46
   0  -7  -1   46.97    1.44
   0   7  -1   46.74    1.18
   0   7  -1   44.35    1.41
   0   7   1   45.84    1.42
   0   7   1   46.90    1.46
   0   7   1   46.48    1.35
   0   7  -1   44.73    1.43
   0   7  -1   45.68    1.04
   0   7  -1   45.17    1.40
  -1  -7  -1  158.10    3.55
   1  -7   1  164.38    3.59
   1  -7   1  163.63    3.47
   1  -7   1  160.06    3.48
  -1  -7  -1  164.81    3.68
  -1  -7  -1  165.57    3.70
   1  -7   1  160.81    3.16
  -1  -7  -1  168.87    3.92
  -1   7  -1  161.26    3.16
   1   7   1  163.90    3.70
   1   7   1  161.36    3.72
  -1   7  -1  159.05    3.47
  -1   7  -1  161.74    3.15
  -1   7  -1  151.25    3.59
   1   7   1  161.18    3.56
  -1   7  -1  156.20    3.44
  -2  -7  -1    8.69    0.69
   2  -7   1    9.29    0.66
   2  -7   1    8.88    0.48
   2  -7   1    8.34    0.48
   2  -7   1    8.77    0.59
  -2   7  -1    8.62    0.40
   2   7   1    9.39    0.52
   2   7   1    7.61    0.59
  -2   7  -1    8.04    0.47
   2   7   1    8.97    0.71
  -2   7  -1    8.37    0.45
  -2   7  -1    8.05    0.46
  -2   7  -1    7.94    0.62
   3  -7   1   45.03    1.53
   3  -7   1   45.55    1.19
   3  -7   1   49.08    1.45
   3  -7   1   43.23    1.68
   3  -7   1   46.06    1.19
  -3  -7  -1   46.13    1.72
  -3   7  -1   47.62    1.19
   3   7   1   46.93    1.49
  -3   7  -1   46.81    1.65
   3   7   1   47.48    1.16
  -3   7  -1   46.99    1.18
   3   7   1   48.59    1.79
  -3   7  -1   46.24    1.27
   4  -7   1    2.22    0.47
   4  -7   1    2.45    0.59
   4  -7   1    3.21    0.51
  -4  -7  -1    2.91    0.62
  -4   7  -1    2.63    0.52
   4   7   1    2.79    0.51
   4   7   1    2.34    0.56
  -4   7  -1    2.49    0.39
  -5  -7  -1   14.03    1.09
   5  -7   1   13.51    0.95
   5  -7   1   12.83    1.09
   5  -7   1   13.70    0.94
  -5   7  -1   15.96    1.05
   5   7   1   13.60    0.99
  -5   7  -1   13.72    0.82
   5   7   1   13.14    1.06
   5   7   1   15.02    1.21
  -6  -7  -1    3.47    0.71
   6  -7   1    2.97    0.70
  -6  -7  -1    3.50    0.77
   6  -7   1    1.22    0.66
   6  -7   1    2.13    0.62
  -6   7  -1    2.57    0.61
   6   7   1    2.85    0.77
  -6   7  -1    2.57    0.88
   6   7   1    2.40    0.65
   7  -8  -1    3.18    0.83
   7  -8  -1    3.25    0.91
  -7  -8   1    4.92    0.97
   7  -8  -1    4.02    0.84
   7   8  -1    2.94    0.76
  -7   8   1    3.81    0.77
   7   8  -1    3.54    0.90
   6  -8  -1    3.17    0.67
   6  -8  -1    2.13    0.61
  -6  -8   1    1.41    0.56
   6  -8  -1    1.72    0.62
  -6  -8   1    1.69    0.58
   6   8  -1    2.29    0.61
  -6   8   1    2.10    0.54
  -6   8   1    1.47    0.50
  -6   8   1    3.26    0.63
   6   8  -1    3.28    0.81
   5  -8  -1   19.01    1.07
   5  -8  -1   18.43    1.18
  -5  -8   1   18.17    1.14
   5  -8  -1   19.58    1.26
  -5  -8   1   15.98    1.17
   5   8  -1   19.09    1.26
  -5   8   1   15.94    0.99
  -5   8   1   18.98    1.02
  -5   8   1   18.93    1.15
   5   8  -1   16.60    1.06
  -4  -8   1   32.31    1.54
  -4  -8   1   35.49    1.45
   4  -8  -1   37.52    1.56
   4  -8  -1   34.64    1.30
   4  -8  -1   34.45    1.55
  -4   8   1   37.40    1.36
   4   8  -1   37.03    1.65
  -4   8   1   35.29    1.51
   4   8  -1   39.36    1.44
  -4   8   1   32.30    1.27
   3  -8  -1    7.66    0.70
   3  -8  -1    7.45    0.36
  -3  -8   1    7.97    0.73
   3  -8  -1    9.25    0.55
   3  -8  -1    7.62    0.70
   3  -8  -1    7.65    0.38
  -3  -8   1    7.16    0.56
  -3   8   1    7.82    0.36
   3   8  -1    7.70    0.56
  -3   8   1    7.75    0.56
  -3   8   1    7.53    0.49
  -3   8   1    7.57    0.37
  -3   8   1    7.79    0.79
   3   8  -1    7.91    0.42
   3   8  -1    8.67    0.76
   2  -8  -1    4.70    0.38
   2  -8  -1    5.58    0.42
   2  -8  -1    5.79    0.36
   2  -8  -1    5.91    0.55
  -2  -8   1    7.59    0.77
  -2  -8   1    5.99    0.43
   2  -8  -1    6.47    0.48
   2  -8  -1    6.13    0.67
   2   8  -1    8.22    0.83
  -2   8   1    5.68    0.45
  -2   8   1    5.11    0.31
   2   8  -1    5.58    0.42
  -2   8   1    5.00    0.38
  -2   8   1    5.82    0.65
  -2   8   1    5.90    0.42
   2   8  -1    5.28    0.39
  -1  -8   1    2.88    0.37
   1  -8  -1    2.51    0.36
   1  -8  -1    3.00    0.38
  -1  -8   1    3.33    0.26
   1  -8  -1    3.34    0.50
  -1  -8   1    3.21    0.49
  -1   8   1    3.75    0.44
   1   8  -1    4.17    0.54
   1   8  -1    3.23    0.51
  -1   8   1    2.95    0.39
   1   8  -1    3.04    0.40
  -1   8   1    3.71    0.43
   0  -8   1   81.34    1.83
   0  -8  -1   78.25    2.19
   0  -8  -1   76.98    2.12
   0  -8   1   80.91    2.20
   0  -8   1   76.50    2.11
   0  -8  -1   79.84    2.02
   0   8   1   74.86    2.10
   0   8  -1   78.71    2.10
   0   8   1   79.66    2.02
   0   8  -1   78.65    2.15
   0   8  -1   76.76    1.81
   0   8  -1   76.21    2.11
   0   8  -1   75.60    1.58
   0   8   1   76.53    2.14
   1  -8   1   93.58    2.02
  -1  -8  -1   92.89    2.52
   1  -8   1   94.22    2.33
  -1  -8  -1   96.32    2.55
   1  -8   1   96.04    2.46
   1   8   1   93.25    2.53
  -1   8  -1   91.94    2.32
  -1   8  -1   91.63    2.01
   1   8   1   92.17    2.56
  -1   8  -1   89.86    2.45
  -1   8  -1   93.78    2.35
   1   8   1   97.61    2.42
  -1   8  -1   93.89    1.93
   2  -8   1    4.09    0.42
  -2  -8  -1    4.51    0.62
   2  -8   1    4.45    0.58
   2  -8   1    4.53    0.55
  -2   8  -1    3.91    0.41
  -2   8  -1    3.29    0.28
  -2   8  -1    3.98    0.41
  -2   8  -1    2.34    0.44
   2   8   1    3.14    0.53
  -2   8  -1    3.56    0.31
   2   8   1    4.15    0.53
   3  -8   1   53.43    1.74
   3  -8   1   51.71    1.89
  -3  -8  -1   51.60    1.91
   3  -8   1   50.52    1.33
   3   8   1   50.78    1.31
   3   8   1   49.96    1.59
  -3   8  -1   52.34    1.83
  -3   8  -1   50.63    1.33
   3   8   1   50.82    1.93
   3   8   1   50.44    1.30
  -3   8  -1   49.94    1.36
  -3   8  -1   50.91    1.32
  -4  -8  -1   24.98    1.39
   4  -8   1   24.33    1.12
   4  -8   1   24.09    1.37
   4  -8   1   25.42    1.22
  -4   8  -1   25.85    0.98
   4   8   1   25.81    1.42
   4   8   1   23.60    1.17
  -4   8  -1   26.80    1.33
   5  -8   1   14.06    1.17
  -5  -8  -1   15.29    1.18
   5  -8   1   14.31    0.98
  -5  -8  -1   12.21    0.99
   5  -8   1   13.21    0.96
   5   8   1   12.51    1.09
   5   8   1   12.27    0.98
  -5   8  -1   13.90    1.04
  -5   8  -1   14.38    0.83
   6  -8   1    3.14    0.70
  -6  -8  -1    3.22    0.72
   6  -8   1    3.20    0.86
   6  -8   1    4.42    0.94
  -6  -8  -1    3.61    0.78
   6   8   1    3.23    0.70
  -6   8  -1    2.75    0.63
   6   8   1    2.92    0.74
  -6  -9   1   10.96    1.21
   6  -9  -1    7.62    1.04
   6  -9  -1    8.66    0.96
  -6  -9   1    9.41    1.14
   6  -9  -1   10.96    1.18
  -6   9   1   10.11    0.89
  -6   9   1   11.74    1.20
  -6   9   1   11.63    0.97
   6   9  -1   10.30    1.14
   5  -9  -1   11.14    1.16
  -5  -9   1   11.21    1.11
   5  -9  -1    9.64    1.11
  -5  -9   1   10.64    1.14
   5  -9  -1    9.96    0.81
  -5   9   1   10.66    1.08
  -5   9   1   10.35    0.82
   5   9  -1   11.62    1.08
   5   9  -1   10.73    0.87
  -5   9   1   10.46    0.79
   4  -9  -1   13.15    0.99
   4  -9  -1   10.71    0.97
   4  -9  -1   12.52    0.78
  -4  -9   1   11.71    0.84
  -4  -9   1   12.25    1.00
   4   9  -1   11.75    0.80
   4   9  -1   12.20    1.02
  -4   9   1   12.36    0.78
  -4   9   1   12.62    0.95
  -4   9   1   12.30    0.75
  -3  -9   1   30.18    1.43
   3  -9  -1   29.26    1.38
   3  -9  -1   29.98    1.37
   3  -9  -1   29.93    1.01
  -3  -9   1   28.99    1.13
   3  -9  -1   29.45    0.89
  -3   9   1   29.48    1.14
   3   9  -1   29.82    1.09
   3   9  -1   28.62    0.94
  -3   9   1   28.70    1.35
   3   9  -1   29.48    1.45
  -3   9   1   28.50    0.97
  -3   9   1   29.35    0.87
  -3   9   1   28.36    0.88
  -2  -9   1   39.31    1.57
   2  -9  -1   39.00    1.53
  -2  -9   1   38.03    1.16
   2  -9  -1   36.97    1.27
   2  -9  -1   39.40    1.18
   2  -9  -1   37.75    1.20
  -2   9   1   38.21    0.93
  -2   9   1   37.59    1.22
   2   9  -1   38.40    1.10
   2   9  -1   38.48    1.59
  -2   9   1   40.64    1.30
  -2   9   1   37.44    1.19
   2   9  -1   38.20    1.23
  -2   9   1   37.97    1.48
   1  -9  -1   32.56    1.14
  -1  -9   1   31.25    1.32
   1  -9  -1   32.86    1.18
  -1  -9   1   31.70    0.87
  -1  -9   1   31.01    1.10
   1  -9  -1   30.30    1.30
   1   9  -1   32.42    1.36
  -1   9   1   32.78    1.20
  -1   9   1   32.98    1.18
   1   9  -1   34.75    1.57
  -1   9   1   32.22    1.14
   1   9  -1   30.34    1.15
   0  -9  -1   31.58    1.26
   0  -9  -1   34.00    1.35
   0  -9   1   32.47    1.01
   0  -9   1   31.33    1.25
   0  -9   1   31.11    1.30
   0  -9  -1   36.61    1.69
   0   9   1   33.23    1.28
   0   9  -1   30.01    0.99
   0   9  -1   32.14    1.28
   0   9  -1   29.85    0.73
   0   9  -1   32.33    1.24
   0   9   1   30.86    1.15
   0   9  -1   32.33    1.26
   0   9   1   34.17    1.31
   1  -9   1   36.92    1.29
  -1  -9  -1   35.57    1.44
  -1  -9  -1   37.56    1.47
   1  -9   1   36.37    1.03
   1  -9   1   35.63    1.38
  -1  -9  -1   35.67    0.91
  -1   9  -1   36.64    1.03
  -1   9  -1   35.47    1.30
  -1   9  -1   36.80    1.29
  -1   9  -1   37.05    0.89
   1   9   1   37.12    1.48
   1   9   1   37.71    1.34
  -1   9  -1   37.56    1.42
  -2  -9  -1    5.36    0.41
   2  -9   1    4.38    0.58
   2  -9   1    5.59    0.68
   2  -9   1    5.53    0.46
  -2  -9  -1    5.37    0.69
  -2   9  -1    5.23    0.69
   2   9   1    5.52    0.45
  -2   9  -1    4.79    0.35
   2   9   1    4.43    0.60
  -2   9  -1    4.45    0.34
  -2   9  -1    5.72    0.47
   2   9   1    6.07    0.76
  -2   9  -1    5.02    0.44
   3  -9   1    8.82    0.80
  -3  -9  -1    8.37    0.61
   3  -9   1    7.69    0.70
  -3  -9  -1    9.41    0.99
  -3   9  -1    7.69    0.82
   3   9   1    7.49    0.47
  -3   9  -1    7.44    0.52
  -3   9  -1    7.19    0.47
   3   9   1    7.94    0.94
  -3   9  -1    7.53    0.47
  -3   9  -1    7.24    0.46
   4  -9   1    2.76    0.68
   4  -9   1    2.93    0.56
  -4  -9  -1    2.44    0.49
  -4  -9  -1    2.16    0.54
   4   9   1    2.45    0.57
   4   9   1    2.60    0.51
  -4   9  -1    3.48    0.45
  -4   9  -1    2.07    0.52
  -5  -9  -1    8.84    1.11
   5  -9   1    8.48    1.08
   5  -9   1    9.97    0.84
   5  -9   1   10.20    0.92
  -5  -9  -1   11.89    1.00
   5   9   1    8.91    1.05
  -5   9  -1   10.37    1.09
   5   9   1   11.30    0.95
   6  -9   1    4.08    1.15
   6  -9   1    1.33    0.70
   6  -9   1    1.68    0.55
  -6  -9  -1    2.77    0.72
  -6  -9  -1    1.44    0.61
  -6   9  -1    2.09    0.63
   6   9   1    1.48    0.67
  -6   9  -1    1.63    0.54
   6   9   1    1.12    0.52
   6 -10  -1    5.29    0.94
  -6 -10   1    5.41    0.98
   6 -10  -1    5.66    0.97
   6 -10  -1    5.95    0.87
  -6 -10   1    6.39    0.97
   6  10  -1    7.89    1.03
  -6  10   1    5.94    0.93
   5 -10  -1    4.19    0.65
  -5 -10   1    3.71    0.67
   5 -10  -1    3.77    0.75
  -5 -10   1    2.32    0.59
   5 -10  -1    3.35    0.71
  -5  10   1    4.15    0.61
   5  10  -1    3.79    0.74
  -5  10   1    2.77    0.64
   5  10  -1    3.13    0.60
  -5  10   1    4.03    0.62
   4 -10  -1    7.55    0.93
  -4 -10   1    7.91    0.71
   4 -10  -1    5.79    0.80
  -4 -10   1    8.05    1.00
   4 -10  -1    8.49    0.64
   4  10  -1    8.94    1.08
  -4  10   1    6.40    0.84
  -4  10   1    7.79    0.65
   4  10  -1    6.97    0.74
  -4  10   1    7.05    0.57
   3 -10  -1   18.95    1.14
  -3 -10   1   18.40    1.18
   3 -10  -1   19.35    0.79
   3 -10  -1   18.88    1.14
  -3 -10   1   18.03    0.89
   3  10  -1   19.33    1.25
   3  10  -1   19.97    0.88
  -3  10   1   21.69    0.77
  -3  10   1   19.93    1.17
   3  10  -1   19.67    0.80
  -3  10   1   20.16    0.77
  -3  10   1   20.42    0.95
  -3  10   1   19.87    0.75
   2 -10  -1   16.49    0.78
   2 -10  -1   15.70    1.01
  -2 -10   1   15.94    0.69
  -2 -10   1   14.94    1.01
  -2  10   1   15.92    0.81
   2  10  -1   16.47    0.65
  -2  10   1   15.90    0.81
  -2  10   1   15.49    0.76
   2  10  -1   16.21    0.80
   2  10  -1   15.51    1.06
  -2  10   1   16.14    1.00
   1 -10  -1    8.04    0.62
   1 -10  -1    8.35    0.73
  -1 -10   1    8.67    0.60
  -1 -10   1    8.77    0.40
  -1 -10   1    9.17    0.78
  -1  10   1    9.97    0.69
  -1  10   1    9.77    0.63
  -1  10   1    9.43    0.70
  -1  10   1    9.20    0.74
   1  10  -1    9.90    0.82
   1  10  -1    8.41    0.65
   0 -10  -1   28.34    1.29
   0 -10  -1   28.17    1.24
   0 -10   1   28.61    0.98
   0 -10   1   28.64    1.24
   0 -10   1   27.89    1.28
   0  10  -1   27.96    1.26
   0  10   1   26.82    1.11
   0  10   1   28.51    1.24
   0  10  -1   27.36    0.97
   0  10  -1   26.75    1.21
   0  10   1   28.04    1.21
   0  10  -1   26.60    1.19
   0  10   1   27.91    1.25
   1 -10   1   62.52    2.05
   1 -10   1   65.03    1.62
  -1 -10  -1   67.12    2.17
  -1 -10  -1   64.36    1.40
   1 -10   1   65.76    1.95
  -1 -10  -1   66.48    2.16
  -1 -10  -1   62.85    1.38
  -1  10  -1   63.48    1.96
  -1  10  -1   64.26    2.07
   1  10   1   65.76    1.98
   1  10   1   64.06    1.90
  -1  10  -1   63.63    1.61
   1  10   1   66.54    2.18
  -1  10  -1   65.68    1.94
   2 -10   1    2.89    0.54
  -2 -10  -1    2.15    0.53
  -2 -10  -1    2.34    0.33
  -2 -10  -1    2.42    0.54
   2 -10   1    2.37    0.40
  -2  10  -1    1.49    0.41
   2  10   1    1.88    0.46
  -2  10  -1    1.89    0.28
  -2  10  -1    1.83    0.36
  -2  10  -1    1.52    0.34
   2  10   1    1.74    0.34
   2  10   1    2.32    0.54
  -2  10  -1    1.99    0.27
  -3 -10  -1    1.75    0.52
  -3 -10  -1    1.65    0.36
   3 -10   1    1.63    0.50
   3 -10   1    1.80    0.49
   3  10   1    1.50    0.29
  -3  10  -1    1.01    0.34
  -3  10  -1    1.08    0.26
   3  10   1    1.66    0.50
  -3  10  -1    0.45    0.36
  -3  10  -1    1.38    0.29
  -4 -10  -1   27.98    1.30
   4 -10   1   27.69    1.55
  -4 -10  -1   27.89    1.58
   4 -10   1   28.74    1.42
  -4  10  -1   26.51    1.19
  -4  10  -1   26.72    0.76
  -4  10  -1   22.46    1.36
   4  10   1   29.33    1.63
   5 -10   1    7.72    1.05
  -5 -10  -1   14.31    1.26
  -5 -10  -1   13.41    1.04
   5 -10   1   11.13    1.01
   5  10   1   11.97    1.33
  -5  10  -1    9.60    1.08
   5  10   1   10.86    0.91
   6 -10   1    3.33    0.85
  -6 -10  -1    2.74    0.70
   6  10   1    2.18    0.77
   6  10   1    1.73    0.60
  -6  10  -1    4.37    0.84
   6 -11  -1    3.28    0.82
  -6 -11   1    3.74    0.78
   6 -11  -1    2.10    0.71
   6  11  -1    3.62    0.74
  -6  11   1    3.78    0.85
  -5 -11   1    0.93    0.53
  -5 -11   1    1.36    0.46
   5 -11  -1    1.11    0.55
   5 -11  -1    2.00    0.65
   5  11  -1    1.51    0.51
   5  11  -1    0.97    0.54
  -5  11   1    1.74    0.46
  -5  11   1    2.08    0.63
   4 -11  -1    4.73    0.80
   4 -11  -1    3.91    0.74
  -4 -11   1    2.84    0.52
  -4 -11   1    2.03    0.62
   4  11  -1    3.12    0.76
  -4  11   1    2.38    0.47
   4  11  -1    2.74    0.52
  -4  11   1    2.13    0.55
  -3 -11   1   20.15    0.94
  -3 -11   1   20.11    1.29
   3 -11  -1   18.44    1.20
   3 -11  -1   22.02    1.29
   3  11  -1   20.54    0.88
   3  11  -1   19.35    1.32
  -3  11   1   21.06    1.25
   3  11  -1   19.88    0.90
  -3  11   1   19.17    0.97
  -3  11   1   19.84    0.84
  -3  11   1   20.28    0.73
  -2 -11   1   21.36    0.81
   2 -11  -1   21.47    1.22
  -2 -11   1   22.61    1.30
   2 -11  -1   20.45    0.96
  -2  11   1   23.58    1.03
  -2  11   1   21.60    1.00
   2  11  -1   19.92    1.26
  -2  11   1   21.81    1.23
  -2  11   1   20.98    1.00
   2  11  -1   23.20    1.02
  -1 -11   1    2.55    0.23
  -1 -11   1    1.72    0.45
   1 -11  -1    2.75    0.57
   1 -11  -1    3.20    0.50
  -1 -11   1    1.98    0.49
   1  11  -1    3.35    0.54
   1  11  -1    2.29    0.53
  -1  11   1    2.42    0.47
  -1  11   1    2.00    0.42
  -1  11   1    2.92    0.58
  -1  11   1    2.51    0.44
   0 -11   1   41.11    1.68
   0 -11  -1   44.85    1.66
   0 -11   1   43.11    1.62
   0 -11   1   39.64    1.28
   0 -11  -1   39.23    1.67
   0  11   1   41.88    1.48
   0  11   1   41.71    1.65
   0  11  -1   40.40    1.30
   0  11   1   40.42    1.60
   0  11  -1   40.48    1.59
   0  11  -1   43.41    1.67
   0  11  -1   40.84    1.58
   0  11   1   42.30    1.59
  -1 -11  -1   99.68    2.91
   1 -11   1   98.40    2.67
   1 -11   1   96.03    2.28
   1 -11   1   95.05    2.81
  -1 -11  -1  100.92    2.94
  -1  11  -1   99.47    2.30
  -1  11  -1  101.05    2.85
   1  11   1   99.79    2.95
   1  11   1   95.54    2.62
  -1  11  -1   96.83    2.70
  -1  11  -1   98.26    2.67
   1  11   1  100.33    2.71
  -2 -11  -1   29.05    1.50
  -2 -11  -1   29.16    0.96
  -2 -11  -1   27.35    1.43
   2 -11   1   28.35    1.16
   2 -11   1   27.83    1.36
   2  11   1   29.09    1.51
  -2  11  -1   28.94    0.95
   2  11   1   30.44    1.19
  -2  11  -1   29.27    1.44
  -2  11  -1   29.57    1.20
   2  11   1   26.77    1.29
  -3 -11  -1   10.77    0.70
   3 -11   1   11.88    1.01
  -3 -11  -1   11.09    1.14
   3 -11   1   10.31    0.93
   3  11   1   10.64    0.64
  -3  11  -1   10.20    0.65
  -3  11  -1   10.49    0.58
  -3  11  -1   11.64    0.99
   3  11   1   10.01    1.07
  -4 -11  -1    4.45    0.83
   4 -11   1    4.85    0.76
   4 -11   1    4.89    0.88
  -4 -11  -1    5.73    0.72
   4  11   1    5.81    0.94
  -4  11  -1    5.25    0.36
  -4  11  -1    5.42    0.88
   5 -11   1    6.56    0.95
  -5 -11  -1    5.37    0.97
  -5 -11  -1    5.78    0.83
   5 -11   1    4.15    0.85
  -5  11  -1    4.98    0.85
   5  11   1    4.63    0.88
  -5 -12   1    5.28    0.94
   5 -12  -1    3.75    0.84
  -5 -12   1    5.20    0.79
   5 -12  -1    6.08    0.98
   5  12  -1    6.16    0.81
  -5  12   1    7.09    1.07
   5  12  -1    4.66    0.92
   4 -12  -1   12.23    1.25
  -4 -12   1   12.52    1.17
  -4 -12   1   10.76    0.82
   4 -12  -1   13.56    1.17
  -4  12   1   13.91    1.15
  -4  12   1   11.40    0.83
   4  12  -1   15.40    1.54
  -3 -12   1    7.29    0.59
  -3 -12   1    6.10    0.86
   3 -12  -1    6.82    0.87
  -3  12   1    8.50    0.67
   3  12  -1    8.69    0.62
  -3  12   1    8.61    0.61
   3  12  -1    8.02    1.01
  -3  12   1    7.43    0.90
  -2 -12   1   25.54    1.47
  -2 -12   1   29.58    0.95
   2 -12  -1   29.38    1.51
   2  12  -1   29.02    1.23
  -2  12   1   28.20    1.47
  -2  12   1   28.97    1.21
  -2  12   1   28.08    1.22
   2  12  -1   29.51    1.59
  -1 -12   1   12.77    1.01
   1 -12  -1   12.34    0.86
   1 -12  -1   12.19    1.02
  -1 -12   1   12.26    1.01
   1  12  -1   13.31    0.89
  -1  12   1   11.82    1.36
  -1  12   1   12.99    0.98
  -1  12   1   10.79    0.86
  -1  12   1   13.37    0.82
   1  12  -1   11.43    0.99
   0 -12   1   18.70    1.20
   0 -12  -1   19.95    1.13
   0 -12   1   18.25    0.92
   0 -12   1   20.87    1.14
   0 -12  -1   20.04    1.24
   0  12   1   19.87    1.12
   0  12   1   17.90    0.99
   0  12  -1   20.59    1.14
   0  12  -1   20.43    1.19
   0  12   1   18.67    1.15
   0  12  -1   18.56    0.86
  -1 -12  -1   10.63    0.94
  -1 -12  -1    8.56    0.97
   1 -12   1   10.19    0.80
   1 -12   1    9.19    0.85
   1  12   1    8.88    0.76
  -1  12  -1    9.26    0.57
   1  12   1    9.00    0.97
   1  12   1    9.11    0.77
  -1  12  -1   11.43    1.09
  -1  12  -1    8.88    0.80
  -2 -12  -1    5.79    0.48
  -2 -12  -1    4.96    0.78
  -2 -12  -1    3.55    0.70
   2 -12   1    4.72    0.76
  -2  12  -1    5.41    0.65
   2  12   1    4.64    0.67
  -2  12  -1    5.15    0.79
  -2  12  -1    4.72    0.41
   2  12   1    5.60    0.90
   2  12   1    4.91    0.60
  -3 -12  -1    0.36    0.41
   3 -12   1   -0.14    0.37
  -3 -12  -1    0.03    0.37
  -3 -12  -1   -0.01    0.20
  -3  12  -1   -0.26    0.36
   3  12   1   -0.14    0.36
  -3  12  -1    0.03    0.21
   3  12   1    0.15    0.22
   4 -12   1   11.81    1.04
  -4 -12  -1   12.04    1.36
  -4 -12  -1   10.67    0.87
   4 -12   1    8.97    1.13
   4  12   1   11.45    1.34
  -4  12  -1   11.23    1.21
   5 -12   1    6.53    1.04
  -5 -12  -1    5.91    0.97
   5 -12   1    7.31    1.04
   5  12   1    4.64    0.91
  -5  12  -1    4.07    0.84
  -5 -13   1    2.72    0.99
   5 -13  -1    4.54    0.95
   5 -13  -1    2.76    0.82
   5  13  -1    3.23    0.79
  -5  13   1    2.68    0.79
  -4 -13   1    0.86    0.59
   4 -13  -1    1.12    0.59
   4  13  -1    1.36    0.63
  -4  13   1    0.80    0.53
  -3 -13   1    7.71    1.07
   3 -13  -1    8.18    1.06
  -3  13   1    6.64    0.73
   3  13  -1    7.95    1.01
   3  13  -1    7.77    1.13
  -3  13   1    7.45    0.62
  -3  13   1    8.04    1.04
   2 -13  -1   12.06    1.08
  -2 -13   1   11.17    1.05
  -2  13   1   11.30    1.13
  -2  13   1   11.45    0.84
  -2  13   1   11.20    0.79
   2  13  -1   11.51    0.82
   2  13  -1   10.97    1.19
   1 -13  -1   15.61    1.01
   1 -13  -1   16.51    1.22
  -1 -13   1   16.63    1.19
  -1 -13   1   16.71    1.16
  -1  13   1   16.40    1.08
   1  13  -1   16.97    1.05
  -1  13   1   15.41    0.93
   1  13  -1   17.78    1.23
  -1  13   1   16.80    1.14
   0 -13   1   33.41    1.53
   0 -13  -1   29.53    1.60
   0 -13   1   33.49    1.64
   0 -13  -1   30.91    1.50
   0  13   1   28.48    1.31
   0  13   1   30.88    1.46
   0  13  -1   29.13    1.49
   0  13  -1   30.50    1.17
   0  13   1   31.09    1.54
   0  13  -1   29.70    1.46
   1 -13   1   10.75    0.85
   1 -13   1   10.26    1.08
  -1 -13  -1   11.35    1.14
  -1 -13  -1    7.57    0.93
   1  13   1   10.68    0.99
  -1  13  -1    9.94    0.62
  -1  13  -1   10.83    1.12
   1  13   1    9.29    0.83
  -1  13  -1    9.09    0.84
   1  13   1   10.59    0.85
   2 -13   1   13.87    1.09
  -2 -13  -1   13.56    1.15
  -2 -13  -1   14.63    1.18
  -2  13  -1   12.60    1.08
  -2  13  -1   14.21    0.93
   2  13   1   15.02    0.92
   2  13   1   13.78    1.02
   2  13   1   13.77    1.19
   3 -13   1    0.27    0.43
  -3 -13  -1    0.29    0.43
  -3 -13  -1   -0.05    0.38
  -3  13  -1   -0.49    0.31
  -3  13  -1    0.21    0.26
   3  13   1    0.00    0.39
   4 -13   1    3.39    0.76
   4 -13   1    2.02    0.71
  -4 -13  -1    4.62    0.92
   4  13   1    4.09    0.90
  -4  13  -1    4.30    0.90
   5 -13   1    2.63    0.76
   5 -13   1    2.40    0.75
   5  13   1    2.38    0.83
   4 -14  -1    2.64    0.71
  -4 -14   1    3.55    0.79
  -4  14   1    2.73    0.72
   4  14  -1    3.01    0.78
   3 -14  -1   14.54    1.26
  -3 -14   1   14.56    1.29
   3  14  -1   15.28    1.36
  -3  14   1   14.82    1.26
  -3  14   1   15.33    0.91
  -2 -14   1    6.16    0.96
   2 -14  -1    4.75    0.82
  -2 -14   1    4.99    0.84
  -2  14   1    5.53    0.72
  -2  14   1    6.33    0.90
   2  14  -1    6.25    0.75
   2  14  -1    6.55    0.97
  -2  14   1    6.67    0.75
  -1 -14   1   12.00    1.28
   1 -14  -1    8.51    1.04
  -1 -14   1   10.98    1.02
   1  14  -1    9.41    1.05
   1  14  -1    9.68    0.86
  -1  14   1   10.26    1.07
  -1  14   1   10.47    1.05
  -1  14   1   10.67    0.81
   0 -14  -1    2.91    0.69
   0 -14   1    4.32    0.70
   0 -14   1    4.45    0.82
   0 -14  -1    4.68    0.76
   0  14  -1    4.57    0.75
   0  14   1    3.15    0.58
   0  14   1    4.94    0.76
   0  14  -1    3.30    0.66
   0  14  -1    3.54    0.50
   0  14   1    5.99    0.87
   1 -14   1    7.23    0.99
  -1 -14  -1    5.85    0.93
  -1 -14  -1    4.76    0.82
   1  14   1    5.45    0.78
   1  14   1    5.82    0.86
  -1  14  -1    6.94    0.90
  -1  14  -1    6.50    0.92
   1  14   1    7.18    0.84
  -2 -14  -1    4.48    0.83
  -2 -14  -1    4.53    0.87
   2 -14   1    5.55    0.89
   2  14   1    4.26    0.80
   2  14   1    4.33    0.73
  -2  14  -1    4.43    0.83
   2  14   1    4.98    0.68
  -2  14  -1    4.58    0.67
  -3 -14  -1    4.07    0.82
  -3 -14  -1    4.40    0.91
   3 -14   1    4.99    0.84
   3  14   1    4.11    0.84
  -3  14  -1    3.46    0.77
  -3  14  -1    3.82    0.57
  -4 -14  -1   13.24    1.45
  -4 -14  -1   13.28    1.48
   4 -14   1   14.24    1.27
   4  14   1   11.57    1.39
  -4  14  -1    9.93    1.21
  -4 -15   1    0.28    0.52
   4 -15  -1   -0.56    0.46
   4  15  -1    0.06    0.57
   3 -15  -1    0.23    0.53
  -3 -15   1    0.85    0.59
  -3 -15   1    0.46    0.49
   3  15  -1   -0.74    0.39
  -3  15   1    0.50    0.54
  -3  15   1    0.11    0.30
   2 -15  -1    1.75    0.71
  -2 -15   1    0.02    0.45
  -2 -15   1    0.74    0.48
  -2  15   1    1.26    0.46
  -2  15   1   -0.26    0.44
   2  15  -1    0.67    0.52
   2  15  -1    1.28    0.46
  -2  15   1    1.46    0.50
  -1 -15   1    7.84    1.08
  -1 -15   1    9.12    1.11
   1 -15  -1    5.99    0.95
  -1  15   1    8.80    0.90
   1  15  -1    9.25    1.16
  -1  15   1    7.03    0.92
   1  15  -1    8.07    0.93
  -1  15   1    5.83    0.88
   0 -15   1    4.51    0.94
   0 -15  -1    5.90    0.98
   0 -15   1    5.54    0.90
   0 -15  -1    5.06    0.93
   0  15   1    5.38    0.74
   0  15   1    4.97    0.80
   0  15  -1    5.48    0.88
   0  15   1    6.64    0.93
   0  15  -1    7.16    0.97
  -1 -15  -1    2.56    0.75
  -1 -15  -1    2.47    0.64
   1 -15   1    1.54    0.66
   1  15   1    3.06    0.64
   1  15   1    3.82    0.78
  -1  15  -1    2.50    0.64
   1  15   1    1.84    0.57
  -1  15  -1    1.57    0.57
  -2 -15  -1    2.00    0.70
  -2 -15  -1    1.87    0.65
   2 -15   1    2.17    0.69
  -2  15  -1    3.43    0.65
   2  15   1    2.45    0.73
   2  15   1    2.07    0.53
  -2  15  -1    3.38    0.78
   3 -15   1    0.49    0.56
  -3 -15  -1    0.72    0.60
  -3 -15  -1    1.29    0.62
  -3  15  -1    1.33    0.64
   3  15   1    0.50    0.57
  -3  15  -1    0.43    0.35
   3 -16  -1   12.02    1.43
  -3 -16   1   14.16    1.60
  -3 -16   1   10.55    1.34
   3  16  -1   13.17    2.43
  -3  16   1   12.38    0.94
   2 -16  -1    2.83    0.78
  -2 -16   1    1.56    0.67
  -2 -16   1    4.48    0.94
   2  16  -1    3.51    0.67
  -2  16   1    1.67    0.65
  -2  16   1    4.51    0.73
   2  16  -1    2.99    0.84
  -1 -16   1    0.63    0.46
  -1 -16   1    0.05    0.42
   1 -16  -1    0.58    0.50
   1  16  -1    0.28    0.42
  -1  16   1    0.07    0.33
   1  16  -1    0.21    0.46
  -1  16   1   -0.14    0.36
  -1  16   1    0.61    0.46
   0 -16   1    0.84    0.53
   0 -16  -1    1.71    0.70
   0  16   1    1.16    0.55
   0  16   1    1.45    0.58
   0  16   1    1.00    0.47
   0  16  -1    1.68    0.58
   0  16  -1    1.11    0.54
  -1 -16  -1    1.00    0.61
  -1 -16  -1    3.11    0.79
   1 -16   1    1.13    0.59
   1  16   1    1.37    0.63
   1  16   1    1.60    0.52
   1  16   1    0.97    0.49
  -1  16  -1    2.36    0.68
  -1  16  -1    0.98    0.51
  -2 -16  -1    7.22    1.07
   2 -16   1    6.24    1.00
  -2 -16  -1    6.24    1.12
   2  16   1    5.92    1.05
  -2  16  -1    9.18    1.27
  -2  16  -1    7.42    0.94
  -3 -16  -1    5.51    1.00
   3 -16   1    6.75    1.12
  -3 -16  -1    5.23    0.95
  -3  16  -1    6.81    0.80
  -2 -17   1    1.19    0.61
  -2 -17   1    0.76    0.63
   2 -17  -1    1.72    0.74
  -2  17   1    0.88    0.50
  -1 -17   1    5.32    0.97
   1 -17  -1    5.46    1.02
   1  17  -1    6.88    0.97
  -1  17   1    6.11    0.98
  -1  17   1    5.20    0.84
   0 -17   1    5.75    1.05
   0 -17  -1    5.37    0.99
   0  17  -1    8.65    1.27
   0  17  -1    6.95    1.03
   0  17   1    7.61    1.08
   0  17   1    6.65    1.17
  -1 -17  -1    1.00    0.60
   1 -17   1    1.05    0.69
  -1  17  -1    1.79    0.62
   1  17   1    1.52    0.59
   1  17   1    0.57    0.42
  -1  17  -1    1.63    0.65
   2 -17   1    0.11    0.53
  -2 -17  -1    0.50    0.62
  -2 -17  -1    0.45    0.53
  -7   0   2    1.82    0.33
   7   0  -2    1.86    0.64
  -7   0   2    2.83    0.72
   7   0  -2    2.06    0.61
   6   0  -2    0.31    0.41
  -6   0   2    0.34    0.19
  -6   0   2    0.47    0.35
   6   0  -2    0.10    0.36
  -5   0   2    0.96    0.23
   5   0  -2    0.98    0.40
  -5   0   2    1.14    0.25
   5   0  -2    0.69    0.37
  -5   0   2    0.98    0.38
   5   0  -2    1.03    0.24
  -5   0   2    0.82    0.21
   4   0  -2  156.23    3.61
  -4   0   2  152.43    3.62
   4   0  -2  158.56    3.23
   4   0  -2  148.72    3.59
  -4   0   2  153.63    3.21
   4   0  -2  145.84    3.56
   4   0  -2  153.29    3.22
  -3   0   2  235.33    4.67
   3   0  -2  237.37    4.66
   3   0  -2  234.62    4.93
   3   0  -2  243.65    4.99
  -3   0   2  237.50    4.65
   3   0  -2  240.93    4.66
   3   0  -2  242.29    4.89
  -3   0   2  240.25    4.96
   2   0  -2  429.18    8.30
  -2   0   2  420.11    8.35
  -2   0   2  444.51    8.13
  -2   0   2  437.75    8.08
   2   0  -2  450.90    8.29
   2   0  -2  440.11    8.28
  -2   0   2  443.61    8.28
   2   0  -2  457.33    8.13
   2   0  -2  428.37    8.11
  -1   0   2  445.10    8.09
  -1   0   2  444.31    8.11
  -1   0   2  425.44    8.40
   1   0  -2  439.52    8.10
   1   0  -2  436.53    8.44
   1   0  -2  437.53    8.08
  -1   0   2  444.64    8.36
   1   0  -2  449.83    8.12
   1   0  -2  452.97    8.14
  -1   0   2  424.82    8.08
   0   0   2    7.34    0.39
   0   0   2    6.97    0.36
   0   0  -2    7.15    0.37
   0   0  -2    7.15    0.38
   0   0  -2    7.63    0.32
   0   0  -2    7.39    0.39
   0   0  -2    7.36    0.37
   0   0   2    6.36    0.37
   0   0   2    7.74    0.33
   1   0   2   50.17    1.29
  -1   0  -2   49.86    1.18
  -1   0  -2   48.69    1.29
   1   0   2   50.37    1.19
   1   0   2   49.70    1.29
  -1   0  -2   50.13    1.30
   1   0   2   51.47    1.24
  -1   0  -2   50.71    1.24
  -1   0  -2   50.62    1.29
   2   0   2   43.39    1.29
  -2   0  -2   42.54    1.14
   2   0   2   42.10    1.14
   2   0   2   42.84    1.23
  -2   0  -2   42.80    1.18
  -2   0  -2   42.78    1.22
   2   0   2   43.08    1.22
  -2   0  -2   42.07    1.22
  -3   0  -2   24.44    0.92
   3   0   2   24.36    0.93
  -3   0  -2   26.46    0.97
   3   0   2   23.83    1.01
   3   0   2   25.72    1.07
  -3   0  -2   24.43    0.93
   3   0   2   25.01    0.85
   3   0   2   26.13    1.00
  -3   0  -2   23.96    0.83
   4   0   2    2.29    0.38
  -4   0  -2    2.61    0.35
   4   0   2    3.50    0.57
   4   0   2    2.16    0.49
  -4   0  -2    2.51    0.39
  -4   0  -2    2.89    0.41
   4   0   2    2.91    0.37
  -5   0  -2   29.32    1.03
   5   0   2   26.92    1.45
   5   0   2   28.74    1.42
  -5   0  -2   29.73    1.19
   5   0   2   30.52    1.39
   6   0   2   15.61    1.18
   6   0   2   15.57    1.24
  -6   0  -2   15.72    0.90
   7   0   2    3.66    0.88
  -7   0  -2    6.27    0.70
   7   0   2    6.34    1.04
   7  -1  -2    4.71    0.87
  -7  -1   2    4.32    0.81
  -7  -1   2    4.62    0.55
   7  -1  -2    4.39    0.78
  -7   1   2    4.39    0.86
   7   1  -2    6.09    0.95
   7   1  -2    6.57    1.03
  -6  -1   2    2.18    0.60
  -6  -1   2    1.57    0.34
   6  -1  -2    2.45    0.59
   6  -1  -2    1.56    0.58
  -6   1   2    2.14    0.35
  -6   1   2    1.97    0.27
   6   1  -2    1.92    0.51
   6   1  -2    1.83    0.58
  -6   1   2    1.83    0.52
  -5  -1   2    7.50    0.54
   5  -1  -2    7.72    0.85
   5  -1  -2    7.04    0.79
  -5  -1   2    8.91    0.57
   5  -1  -2    9.16    0.47
  -5  -1   2    8.81    0.40
  -5  -1   2    8.82    0.41
   5  -1  -2    9.08    0.91
  -5  -1   2    7.82    0.71
   5   1  -2    8.09    0.73
  -5   1   2    8.12    0.44
   5   1  -2    8.54    0.78
  -5   1   2    8.32    0.75
  -5   1   2    8.13    0.45
  -5   1   2    8.42    0.52
   5   1  -2    7.52    0.55
  -4  -1   2    6.49    0.58
   4  -1  -2    5.11    0.57
  -4  -1   2    6.81    0.47
   4  -1  -2    7.14    0.63
   4  -1  -2    6.45    0.37
   4  -1  -2    6.61    0.57
  -4  -1   2    6.08    0.33
   4   1  -2    6.17    0.65
  -4   1   2    6.47    0.67
   4   1  -2    7.15    0.71
  -4   1   2    6.03    0.35
   4   1  -2    6.21    0.46
   3  -1  -2   72.13    1.59
   3  -1  -2   72.27    1.87
   3  -1  -2   73.59    1.91
  -3  -1   2   70.50    1.73
   3  -1  -2   69.93    1.94
  -3  -1   2   72.71    1.77
  -3  -1   2   71.88    1.57
  -3  -1   2   69.65    1.91
  -3   1   2   68.73    1.58
   3   1  -2   71.61    1.74
   3   1  -2   72.12    1.89
  -3   1   2   68.92    1.88
   3   1  -2   70.76    1.90
  -3   1   2   68.96    1.59
   3   1  -2   67.39    1.73
  -2  -1   2   15.94    0.62
  -2  -1   2   15.46    0.53
   2  -1  -2   15.27    0.53
   2  -1  -2   15.68    0.54
  -2  -1   2   16.57    0.68
  -2  -1   2   16.06    0.63
   2  -1  -2   15.70    0.65
   2  -1  -2   16.53    0.67
   2  -1  -2   16.44    0.70
   2   1  -2   16.64    0.63
  -2   1   2   16.19    0.66
  -2   1   2   16.17    0.54
   2   1  -2   15.74    0.69
  -2   1   2   16.08    0.66
   2   1  -2   17.21    0.69
   2   1  -2   14.76    0.61
   2   1  -2   15.52    0.65
  -2   1   2   15.26    0.53
   1  -1  -2  594.36   10.86
   1  -1  -2  617.15   11.17
   1  -1  -2  630.60   10.98
  -1  -1   2  590.63   10.94
   1  -1  -2  606.59   10.88
   1  -1  -2  597.05   11.77
  -1  -1   2  611.28   10.87
  -1  -1   2  584.64   10.93
   1  -1  -2  599.32   11.35
  -1   1   2  578.96   11.34
  -1   1   2  606.21   11.85
   1   1  -2  592.36   11.27
   1   1  -2  591.92   10.93
  -1   1   2  578.30   11.65
   1   1  -2  620.53   11.16
  -1   1   2  586.86   11.42
   1   1  -2  571.93   10.92
  -1   1   2  593.05   11.09
   1   1  -2  627.17   11.12
   1   1  -2  586.96   10.94
   0  -1   2  170.54    3.40
   0  -1  -2  172.10    3.41
   0  -1  -2  167.14    3.35
   0  -1   2  172.94    3.37
   0  -1  -2  175.76    3.34
   0  -1   2  173.34    3.20
   0  -1  -2  167.17    3.39
   0  -1   2  170.19    3.40
   0  -1  -2  168.67    3.34
   0  -1   2  172.56    3.37
   0   1   2  168.43    3.35
   0   1  -2  165.92    3.39
   0   1   2  169.99    3.32
   0   1   2  174.61    3.41
   0   1  -2  172.74    3.40
   0   1  -2  172.92    3.20
   0   1  -2  167.62    3.36
   0   1  -2  170.92    3.36
   0   1   2  172.03    3.35
   0   1   2  164.61    3.39
   1  -1   2  132.13    2.78
   1  -1   2  135.86    2.62
  -1  -1  -2  134.13    2.73
  -1  -1  -2  133.93    2.85
  -1  -1  -2  139.00    2.84
  -1  -1  -2  135.57    2.86
  -1  -1  -2  135.18    2.76
   1  -1   2  135.88    2.80
   1  -1   2  131.53    2.79
   1   1   2  132.01    2.84
  -1   1  -2  133.72    2.79
  -1   1  -2  131.71    2.82
   1   1   2  134.66    2.86
  -1   1  -2  132.26    2.78
  -1   1  -2  137.55    2.62
   1   1   2  132.50    2.75
  -1   1  -2  137.69    2.80
   1   1   2  135.33    2.73
  -2  -1  -2    1.53    0.22
  -2  -1  -2    1.34    0.25
   2  -1   2    1.50    0.26
  -2  -1  -2    1.41    0.26
   2  -1   2    0.97    0.20
   2  -1   2    1.45    0.29
   2  -1   2    1.07    0.22
  -2  -1  -2    1.31    0.26
  -2   1  -2    1.76    0.27
   2   1   2    1.38    0.26
   2   1   2    1.56    0.29
   2   1   2    1.38    0.25
  -2   1  -2    1.64    0.26
   2   1   2    1.55    0.29
  -2   1  -2    1.50    0.25
   2   1   2    1.49    0.22
  -2   1  -2    1.41    0.22
   3  -1   2    5.50    0.43
  -3  -1  -2    4.64    0.42
  -3  -1  -2    5.34    0.46
   3  -1   2    5.40    0.57
  -3  -1  -2    5.49    0.36
   3  -1   2    5.60    0.52
   3  -1   2    5.25    0.41
  -3  -1  -2    5.38    0.46
   3  -1   2    6.00    0.43
   3   1   2    4.76    0.55
   3   1   2    4.06    0.49
   3   1   2    5.38    0.47
  -3   1  -2    3.92    0.37
   3   1   2    4.67    0.34
  -3   1  -2    4.96    0.40
  -3   1  -2    4.77    0.40
  -3   1  -2    4.49    0.39
   4  -1   2    4.38    0.62
   4  -1   2    5.05    0.52
  -4  -1  -2    4.49    0.53
  -4  -1  -2    4.83    0.36
  -4  -1  -2    4.56    0.53
   4  -1   2    3.94    0.59
   4  -1   2    4.62    0.48
  -4   1  -2    4.76    0.44
  -4   1  -2    4.42    0.46
   4   1   2    3.85    0.39
   4   1   2    5.12    0.71
   4   1   2    4.81    0.64
   4   1   2    6.21    0.63
  -4   1  -2    3.82    0.44
   5  -1   2    2.28    0.55
   5  -1   2    1.83    0.59
  -5  -1  -2    2.53    0.34
  -5  -1  -2    2.37    0.47
   5   1   2    1.84    0.55
  -5   1  -2    2.13    0.40
   5   1   2    2.55    0.45
  -5   1  -2    2.05    0.37
   5   1   2    1.67    0.49
   6  -1   2   -0.11    0.49
   6  -1   2    0.70    0.45
  -6  -1  -2    0.32    0.29
   6   1   2    0.30    0.50
   6   1   2    0.76    0.45
  -6   1  -2    0.37    0.26
   7  -1   2   -0.23    0.41
   7  -1   2   -0.45    0.54
  -7  -1  -2   -0.02    0.29
   7   1   2    0.15    0.48
   7   1   2   -0.44    0.43
  -7  -2   2    1.82    0.42
  -7  -2   2    2.53    0.71
   7  -2  -2    2.33    0.67
   7  -2  -2    2.74    0.72
   7   2  -2    2.40    0.67
   7   2  -2    1.64    0.62
  -7   2   2    2.02    0.63
  -6  -2   2    6.73    0.60
   6  -2  -2    6.56    0.94
  -6  -2   2    5.36    0.78
   6  -2  -2    7.13    0.90
   6  -2  -2    5.81    0.81
   6   2  -2    6.69    0.87
  -6   2   2    7.08    0.90
  -6   2   2    7.28    0.56
   6   2  -2    7.61    0.99
  -5  -2   2    9.06    0.63
   5  -2  -2    8.91    0.38
   5  -2  -2    8.32    0.78
   5  -2  -2    8.87    0.88
   5  -2  -2    9.09    0.80
   5  -2  -2    8.63    0.38
  -5  -2   2    9.26    0.80
  -5  -2   2    8.81    0.63
   5   2  -2    8.76    0.82
   5   2  -2    8.67    0.89
  -5   2   2    8.79    0.89
  -5   2   2    8.79    0.36
  -5   2   2    8.19    0.36
   5   2  -2    9.71    0.66
  -5   2   2    8.28    0.57
  -4  -2   2    5.55    0.28
  -4  -2   2    6.96    0.71
   4  -2  -2    5.91    0.30
   4  -2  -2    5.68    0.63
   4  -2  -2    6.89    0.32
   4  -2  -2    5.92    0.63
  -4  -2   2    6.00    0.48
   4  -2  -2    6.50    0.67
   4   2  -2    7.13    0.74
  -4   2   2    5.91    0.29
  -4   2   2    5.42    0.29
  -4   2   2    5.18    0.61
   4   2  -2    5.67    0.48
   4   2  -2    5.19    0.58
   3  -2  -2  146.64    3.24
  -3  -2   2  142.73    3.14
   3  -2  -2  144.95    3.18
  -3  -2   2  144.07    2.81
   3  -2  -2  138.03    2.79
  -3  -2   2  142.79    3.16
   3  -2  -2  144.27    2.80
   3  -2  -2  145.45    3.29
  -3  -2   2  140.66    3.26
   3   2  -2  146.06    3.25
   3   2  -2  144.68    3.15
   3   2  -2  139.12    3.14
  -3   2   2  142.10    2.79
  -3   2   2  144.74    2.81
  -3   2   2  146.05    3.23
  -2  -2   2  155.63    3.09
  -2  -2   2  157.72    3.31
  -2  -2   2  153.37    3.33
  -2  -2   2  161.72    3.36
   2  -2  -2  157.78    3.31
   2  -2  -2  155.24    3.38
   2  -2  -2  160.14    3.08
   2  -2  -2  155.66    3.29
   2   2  -2  164.86    3.35
   2   2  -2  159.43    3.35
   2   2  -2  165.20    3.35
   2   2  -2  160.72    3.10
  -2   2   2  156.48    3.29
  -2   2   2  155.96    3.07
   2   2  -2  160.45    3.34
  -2   2   2  155.82    3.08
  -2   2   2  160.41    3.33
  -1  -2   2  534.16   10.01
   1  -2  -2  559.58   10.01
   1  -2  -2  535.23    9.89
   1  -2  -2  567.05   10.16
  -1  -2   2  552.98   10.04
   1  -2  -2  554.28    9.98
  -1  -2   2  535.07   10.83
   1  -2  -2  539.23    9.88
   1  -2  -2  552.82   10.38
  -1  -2   2  554.19    9.89
   1   2  -2  536.20   10.50
   1   2  -2  561.04   10.03
  -1   2   2  546.37   10.39
   1   2  -2  531.80   10.25
   1   2  -2  562.03    9.94
   1   2  -2  538.23   10.02
  -1   2   2  506.88   10.24
  -1   2   2  513.54   10.83
  -1   2   2  517.56   10.52
   0  -2  -2  829.68   15.83
   0  -2  -2  851.80   15.27
   0  -2   2  819.96   16.15
   0  -2  -2  824.51   16.13
   0  -2  -2  836.29   16.04
   0  -2   2  843.58   16.20
   0  -2   2  850.26   15.21
   0  -2   2  797.31   15.77
   0  -2   2  849.96   15.46
   0   2   2  838.61   15.89
   0   2   2  845.55   15.25
   0   2   2  861.35   16.70
   0   2  -2  854.63   16.32
   0   2  -2  843.95   16.36
   0   2   2  844.37   16.33
   0   2  -2  864.92   16.53
   0   2  -2  855.96   16.63
   0   2   2  835.75   15.50
  -1  -2  -2   44.99    1.22
   1  -2   2   45.49    1.21
  -1  -2  -2   46.81    1.31
   1  -2   2   46.06    1.21
  -1  -2  -2   45.47    1.28
  -1  -2  -2   45.45    1.15
   1  -2   2   48.05    1.26
  -1  -2  -2   45.46    1.23
   1  -2   2   46.76    1.25
   1   2   2   47.67    1.31
  -1   2  -2   47.67    1.25
  -1   2  -2   46.57    1.24
   1   2   2   46.39    1.29
  -1   2  -2   48.19    1.22
   1   2   2   46.74    1.17
  -1   2  -2   48.57    1.23
  -1   2  -2   49.01    1.01
   1   2   2   47.03    1.24
  -2  -2  -2  172.91    3.70
   2  -2   2  175.35    3.73
   2  -2   2  176.12    3.63
  -2  -2  -2  167.18    3.42
  -2  -2  -2  173.70    3.66
  -2  -2  -2  177.62    3.74
   2  -2   2  169.22    3.53
   2  -2   2  171.69    3.53
   2   2   2  175.29    3.43
   2   2   2  171.09    3.64
  -2   2  -2  170.89    3.53
   2   2   2  175.62    3.72
  -2   2  -2  177.40    3.43
   2   2   2  170.90    3.71
  -2   2  -2  168.80    3.60
   2   2   2  173.43    3.68
  -2   2  -2  175.85    3.53
   3  -2   2   21.78    0.80
  -3  -2  -2   20.31    0.69
   3  -2   2   20.89    0.85
  -3  -2  -2   21.44    0.93
   3  -2   2   20.25    0.93
  -3  -2  -2   20.36    0.91
   3  -2   2   21.40    0.80
   3  -2   2   21.54    1.00
   3   2   2   21.02    0.94
   3   2   2   19.76    0.96
  -3   2  -2   21.61    0.79
  -3   2  -2   21.45    0.85
  -3   2  -2   20.88    0.80
   3   2   2   19.98    0.69
  -3   2  -2   22.47    0.80
   3   2   2   20.78    0.95
   4  -2   2   40.60    1.52
   4  -2   2   38.13    1.30
  -4  -2  -2   39.40    1.42
  -4  -2  -2   38.11    1.06
  -4  -2  -2   38.73    1.42
   4  -2   2   38.64    1.59
   4  -2   2   37.78    1.22
  -4   2  -2   39.13    1.29
   4   2   2   39.16    1.52
   4   2   2   40.22    1.58
  -4   2  -2   38.08    1.21
  -4   2  -2   37.90    1.21
   4   2   2   41.15    1.46
   4   2   2   38.40    1.07
  -5  -2  -2   29.71    1.31
   5  -2   2   28.73    1.40
   5  -2   2   29.84    1.53
  -5  -2  -2   30.65    0.91
  -5   2  -2   30.95    1.19
   5   2   2   30.76    1.48
   5   2   2   29.65    1.56
   5   2   2   31.24    1.33
  -5   2  -2   29.06    1.08
   6  -2   2   13.85    1.12
  -6  -2  -2   13.50    0.95
   6  -2   2   14.08    1.25
   6   2   2   13.49    1.23
  -6   2  -2   14.20    0.75
   6   2   2   15.22    1.17
  -7  -2  -2    5.69    0.77
   7  -2   2    4.34    0.80
   7  -2   2    5.10    1.03
   7   2   2    4.10    0.94
   7   2   2    4.37    0.86
  -7  -3   2    2.12    0.62
  -7  -3   2    2.98    0.55
   7  -3  -2    3.47    0.81
   7  -3  -2    2.21    0.68
   7  -3  -2    2.12    0.61
   7   3  -2    2.84    0.81
  -7   3   2    2.05    0.64
   7   3  -2    2.53    0.65
   6  -3  -2    4.29    0.77
  -6  -3   2    4.06    0.60
   6  -3  -2    4.72    0.77
   6  -3  -2    5.15    0.80
  -6  -3   2    5.02    0.80
   6   3  -2    3.51    0.67
  -6   3   2    4.79    0.75
  -6   3   2    4.75    0.58
   6   3  -2    6.06    0.91
   5  -3  -2   13.04    0.92
  -5  -3   2   14.61    0.84
  -5  -3   2   15.45    0.87
  -5  -3   2   14.31    0.97
   5  -3  -2   15.46    1.00
   5  -3  -2   14.40    0.94
   5   3  -2   13.07    0.90
  -5   3   2   13.20    0.91
   5   3  -2   14.07    0.97
  -5   3   2   13.74    0.76
   5   3  -2   13.41    0.82
   4  -3  -2    8.84    0.69
  -4  -3   2    8.08    0.60
   4  -3  -2    9.00    0.65
   4  -3  -2    7.98    0.65
  -4  -3   2    8.13    0.66
  -4   3   2    7.49    0.60
   4   3  -2    8.02    0.62
  -4   3   2    7.91    0.60
   4   3  -2    9.08    0.63
  -3  -3   2    3.20    0.41
  -3  -3   2    2.42    0.36
   3  -3  -2    2.56    0.18
  -3  -3   2    3.00    0.21
  -3  -3   2    2.67    0.39
   3  -3  -2    2.50    0.37
   3  -3  -2    3.01    0.46
   3  -3  -2    3.35    0.44
   3  -3  -2    3.11    0.19
   3   3  -2    2.98    0.41
  -3   3   2    3.24    0.42
   3   3  -2    3.13    0.41
  -3   3   2    2.59    0.37
  -3   3   2    2.57    0.17
   3   3  -2    2.62    0.37
  -3   3   2    2.76    0.18
   2  -3  -2   98.53    2.22
  -2  -3   2   97.63    2.27
   2  -3  -2   96.44    2.19
  -2  -3   2   96.06    2.32
   2  -3  -2   94.21    2.32
  -2  -3   2   94.71    2.29
  -2  -3   2   95.35    2.02
   2  -3  -2   97.78    2.00
   2   3  -2   96.88    2.32
  -2   3   2   99.39    2.20
   2   3  -2  100.81    2.25
  -2   3   2   96.63    2.25
   2   3  -2   98.95    2.27
   2   3  -2   99.19    2.04
  -2   3   2   97.86    2.00
  -2   3   2   97.56    2.00
   2   3  -2  101.30    2.33
   1  -3  -2   14.31    0.62
  -1  -3   2   13.14    0.60
   1  -3  -2   13.89    0.51
   1  -3  -2   13.74    0.53
  -1  -3   2   13.23    0.61
  -1  -3   2   15.68    0.58
   1  -3  -2   13.74    0.53
   1  -3  -2   13.64    0.57
   1  -3  -2   14.73    0.53
  -1  -3   2   14.96    0.55
  -1   3   2   14.69    0.54
   1   3  -2   14.00    0.55
   1   3  -2   13.71    0.63
   1   3  -2   13.44    0.61
  -1   3   2   13.75    0.57
   1   3  -2   14.63    0.54
  -1   3   2   13.84    0.53
  -1   3   2   13.01    0.49
   1   3  -2   14.96    0.55
   0  -3   2  271.18    5.13
   0  -3   2  263.89    5.21
   0  -3  -2  263.37    5.21
   0  -3   2  268.07    5.23
   0  -3   2  274.41    5.21
   0  -3  -2  260.28    5.05
   0  -3   2  271.35    4.85
   0  -3  -2  273.17    5.20
   0  -3  -2  274.44    5.25
   0  -3  -2  270.18    5.15
   0   3  -2  259.32    5.22
   0   3   2  266.20    5.24
   0   3   2  270.41    5.07
   0   3  -2  274.31    5.13
   0   3   2  268.28    5.23
   0   3   2  272.62    5.20
   0   3  -2  270.73    5.22
   0   3  -2  269.24    5.20
   1  -3   2  269.54    5.34
   1  -3   2  291.80    5.46
  -1  -3  -2  282.01    5.36
  -1  -3  -2  278.86    5.52
  -1  -3  -2  281.08    5.43
   1  -3   2  274.45    5.35
   1  -3   2  276.46    5.44
  -1  -3  -2  276.33    5.49
   1   3   2  275.71    5.51
  -1   3  -2  265.48    5.41
  -1   3  -2  278.88    5.04
  -1   3  -2  273.21    5.34
   1   3   2  278.69    5.29
   1   3   2  280.95    5.43
   1   3   2  281.05    5.50
  -1   3  -2  274.01    5.36
  -1   3  -2  271.80    5.34
   2  -3   2  156.59    3.28
  -2  -3  -2  163.63    3.50
   2  -3   2  156.64    3.27
  -2  -3  -2  154.52    3.51
  -2  -3  -2  159.49    3.55
   2  -3   2  159.95    3.52
   2  -3   2  163.96    3.45
   2   3   2  161.71    3.53
  -2   3  -2  156.52    3.12
  -2   3  -2  156.58    3.27
   2   3   2  158.83    3.55
  -2   3  -2  158.67    3.43
  -2   3  -2  157.93    3.28
   2   3   2  158.38    3.19
   2   3   2  162.19    3.48
   3  -3   2   13.54    0.60
   3  -3   2   12.51    0.59
  -3  -3  -2   14.41    0.79
   3  -3   2   13.57    0.71
   3  -3   2   13.56    0.55
   3  -3   2   11.99    0.71
  -3  -3  -2   13.95    0.78
   3  -3   2   13.57    0.81
  -3   3  -2   12.67    0.58
   3   3   2   13.58    0.79
   3   3   2   12.42    0.78
   3   3   2   14.10    0.53
   3   3   2   13.67    0.77
  -3   3  -2   12.80    0.69
  -3   3  -2   12.91    0.59
  -3   3  -2   13.45    0.59
  -4  -3  -2   59.85    1.88
   4  -3   2   55.80    1.84
   4  -3   2   49.96    1.46
   4  -3   2   56.34    1.51
   4  -3   2   57.12    1.98
  -4  -3  -2   53.37    1.81
   4   3   2   55.44    1.33
  -4   3  -2   53.63    1.82
   4   3   2   54.46    1.87
   4   3   2   56.77    1.85
  -4   3  -2   55.73    1.49
   4   3   2   57.78    1.98
  -4   3  -2   54.65    1.69
  -4   3  -2   53.33    1.48
   5  -3   2   49.54    1.92
   5  -3   2   52.71    2.12
  -5  -3  -2   50.91    1.84
  -5   3  -2   51.54    1.69
   5   3   2   50.30    1.96
   5   3   2   54.88    2.12
  -5   3  -2   50.88    1.45
   6  -3   2    0.39    0.56
  -6  -3  -2    1.28    0.44
   6  -3   2    0.71    0.48
   6   3   2    0.63    0.62
  -6   3  -2    1.54    0.49
   6   3   2    1.31    0.52
  -6   3  -2    0.85    0.25
   7  -3   2    6.57    1.09
  -7  -3  -2    6.96    0.87
   7  -3   2    8.02    1.12
   7   3   2    4.32    0.94
   7   3   2    6.68    1.00
  -7  -4   2    1.77    0.62
  -7  -4   2    1.38    0.46
   7  -4  -2    2.24    0.68
   7  -4  -2    1.99    0.73
   7  -4  -2    1.69    0.59
  -7   4   2    1.81    0.60
   7   4  -2    1.81    0.59
   7   4  -2    2.11    0.72
  -7   4   2    1.55    0.56
  -6  -4   2   30.04    1.36
   6  -4  -2   29.63    1.49
  -6  -4   2   27.62    1.52
   6  -4  -2   29.08    1.54
   6  -4  -2   29.67    1.52
  -6   4   2   30.55    1.47
   6   4  -2   30.13    1.59
   6   4  -2   24.28    1.41
  -6   4   2   28.99    1.25
  -6   4   2   29.54    1.49
   5  -4  -2   27.34    1.33
   5  -4  -2   23.76    1.22
  -5  -4   2   26.62    1.34
   5  -4  -2   21.61    1.21
  -5  -4   2   25.84    1.20
  -5  -4   2   25.79    1.21
  -5   4   2   26.78    1.28
   5   4  -2   26.53    1.23
   5   4  -2   23.86    1.23
  -5   4   2   27.39    1.25
   5   4  -2   25.09    1.32
  -5   4   2   26.40    1.13
  -4  -4   2    4.90    0.57
   4  -4  -2    6.14    0.68
  -4  -4   2    5.58    0.63
   4  -4  -2    5.74    0.62
   4  -4  -2    7.16    0.73
  -4   4   2    6.49    0.67
  -4   4   2    6.41    0.55
   4   4  -2    7.17    0.72
   4   4  -2    6.98    0.71
  -3  -4   2   40.81    0.97
   3  -4  -2   40.17    0.88
  -3  -4   2   41.41    1.41
  -3  -4   2   40.44    1.37
  -3  -4   2   38.91    1.33
   3  -4  -2   41.25    1.42
   3  -4  -2   42.16    1.33
   3  -4  -2   39.36    0.87
   3  -4  -2   42.99    1.32
   3   4  -2   40.47    1.39
  -3   4   2   40.96    0.87
   3   4  -2   40.30    1.32
   3   4  -2   43.46    0.98
  -3   4   2   43.74    1.35
  -3   4   2   41.72    1.29
  -3   4   2   42.73    0.88
  -2  -4   2   58.91    1.60
  -2  -4   2   59.73    1.41
   2  -4  -2   61.48    1.56
   2  -4  -2   61.96    1.39
   2  -4  -2   58.86    1.69
   2  -4  -2   62.46    1.64
   2  -4  -2   61.65    1.56
   2  -4  -2   60.30    1.52
  -2  -4   2   59.11    1.69
  -2  -4   2   60.63    1.72
  -2   4   2   64.21    1.64
   2   4  -2   62.18    1.63
  -2   4   2   62.50    1.53
   2   4  -2   64.02    1.59
   2   4  -2   62.99    1.43
   2   4  -2   61.89    1.72
   2   4  -2   62.95    1.73
  -2   4   2   63.59    1.40
  -2   4   2   62.51    1.38
  -1  -4   2   46.82    1.37
   1  -4  -2   46.81    1.12
  -1  -4   2   46.69    1.21
   1  -4  -2   47.10    1.22
  -1  -4   2   44.32    1.20
   1  -4  -2   44.30    1.32
   1  -4  -2   47.15    1.29
   1  -4  -2   47.93    1.17
   1  -4  -2   45.76    1.20
  -1  -4   2   43.92    1.33
  -1   4   2   47.12    1.23
   1   4  -2   47.93    1.22
   1   4  -2   49.67    1.19
   1   4  -2   46.69    1.22
  -1   4   2   46.62    1.28
   1   4  -2   48.15    1.37
  -1   4   2   48.61    1.13
   1   4  -2   45.39    1.36
  -1   4   2   45.69    1.20
   0  -4   2   12.22    0.33
   0  -4   2   11.62    0.56
   0  -4  -2   11.64    0.59
   0  -4  -2   11.82    0.56
   0  -4  -2   12.48    0.45
   0  -4   2   11.55    0.58
   0  -4   2   11.98    0.50
   0  -4  -2   10.86    0.57
   0  -4  -2   12.08    0.57
   0  -4   2   12.16    0.59
   0   4   2   11.96    0.57
   0   4  -2   11.87    0.57
   0   4   2   11.59    0.58
   0   4  -2   11.47    0.56
   0   4  -2   12.15    0.59
   0   4   2   12.22    0.45
   0   4   2   11.45    0.58
   0   4  -2   11.96    0.49
  -1  -4  -2  155.60    3.26
   1  -4   2  158.46    3.32
  -1  -4  -2  161.68    3.51
  -1  -4  -2  162.93    3.42
   1  -4   2  157.04    3.41
   1  -4   2  155.22    3.30
  -1  -4  -2  159.91    3.48
   1  -4   2  160.82    3.44
   1  -4   2  167.29    3.31
  -1  -4  -2  160.30    3.31
  -1   4  -2  155.04    3.29
  -1   4  -2  157.32    3.32
   1   4   2  159.85    3.25
   1   4   2  162.18    3.51
   1   4   2  157.92    3.47
  -1   4  -2  158.74    3.42
  -1   4  -2  159.39    3.28
   2  -4   2   14.39    0.72
   2  -4   2   14.70    0.62
   2  -4   2   15.25    0.58
  -2  -4  -2   13.82    0.76
  -2  -4  -2   13.93    0.76
   2  -4   2   13.26    0.59
  -2  -4  -2   15.44    0.76
   2  -4   2   14.65    0.77
   2   4   2   13.60    0.73
   2   4   2   14.51    0.76
   2   4   2   15.65    0.58
  -2   4  -2   14.81    0.61
   2   4   2   13.88    0.78
  -2   4  -2   15.28    0.74
  -2   4  -2   14.69    0.62
   3  -4   2   15.04    0.63
  -3  -4  -2   15.91    0.87
   3  -4   2   13.51    0.75
   3  -4   2   13.98    0.61
  -3  -4  -2   14.11    0.83
   3  -4   2   14.28    0.62
   3  -4   2   14.51    0.86
   3   4   2   15.29    0.81
   3   4   2   13.19    0.80
  -3   4  -2   14.25    0.77
  -3   4  -2   14.88    0.62
  -3   4  -2   14.47    0.61
   3   4   2   15.07    0.87
   3   4   2   13.35    0.53
  -4  -4  -2   40.96    1.58
   4  -4   2   43.21    1.28
   4  -4   2   40.46    1.53
   4  -4   2   38.74    1.62
  -4  -4  -2   39.17    1.54
   4   4   2   37.53    1.58
  -4   4  -2   37.09    1.13
   4   4   2   38.09    0.99
   4   4   2   41.03    1.59
  -4   4  -2   38.75    1.14
  -4   4  -2   39.53    1.44
   4   4   2   40.22    1.56
   5  -4   2   30.20    1.58
   5  -4   2   31.13    1.48
  -5  -4  -2   33.11    1.48
  -5   4  -2   30.80    0.99
   5   4   2   28.65    1.53
  -5   4  -2   33.76    1.37
   5   4   2   28.46    1.44
   6  -4   2   11.70    1.24
   6  -4   2   14.50    1.29
  -6  -4  -2   13.94    1.06
   6   4   2   10.55    1.21
   6   4   2   13.20    1.11
  -6   4  -2   11.76    0.87
   7  -4   2    3.39    0.80
   7  -4   2    3.49    0.93
  -7  -4  -2    3.32    0.68
   7   4   2    2.34    0.79
   7   4   2    2.69    0.76
   7  -5  -2    9.94    1.24
  -7  -5   2   11.31    0.98
   7  -5  -2   11.73    1.28
  -7  -5   2    9.34    1.17
   7  -5  -2   10.27    1.19
   7   5  -2   11.00    1.37
  -7   5   2   11.88    1.31
   7   5  -2    8.44    1.13
  -7   5   2    8.94    1.06
  -6  -5   2   21.22    1.37
   6  -5  -2   20.50    1.32
   6  -5  -2   19.50    1.23
   6  -5  -2   19.62    1.30
  -6  -5   2   20.83    1.20
  -6   5   2   20.26    1.25
   6   5  -2   22.44    1.44
  -6   5   2   18.60    1.19
   6   5  -2   20.52    1.28
  -6   5   2   20.29    1.11
   5  -5  -2   29.26    1.35
   5  -5  -2   30.33    1.45
   5  -5  -2   29.60    1.42
  -5  -5   2   30.60    1.42
  -5  -5   2   30.01    1.46
  -5  -5   2   31.38    1.39
  -5   5   2   31.60    1.37
   5   5  -2   30.58    1.40
  -5   5   2   31.72    1.40
  -5   5   2   31.56    1.32
   5   5  -2   30.01    1.39
   4  -5  -2   84.40    2.44
   4  -5  -2   83.37    2.30
  -4  -5   2   80.83    2.37
   4  -5  -2   84.84    2.39
  -4  -5   2   85.47    2.41
   4   5  -2   82.52    2.34
  -4   5   2   82.98    2.29
  -4   5   2   79.76    2.28
   4   5  -2   86.93    2.45
  -3  -5   2   45.90    1.54
   3  -5  -2   47.18    1.41
  -3  -5   2   43.73    1.08
   3  -5  -2   47.48    1.48
   3  -5  -2   45.54    1.55
   3  -5  -2   46.06    0.98
  -3  -5   2   46.50    1.58
   3  -5  -2   45.64    0.98
  -3  -5   2   46.61    1.48
   3   5  -2   47.15    1.45
  -3   5   2   46.06    0.97
   3   5  -2   43.50    1.54
  -3   5   2   45.21    1.37
   3   5  -2   47.52    1.10
  -3   5   2   47.23    1.45
   2  -5  -2  132.94    3.07
   2  -5  -2  130.12    2.67
  -2  -5   2  126.38    2.86
  -2  -5   2  129.41    3.06
   2  -5  -2  132.41    2.88
   2  -5  -2  127.99    2.73
  -2  -5   2  130.48    2.70
   2  -5  -2  132.39    2.80
  -2  -5   2  132.65    3.10
   2  -5  -2  133.41    2.95
   2   5  -2  129.90    2.89
  -2   5   2  128.51    2.66
  -2   5   2  127.22    2.90
   2   5  -2  130.64    3.06
   2   5  -2  132.75    2.83
   2   5  -2  126.42    3.06
  -2   5   2  125.50    2.73
   2   5  -2  126.78    2.69
  -2   5   2  132.05    2.65
   1  -5  -2   28.88    0.93
   1  -5  -2   29.11    0.98
   1  -5  -2   28.94    0.78
  -1  -5   2   28.61    1.05
  -1  -5   2   28.17    0.84
  -1  -5   2   29.53    0.90
  -1  -5   2   30.36    1.09
   1  -5  -2   28.54    1.04
   1  -5  -2   30.19    0.84
  -1  -5   2   30.53    0.94
   1  -5  -2   30.26    0.95
   1   5  -2   29.61    1.06
  -1   5   2   30.66    0.99
   1   5  -2   29.26    1.08
  -1   5   2   29.24    0.93
   1   5  -2   29.88    0.90
   1   5  -2   29.71    0.86
  -1   5   2   29.54    0.95
   1   5  -2   29.77    0.94
  -1   5   2   28.93    0.78
   0  -5  -2  195.55    4.14
   0  -5  -2  204.61    4.11
   0  -5  -2  194.97    3.80
   0  -5  -2  203.19    4.15
   0  -5   2  202.91    4.12
   0  -5   2  201.32    3.91
   0  -5  -2  197.29    4.12
   0  -5   2  200.18    4.15
   0  -5   2  194.36    4.12
   0  -5   2  200.43    3.67
   0   5  -2  189.00    4.08
   0   5  -2  202.41    4.14
   0   5  -2  196.14    4.14
   0   5   2  198.17    4.15
   0   5   2  200.15    4.13
   0   5   2  196.88    4.10
   0   5  -2  200.16    3.91
  -1  -5  -2  337.40    6.51
   1  -5   2  347.62    6.78
  -1  -5  -2  347.24    6.76
   1  -5   2  350.24    6.80
  -1  -5  -2  345.59    6.69
   1  -5   2  348.70    6.58
  -1  -5  -2  347.42    6.87
   1  -5   2  343.47    6.65
   1  -5   2  343.38    6.64
  -1  -5  -2  346.50    6.85
  -1   5  -2  351.82    6.56
  -1   5  -2  334.36    6.75
  -1   5  -2  341.71    6.63
  -1   5  -2  337.88    6.64
   1   5   2  338.19    6.74
   1   5   2  340.26    6.82
   1   5   2  338.84    6.85
   2  -5   2   47.57    1.30
   2  -5   2   47.02    1.28
   2  -5   2   47.60    1.55
   2  -5   2   46.79    1.30
  -2  -5  -2   46.46    1.57
   2  -5   2   47.79    1.67
  -2  -5  -2   44.45    1.53
  -2   5  -2   46.84    1.29
  -2   5  -2   45.78    1.27
   2   5   2   49.11    1.60
   2   5   2   48.94    1.52
  -2   5  -2   45.18    1.04
  -2   5  -2   45.06    1.47
   2   5   2   46.91    1.23
  -2   5  -2   47.66    1.38
   3  -5   2   73.55    1.93
   3  -5   2   81.38    2.42
  -3  -5  -2   87.71    2.45
   3  -5   2   86.07    2.01
  -3  -5  -2   88.47    2.47
   3  -5   2   87.41    2.05
   3   5   2   85.86    2.45
  -3   5  -2   83.41    1.97
  -3   5  -2   82.33    1.96
   3   5   2   87.81    1.89
   3   5   2   86.29    2.30
  -3   5  -2   84.96    2.31
   4  -5   2   45.63    1.65
   4  -5   2   46.86    1.82
  -4  -5  -2   47.79    1.78
   4  -5   2   47.90    1.44
   4  -5   2   44.35    1.25
   4   5   2   43.32    1.74
  -4   5  -2   48.72    1.67
  -4   5  -2   46.38    1.25
   4   5   2   46.08    1.09
  -4   5  -2   44.82    1.24
   4   5   2   46.56    1.77
   4   5   2   44.71    1.69
  -5  -5  -2   11.35    0.95
   5  -5   2    8.56    1.06
   5  -5   2    6.75    0.80
  -5   5  -2    9.98    0.49
   5   5   2   10.02    1.14
   5   5   2   10.96    0.90
  -5   5  -2    9.93    0.80
   6  -5   2    0.68    0.44
  -6  -5  -2    0.42    0.40
   6  -5   2    0.87    0.55
  -6   5  -2    0.53    0.36
   6   5   2    0.32    0.42
   6   5   2    0.32    0.51
  -7  -5  -2    0.09    0.51
   7  -5   2    0.41    0.59
   7   5   2   -0.18    0.44
   7   5   2   -0.26    0.61
   7  -6  -2    5.11    0.93
   7  -6  -2    4.66    0.89
   7  -6  -2    6.42    0.98
  -7  -6   2    5.53    0.93
  -7  -6   2    3.94    0.75
   7   6  -2    6.98    1.12
  -7   6   2    6.23    0.95
   7   6  -2    5.03    0.86
  -7   6   2    5.12    0.82
   6  -6  -2   16.91    1.24
  -6  -6   2   14.96    1.17
   6  -6  -2   18.07    1.24
  -6  -6   2   12.91    1.02
   6  -6  -2   14.74    1.08
   6   6  -2   15.51    1.13
  -6   6   2   13.96    1.05
  -6   6   2   13.93    0.98
  -6   6   2   12.83    0.98
   6   6  -2   14.93    1.24
   5  -6  -2   14.73    0.97
   5  -6  -2   14.33    1.01
  -5  -6   2   13.12    0.97
   5  -6  -2   12.63    0.96
  -5  -6   2   13.50    1.01
  -5   6   2   15.61    0.96
  -5   6   2   14.71    0.93
   5   6  -2   13.26    0.94
  -5   6   2   13.46    0.92
   5   6  -2   13.00    0.98
   4  -6  -2    0.96    0.39
   4  -6  -2    0.73    0.32
  -4  -6   2    1.01    0.36
   4  -6  -2    1.05    0.38
  -4  -6   2    1.90    0.45
  -4   6   2    1.04    0.33
  -4   6   2    0.66    0.30
   4   6  -2    1.08    0.38
   4   6  -2    0.60    0.32
  -3  -6   2    3.40    0.51
   3  -6  -2    3.89    0.23
   3  -6  -2    4.50    0.49
   3  -6  -2    3.91    0.23
  -3  -6   2    3.87    0.53
  -3  -6   2    3.95    0.28
   3  -6  -2    3.61    0.52
   3  -6  -2    4.45    0.54
  -3  -6   2    3.20    0.45
   3   6  -2    3.66    0.28
  -3   6   2    3.64    0.46
  -3   6   2    3.01    0.21
  -3   6   2    3.73    0.42
  -3   6   2    3.90    0.22
   3   6  -2    4.48    0.50
   3   6  -2    3.60    0.54
  -2  -6   2   26.05    0.93
   2  -6  -2   26.73    0.98
   2  -6  -2   26.47    0.82
  -2  -6   2   26.10    1.12
  -2  -6   2   25.95    1.09
  -2  -6   2   26.61    0.96
   2  -6  -2   26.24    1.10
  -2  -6   2   25.22    0.84
   2  -6  -2   26.98    0.87
   2  -6  -2   28.16    1.02
   2  -6  -2   25.79    0.82
  -2   6   2   25.92    0.97
  -2   6   2   24.25    0.81
   2   6  -2   24.69    0.83
   2   6  -2   26.01    1.12
  -2   6   2   25.91    0.82
  -2   6   2   25.05    0.80
   2   6  -2   25.90    0.89
   2   6  -2   25.44    0.93
   1  -6  -2   57.61    1.26
  -1  -6   2   55.56    1.69
   1  -6  -2   56.46    1.52
   1  -6  -2   54.83    1.50
  -1  -6   2   55.63    1.51
   1  -6  -2   56.10    1.56
  -1  -6   2   55.89    1.41
  -1  -6   2   55.92    1.67
  -1  -6   2   55.39    1.39
   1  -6  -2   58.55    1.36
   1  -6  -2   57.83    1.67
  -1   6   2   55.48    1.25
   1   6  -2   58.60    1.36
  -1   6   2   57.06    1.56
   1   6  -2   54.29    1.40
   1   6  -2   55.12    1.68
  -1   6   2   55.82    1.51
   1   6  -2   57.26    1.51
  -1   6   2   54.66    1.51
   1   6  -2   54.89    1.67
   0  -6   2    4.66    0.24
   0  -6   2    4.83    0.43
   0  -6   2    5.15    0.52
   0  -6  -2    4.82    0.27
   0  -6  -2    5.75    0.48
   0  -6  -2    4.92    0.44
   0  -6   2    4.73    0.45
   0  -6  -2    5.04    0.42
   0  -6  -2    4.98    0.45
   0  -6   2    4.99    0.33
   0   6  -2    4.52    0.49
   0   6  -2    4.18    0.44
   0   6  -2    4.61    0.31
   0   6  -2    3.67    0.41
   0   6   2    5.67    0.54
   0   6   2    4.61    0.47
   0   6   2    4.68    0.43
   1  -6   2   16.29    0.83
   1  -6   2   18.21    0.84
  -1  -6  -2   17.93    0.81
   1  -6   2   17.22    0.76
  -1  -6  -2   16.04    0.85
   1  -6   2   16.72    0.74
   1  -6   2   16.85    0.75
  -1  -6  -2   16.68    0.85
  -1  -6  -2   16.37    0.63
  -1   6  -2   18.22    0.84
   1   6   2   17.11    0.85
   1   6   2   17.54    0.88
  -1   6  -2   16.67    0.74
   1   6   2   16.32    0.79
  -1   6  -2   18.97    0.68
  -1   6  -2   17.62    0.76
   2  -6   2   18.75    0.95
  -2  -6  -2   20.25    1.01
   2  -6   2   20.25    0.81
   2  -6   2   20.21    0.79
   2  -6   2   19.71    0.78
  -2   6  -2   18.64    0.75
   2   6   2   19.44    0.73
  -2   6  -2   19.60    0.78
  -2   6  -2   20.02    0.94
  -2   6  -2   19.18    0.52
   2   6   2   19.28    0.92
   2   6   2   20.50    1.02
  -2   6  -2   19.36    0.80
   3  -6   2    8.19    0.49
   3  -6   2   11.03    0.63
   3  -6   2    9.85    0.80
  -3  -6  -2    9.36    0.77
  -3   6  -2   11.89    0.78
   3   6   2   10.66    0.49
  -3   6  -2   10.69    0.54
   3   6   2   11.63    0.85
  -3   6  -2   11.12    0.49
  -3   6  -2   11.15    0.55
   4  -6   2   24.44    1.14
  -4  -6  -2   24.99    1.31
   4  -6   2   23.68    1.00
   4  -6   2   22.41    1.28
   4   6   2   23.71    1.28
  -4   6  -2   22.27    0.78
  -4   6  -2   23.19    1.17
   4   6   2   23.78    1.18
  -4   6  -2   22.95    0.79
  -4   6  -2   24.38    0.91
   5  -6   2   31.52    1.46
  -5  -6  -2   33.25    1.61
   5  -6   2   29.80    1.62
   5   6   2   28.94    1.47
   5   6   2   29.28    1.54
  -5   6  -2   28.90    0.82
   5   6   2   28.87    1.58
  -5   6  -2   31.86    1.46
  -6  -6  -2    9.11    1.05
   6  -6   2    9.70    1.16
   6   6   2    9.77    1.24
   6   6   2   10.23    1.15
  -6   6  -2    9.93    1.01
   7  -7  -2    6.79    0.97
  -7  -7   2    9.54    1.16
   7  -7  -2    6.97    1.08
   7  -7  -2    8.51    1.15
  -7  -7   2    9.50    1.25
  -7   7   2    8.92    1.06
   7   7  -2    7.64    1.11
  -7   7   2    8.25    1.06
   7   7  -2   10.02    1.34
   6  -7  -2   17.06    1.14
  -6  -7   2   16.79    1.23
   6  -7  -2   16.76    1.24
   6  -7  -2   17.48    1.31
  -6  -7   2   16.53    1.19
  -6   7   2   17.32    1.17
   6   7  -2   14.48    1.23
  -6   7   2   15.29    1.07
   6   7  -2   17.00    1.19
  -6   7   2   15.57    1.09
   5  -7  -2   61.15    2.22
   5  -7  -2   57.73    2.21
  -5  -7   2   64.43    2.27
  -5  -7   2   62.90    2.20
   5  -7  -2   61.85    2.05
   5   7  -2   63.08    2.28
  -5   7   2   61.01    2.05
  -5   7   2   63.72    2.09
   5   7  -2   64.00    2.14
  -5   7   2   63.20    2.15
  -4  -7   2    9.96    0.79
   4  -7  -2    9.58    0.70
   4  -7  -2    9.58    0.84
  -4  -7   2    9.49    0.82
   4  -7  -2    9.17    0.79
  -4   7   2    9.96    0.72
   4   7  -2   10.95    0.76
   4   7  -2   10.29    0.86
  -4   7   2   10.21    0.70
   3  -7  -2   32.53    0.87
   3  -7  -2   33.32    1.13
  -3  -7   2   32.84    1.22
   3  -7  -2   34.14    1.31
  -3  -7   2   32.19    1.37
   3  -7  -2   31.82    0.85
   3  -7  -2   32.19    1.37
  -3   7   2   32.31    0.86
   3   7  -2   33.58    1.18
   3   7  -2   34.43    1.43
   3   7  -2   32.77    0.95
  -3   7   2   33.38    1.10
  -3   7   2   31.05    1.19
  -3   7   2   32.86    0.85
  -2  -7   2   31.37    1.11
   2  -7  -2   30.65    0.99
   2  -7  -2   31.85    0.97
   2  -7  -2   30.07    1.13
   2  -7  -2   33.36    1.17
  -2  -7   2   31.44    1.06
   2  -7  -2   30.75    1.26
  -2  -7   2   31.25    1.27
   2  -7  -2   31.25    0.98
  -2  -7   2   31.25    1.01
  -2   7   2   30.43    0.90
   2   7  -2   30.71    1.05
  -2   7   2   32.42    1.14
  -2   7   2   31.65    0.98
   2   7  -2   31.93    1.01
   2   7  -2   30.78    1.01
   2   7  -2   32.61    1.32
  -1  -7   2    3.07    0.47
  -1  -7   2    2.89    0.37
   1  -7  -2    2.79    0.37
  -1  -7   2    2.93    0.33
   1  -7  -2    3.33    0.41
  -1  -7   2    2.77    0.32
   1  -7  -2    2.68    0.37
   1  -7  -2    2.76    0.20
   1  -7  -2    3.67    0.51
   1  -7  -2    3.11    0.35
   1   7  -2    2.97    0.32
   1   7  -2    2.51    0.43
  -1   7   2    2.15    0.33
   1   7  -2    3.26    0.41
  -1   7   2    2.40    0.35
  -1   7   2    2.73    0.38
   1   7  -2    2.07    0.38
   1   7  -2    3.02    0.26
  -1   7   2    2.46    0.19
   0  -7  -2   69.78    1.91
   0  -7   2   69.82    1.53
   0  -7   2   73.65    1.97
   0  -7  -2   69.36    1.96
   0  -7  -2   72.33    1.52
   0  -7   2   73.16    1.66
   0  -7   2   69.75    1.95
   0  -7  -2   71.62    2.01
   0   7  -2   71.79    1.65
   0   7   2   71.73    1.97
   0   7  -2   69.77    1.93
   0   7  -2   72.49    1.98
   0   7  -2   72.08    2.00
   0   7   2   72.61    2.00
  -1  -7  -2   25.48    1.11
   1  -7   2   24.60    0.97
   1  -7   2   25.92    1.10
  -1  -7  -2   25.77    0.82
  -1  -7  -2   25.15    1.05
   1  -7   2   26.33    1.01
  -1   7  -2   24.85    0.98
   1   7   2   26.52    1.14
  -1   7  -2   25.63    0.83
   1   7   2   25.07    1.03
   1   7   2   24.80    1.09
  -1   7  -2   25.34    1.06
  -1   7  -2   24.74    0.97
   2  -7   2   27.85    1.21
   2  -7   2   29.28    1.02
  -2  -7  -2   28.39    1.16
   2  -7   2   27.93    1.06
  -2  -7  -2   28.18    1.26
  -2   7  -2   28.54    0.69
  -2   7  -2   28.44    1.20
   2   7   2   29.76    1.22
  -2   7  -2   28.92    1.01
   2   7   2   29.22    1.30
  -2   7  -2   28.69    1.01
  -2   7  -2   28.91    1.02
   3  -7   2   16.64    0.74
   3  -7   2   19.90    1.14
   3  -7   2   19.44    0.92
  -3  -7  -2   20.82    1.15
  -3   7  -2   20.21    0.67
   3   7   2   21.44    1.17
   3   7   2   20.63    0.74
  -3   7  -2   20.87    0.79
  -3   7  -2   21.30    1.09
  -3   7  -2   18.52    0.76
   4  -7   2   17.43    1.21
   4  -7   2   18.37    0.95
  -4  -7  -2   20.28    1.22
  -4   7  -2   18.51    1.10
  -4   7  -2   19.03    0.70
  -4   7  -2   17.98    0.77
  -5  -7  -2   20.89    1.35
   5  -7   2   18.48    1.34
   5   7   2   17.42    1.27
  -5   7  -2   18.26    0.95
  -5   7  -2   20.19    1.21
   5   7   2   17.61    1.16
   5   7   2   19.82    1.37
  -6  -7  -2    7.00    1.02
   6  -7   2    5.03    0.92
   6   7   2    5.50    1.01
  -6   7  -2    5.81    0.85
  -7  -8   2    6.62    1.02
   7  -8  -2    7.05    0.99
   7  -8  -2    7.23    1.11
   7  -8  -2    7.34    1.14
   7   8  -2    7.08    1.15
  -7   8   2    6.30    0.96
  -7   8   2   10.28    1.17
   7   8  -2    5.70    0.95
   6  -8  -2    2.12    0.58
  -6  -8   2    2.56    0.65
   6  -8  -2    3.20    0.75
   6  -8  -2    1.69    0.65
  -6  -8   2    2.82    0.70
  -6   8   2    2.02    0.54
  -6   8   2    2.75    0.59
  -6   8   2    2.65    0.63
   6   8  -2    2.32    0.60
   5  -8  -2    6.57    0.87
  -5  -8   2    6.33    0.84
   5  -8  -2    7.45    0.96
  -5  -8   2    6.19    0.86
   5  -8  -2    5.57    0.72
   5   8  -2    6.20    0.76
  -5   8   2    5.88    0.74
  -5   8   2    6.10    0.84
  -5   8   2    7.13    0.79
   5   8  -2    7.14    0.93
   4  -8  -2    2.85    0.63
   4  -8  -2    3.60    0.62
  -4  -8   2    3.40    0.57
  -4  -8   2    3.62    0.60
   4  -8  -2    4.67    0.59
  -4   8   2    3.21    0.58
   4   8  -2    3.06    0.24
  -4   8   2    4.36    0.58
   4   8  -2    3.74    0.56
   4   8  -2    3.02    0.57
  -4   8   2    3.61    0.51
  -3  -8   2   57.72    2.04
  -3  -8   2   63.61    1.83
   3  -8  -2   61.78    1.67
   3  -8  -2   63.03    1.94
   3  -8  -2   61.19    1.45
   3  -8  -2   60.41    2.04
   3  -8  -2   61.46    1.47
  -3   8   2   59.24    1.61
  -3   8   2   56.81    1.41
  -3   8   2   60.95    1.82
   3   8  -2   61.88    1.54
   3   8  -2   60.48    1.73
   3   8  -2   56.68    2.05
  -3   8   2   59.22    1.45
  -2  -8   2    4.98    0.59
   2  -8  -2    4.91    0.61
  -2  -8   2    5.53    0.55
  -2  -8   2    4.64    0.40
   2  -8  -2    4.81    0.41
   2  -8  -2    5.07    0.37
  -2  -8   2    5.19    0.42
   2   8  -2    5.38    0.42
  -2   8   2    5.25    0.41
   2   8  -2    4.95    0.39
   2   8  -2    5.90    0.45
  -2   8   2    5.08    0.32
  -2   8   2    5.51    0.44
   2   8  -2    4.99    0.61
  -2   8   2    5.54    0.57
   1  -8  -2    9.87    0.61
   1  -8  -2   11.49    0.74
  -1  -8   2   10.56    0.53
  -1  -8   2   10.47    0.50
  -1  -8   2    9.76    0.61
  -1  -8   2   10.09    0.72
   1   8  -2    9.28    0.48
   1   8  -2    9.01    0.68
  -1   8   2    8.92    0.31
   1   8  -2    8.89    0.59
   1   8  -2    9.42    0.48
   1   8  -2    7.89    0.67
  -1   8   2    8.13    0.57
  -1   8   2    9.20    0.59
   0  -8   2   36.22    1.33
   0  -8   2   36.77    1.00
   0  -8  -2   37.41    0.85
   0  -8   2   36.27    0.95
   0  -8  -2   35.69    1.37
   0  -8  -2   37.04    1.34
   0   8  -2   34.87    1.29
   0   8  -2   34.82    1.30
   0   8   2   33.87    1.29
   0   8   2   36.31    1.35
   0   8  -2   36.36    1.00
   0   8  -2   36.24    1.35
   0   8   2   35.15    1.26
  -1  -8  -2    7.87    0.66
   1  -8   2    8.07    0.61
  -1  -8  -2    8.46    0.44
  -1  -8  -2    7.89    0.64
   1  -8   2    8.11    0.58
   1   8   2    8.42    0.63
   1   8   2    9.45    0.73
  -1   8  -2    7.68    0.61
  -1   8  -2    8.75    0.60
  -1   8  -2    8.20    0.60
  -1   8  -2    8.52    0.45
   2  -8   2    6.21    0.50
   2  -8   2    7.11    0.79
  -2  -8  -2    6.17    0.68
  -2  -8  -2    6.23    0.76
   2  -8   2    5.51    0.59
  -2   8  -2    6.11    0.50
  -2   8  -2    5.60    0.25
  -2   8  -2    5.93    0.48
   2   8   2    7.24    0.81
  -2   8  -2    5.63    0.43
   2   8   2    5.71    0.65
  -2   8  -2    7.01    0.75
   3  -8   2    8.14    0.67
   3  -8   2    7.75    0.85
   3  -8   2    8.51    0.54
  -3  -8  -2    8.69    0.91
  -3   8  -2    8.56    0.54
   3   8   2    6.81    0.77
  -3   8  -2    8.81    0.54
  -3   8  -2    9.02    0.78
   3   8   2    8.28    0.50
  -3   8  -2    8.47    0.41
  -4  -8  -2    0.28    0.38
   4  -8   2    0.52    0.43
   4  -8   2    0.23    0.32
   4   8   2   -0.22    0.31
  -4   8  -2    0.17    0.35
  -4   8  -2    0.58    0.19
  -4   8  -2    0.27    0.21
  -5  -8  -2   16.02    1.27
   5  -8   2   14.62    1.23
   5   8   2   15.78    1.25
   5   8   2   15.15    1.25
  -5   8  -2   16.47    1.17
  -6  -8  -2    8.06    1.06
  -6  -8  -2    8.25    1.12
   6  -8   2   10.98    1.37
  -6   8  -2    8.86    1.09
   6   8   2   10.62    1.37
   6  -9  -2    3.48    0.77
  -6  -9   2    4.84    0.89
   6  -9  -2    5.07    0.93
  -6  -9   2    6.32    0.95
   6  -9  -2    5.08    0.78
  -6   9   2    3.79    0.74
   6   9  -2    5.32    0.84
  -6   9   2    5.50    0.77
  -6   9   2    5.03    0.76
   5  -9  -2   12.87    1.12
   5  -9  -2   12.30    0.88
  -5  -9   2   10.52    0.93
  -5  -9   2   12.77    1.08
   5  -9  -2   12.44    1.08
   5   9  -2   12.01    0.90
  -5   9   2   11.74    0.88
  -5   9   2   11.31    0.84
   5   9  -2   12.01    1.25
  -5   9   2   11.03    0.96
   4  -9  -2   13.64    0.99
  -4  -9   2   12.88    0.87
   4  -9  -2   12.53    0.98
   4  -9  -2   11.87    0.77
  -4  -9   2   13.81    1.06
   4   9  -2   11.30    0.80
  -4   9   2   12.93    0.76
  -4   9   2   12.87    0.85
   4   9  -2   13.68    1.07
  -4   9   2   13.72    0.99
   3  -9  -2    7.73    0.45
   3  -9  -2    7.05    0.84
   3  -9  -2    7.75    0.53
   3  -9  -2    9.03    0.75
  -3  -9   2    7.98    0.62
  -3  -9   2    8.09    0.89
  -3   9   2    7.43    0.63
   3   9  -2    8.74    0.97
  -3   9   2    8.31    0.48
   3   9  -2    7.77    0.50
   3   9  -2    7.53    0.57
  -3   9   2    7.87    0.45
  -3   9   2    8.26    0.51
   2  -9  -2    5.78    0.73
   2  -9  -2    6.56    0.40
   2  -9  -2    5.92    0.48
  -2  -9   2    5.73    0.45
  -2  -9   2    5.17    0.64
   2   9  -2    6.43    0.44
  -2   9   2    6.55    0.51
  -2   9   2    5.52    0.46
   2   9  -2    5.87    0.48
  -2   9   2    5.85    0.32
  -2   9   2    6.65    0.66
   2   9  -2    6.46    0.74
  -1  -9   2    2.24    0.29
  -1  -9   2    1.86    0.31
   1  -9  -2    1.52    0.39
   1  -9  -2    1.62    0.35
  -1  -9   2    2.09    0.45
   1   9  -2    1.59    0.35
  -1   9   2    1.86    0.36
  -1   9   2    2.28    0.39
  -1   9   2    2.79    0.44
   1   9  -2    3.02    0.50
   1   9  -2    2.37    0.30
   0  -9  -2   10.84    0.79
   0  -9   2   10.62    0.76
   0  -9   2   11.56    0.50
   0  -9  -2   11.83    0.78
   0  -9   2   12.23    0.79
   0  -9   2   11.41    0.50
   0   9   2   10.96    0.75
   0   9   2   12.33    0.74
   0   9  -2   11.50    0.75
   0   9  -2    9.34    0.73
   0   9  -2   10.51    0.48
   0   9  -2   10.57    0.74
   1  -9   2   63.33    1.88
  -1  -9  -2   61.16    1.48
  -1  -9  -2   61.68    2.00
   1  -9   2   62.53    1.35
  -1  -9  -2   63.57    2.06
   1  -9   2   62.01    1.92
  -1   9  -2   62.31    1.53
   1   9   2   62.37    1.94
  -1   9  -2   60.61    1.85
  -1   9  -2   64.03    2.01
  -1   9  -2   60.77    1.87
  -2  -9  -2   16.16    1.03
   2  -9   2   14.39    0.78
  -2  -9  -2   13.65    0.92
   2  -9   2   14.14    0.98
   2  -9   2   13.60    0.84
  -2   9  -2   13.69    0.66
  -2   9  -2   14.49    0.76
  -2   9  -2   13.15    0.76
  -2   9  -2   13.26    0.43
  -2   9  -2   15.07    0.96
   2   9   2   15.40    0.94
  -3  -9  -2   30.24    1.52
   3  -9   2   30.95    1.37
   3  -9   2   31.45    1.32
   3  -9   2   29.66    1.47
   3   9   2   30.79    1.56
  -3   9  -2   28.96    1.42
   3   9   2   30.66    1.44
   3   9   2   29.82    1.23
  -3   9  -2   29.51    1.08
  -3   9  -2   29.12    0.84
  -4  -9  -2    8.46    0.97
   4  -9   2    7.73    0.95
   4  -9   2   11.05    0.84
  -4   9  -2   10.96    0.56
   4   9   2    9.35    1.04
  -4   9  -2   10.74    0.94
  -5  -9  -2    4.65    0.87
   5  -9   2    3.96    0.82
  -5   9  -2    4.30    0.77
   5   9   2    3.93    0.79
   5   9   2    5.20    0.97
  -6  -9  -2   15.17    1.27
   6  -9   2   16.36    1.46
   6   9   2   13.13    1.52
  -6   9  -2   15.44    1.25
  -6 -10   2   -0.05    0.39
   6 -10  -2    0.37    0.43
   6 -10  -2   -0.09    0.53
   6 -10  -2   -0.20    0.51
  -6 -10   2    0.11    0.43
  -6  10   2    0.39    0.45
  -6  10   2    0.97    0.44
   6  10  -2    0.24    0.42
   5 -10  -2    0.03    0.45
   5 -10  -2    0.16    0.34
   5 -10  -2    0.54    0.49
  -5 -10   2    0.52    0.36
  -5 -10   2    0.22    0.38
  -5  10   2    0.11    0.31
  -5  10   2    0.20    0.33
  -5  10   2    0.39    0.40
   5  10  -2    0.09    0.38
   5  10  -2    0.33    0.35
   4 -10  -2    3.97    0.53
  -4 -10   2    4.18    0.61
   4 -10  -2    2.53    0.59
  -4 -10   2    3.60    0.73
   4 -10  -2    3.20    0.62
  -4  10   2    3.26    0.47
   4  10  -2    5.01    0.82
  -4  10   2    4.04    0.73
  -4  10   2    2.74    0.52
   4  10  -2    3.27    0.52
   3 -10  -2   36.73    1.17
  -3 -10   2   37.60    1.69
   3 -10  -2   36.70    1.67
   3 -10  -2   38.31    1.58
  -3 -10   2   36.88    1.33
  -3  10   2   36.04    1.09
   3  10  -2   35.03    1.19
  -3  10   2   37.28    1.17
  -3  10   2   35.71    1.59
   3  10  -2   37.74    1.73
   3  10  -2   37.43    1.27
  -3  10   2   37.93    1.41
  -3  10   2   34.76    1.38
   2 -10  -2   67.77    2.31
  -2 -10   2   73.60    1.87
  -2 -10   2   71.02    2.35
   2 -10  -2   70.80    1.97
   2  10  -2   72.88    2.02
   2  10  -2   72.44    1.76
  -2  10   2   73.18    2.02
   2  10  -2   74.05    2.43
  -2  10   2   70.23    2.07
  -2  10   2   71.13    1.97
  -1 -10   2   74.79    2.35
   1 -10  -2   75.03    2.37
  -1 -10   2   74.97    1.95
   1 -10  -2   75.37    2.17
  -1 -10   2   74.12    1.77
  -1  10   2   74.90    2.16
   1  10  -2   79.12    2.43
  -1  10   2   78.52    2.24
  -1  10   2   72.64    2.14
   1  10  -2   77.48    2.18
   1  10  -2   74.64    1.79
   0 -10   2   53.64    1.87
   0 -10   2   53.27    1.38
   0 -10  -2   55.07    1.94
   0 -10   2   52.05    1.82
   0 -10  -2   52.70    1.83
   0  10   2   53.59    1.83
   0  10   2   52.29    1.87
   0  10  -2   56.19    1.90
   0  10  -2   53.86    1.85
   0  10  -2   53.08    1.30
   0  10   2   53.27    1.76
   0  10  -2   54.91    1.83
   1 -10   2   34.96    1.41
  -1 -10  -2   33.52    0.93
   1 -10   2   32.92    0.88
  -1 -10  -2   34.66    1.48
  -1 -10  -2   35.41    1.52
   1 -10   2   35.31    1.36
  -1  10  -2   33.36    1.44
   1  10   2   30.80    1.34
  -1  10  -2   33.39    1.34
   1  10   2   32.19    1.50
  -1  10  -2   33.59    0.98
  -1  10  -2   33.14    1.35
  -2 -10  -2   15.24    1.02
   2 -10   2   15.44    0.96
  -2 -10  -2   19.04    1.17
   2 -10   2   16.66    0.87
  -2 -10  -2   15.96    0.74
   2 -10   2   14.04    1.01
  -2  10  -2   16.30    0.86
   2  10   2   17.43    1.15
  -2  10  -2   16.06    0.87
  -2  10  -2   15.85    1.04
   2  10   2   16.09    1.01
  -2  10  -2   16.27    0.50
  -2  10  -2   15.57    0.70
  -3 -10  -2   23.52    1.29
   3 -10   2   23.83    1.21
   3 -10   2   23.49    1.35
  -3 -10  -2   21.39    1.36
   3  10   2   25.50    1.33
   3  10   2   21.74    1.39
  -3  10  -2   21.61    0.96
  -3  10  -2   20.68    1.25
   4 -10   2    4.20    0.78
   4 -10   2    5.03    0.73
  -4 -10  -2    3.94    0.76
  -4  10  -2    4.92    0.79
   4  10   2    4.27    0.76
  -4  10  -2    4.88    0.42
  -5 -10  -2   14.29    1.11
  -5 -10  -2   15.43    1.33
   5 -10   2   15.57    1.38
   5  10   2   15.24    1.32
  -5  10  -2   14.92    1.21
   6 -11  -2    5.63    1.01
   6 -11  -2    6.71    1.06
  -6 -11   2    7.65    1.08
  -6  11   2    7.99    1.10
   6  11  -2    7.32    0.99
   5 -11  -2   16.73    1.28
  -5 -11   2   17.36    1.37
  -5 -11   2   17.60    1.16
   5 -11  -2   15.83    1.31
  -5  11   2   16.84    1.08
   5  11  -2   18.04    1.12
   5  11  -2   18.19    1.43
  -5  11   2   19.56    1.36
   4 -11  -2    5.22    0.80
  -4 -11   2    3.72    0.62
   4 -11  -2    4.15    0.81
  -4 -11   2    3.82    0.73
  -4  11   2    5.15    0.84
   4  11  -2    5.37    0.65
  -4  11   2    4.70    0.66
   4  11  -2    4.38    0.82
  -3 -11   2   11.34    0.73
   3 -11  -2   11.07    1.01
  -3 -11   2   11.79    1.02
   3  11  -2    9.60    0.65
   3  11  -2   11.10    1.02
  -3  11   2   11.27    0.66
   3  11  -2   11.48    0.68
  -3  11   2   11.97    0.99
  -3  11   2   12.31    0.83
   2 -11  -2   17.42    0.90
  -2 -11   2   17.40    1.16
   2 -11  -2   17.23    1.17
  -2 -11   2   18.17    0.78
   2  11  -2   17.41    0.92
   2  11  -2   19.29    1.24
  -2  11   2   15.89    0.94
  -2  11   2   17.52    0.93
  -1 -11   2    9.75    0.86
  -1 -11   2    8.92    0.48
   1 -11  -2    9.50    0.74
   1 -11  -2   10.19    1.05
  -1 -11   2    8.85    0.60
  -1  11   2   10.06    0.74
   1  11  -2    8.99    0.74
  -1  11   2    8.80    0.71
  -1  11   2    7.78    0.72
   1  11  -2    8.53    0.90
   0 -11  -2   36.43    1.55
   0 -11  -2   36.10    1.62
   0 -11   2   37.92    1.61
   0 -11   2   39.92    1.59
   0 -11   2   35.85    1.11
   0  11   2   37.95    1.49
   0  11  -2   35.61    0.97
   0  11  -2   40.40    1.57
   0  11   2   36.62    1.58
   0  11  -2   39.22    1.61
  -1 -11  -2    3.17    0.58
   1 -11   2    4.27    0.61
  -1 -11  -2    3.73    0.30
   1 -11   2    3.58    0.34
  -1 -11  -2    3.11    0.61
  -1 -11  -2    3.29    0.27
   1 -11   2    4.03    0.63
  -1  11  -2    4.61    0.63
   1  11   2    3.95    0.62
  -1  11  -2    3.59    0.31
   1  11   2    2.55    0.57
  -1  11  -2    3.18    0.59
  -1  11  -2    4.81    0.64
  -2 -11  -2   20.82    1.30
   2 -11   2   19.30    1.13
   2 -11   2   19.33    1.00
  -2 -11  -2   19.90    1.21
  -2  11  -2   19.25    1.20
  -2  11  -2   20.69    1.04
   2  11   2   18.95    1.28
   2  11   2   19.49    1.15
   3 -11   2    4.79    0.72
   3 -11   2    5.43    0.88
  -3 -11  -2    4.33    0.75
  -3 -11  -2    4.86    0.83
   3  11   2    3.76    0.73
   3  11   2    5.03    0.54
  -3  11  -2    3.55    0.67
  -3  11  -2    4.91    0.56
  -4 -11  -2    3.51    0.77
  -4 -11  -2    3.15    0.58
   4 -11   2    2.49    0.72
  -4 -11  -2    2.78    0.70
   4 -11   2    3.86    0.68
   4  11   2    2.68    0.69
  -4  11  -2    3.07    0.39
  -4  11  -2    4.54    0.84
  -5 -11  -2    0.48    0.46
   5 -11   2    0.98    0.57
  -5 -11  -2    0.06    0.49
  -5  11  -2    0.28    0.50
   5  11   2    0.95    0.57
   5 -12  -2    1.58    0.67
  -5 -12   2    3.51    0.80
  -5 -12   2    4.61    0.77
   5 -12  -2    3.56    0.82
  -5  12   2    3.54    0.79
  -5  12   2    3.25    0.63
   5  12  -2    2.34    0.76
   5  12  -2    4.37    0.72
   4 -12  -2    1.86    0.63
  -4 -12   2    2.33    0.48
  -4 -12   2    1.79    0.57
   4 -12  -2    1.48    0.61
  -4  12   2    2.81    0.54
   4  12  -2    2.56    0.69
  -4  12   2    2.75    0.64
  -3 -12   2   38.38    1.35
   3 -12  -2   36.65    1.81
  -3 -12   2   35.78    1.81
  -3  12   2   36.92    1.31
   3  12  -2   39.32    1.91
  -3  12   2   35.65    1.74
  -3  12   2   38.04    1.52
   3  12  -2   34.93    1.31
   2 -12  -2   55.05    2.18
  -2 -12   2   58.05    1.58
  -2 -12   2   53.89    2.17
  -2  12   2   56.11    2.14
   2  12  -2   56.81    1.86
  -2  12   2   58.17    1.93
  -2  12   2   56.68    1.87
   2  12  -2   57.55    2.27
   1 -12  -2   64.66    2.37
  -1 -12   2   68.22    1.61
  -1 -12   2   70.48    2.40
   1 -12  -2   65.79    2.17
   1  12  -2   67.90    2.18
   1  12  -2   69.79    2.44
  -1  12   2   69.63    2.25
  -1  12   2   69.58    2.16
   0 -12   2   30.44    1.51
   0 -12   2   30.68    1.45
   0 -12  -2   31.70    1.49
   0 -12  -2   27.65    1.47
   0  12   2   29.67    1.35
   0  12  -2   32.33    1.52
   0  12  -2   32.24    1.46
   0  12   2   30.95    1.49
   1 -12   2    8.50    0.76
  -1 -12  -2    8.46    0.93
  -1 -12  -2    7.57    0.90
   1 -12   2    8.95    0.98
   1  12   2    8.06    0.92
  -1  12  -2   10.97    1.10
  -1  12  -2   10.41    0.85
   1  12   2   10.04    0.85
  -2 -12  -2    6.93    0.94
  -2 -12  -2    7.45    0.93
   2 -12   2    9.68    1.03
   2  12   2    7.07    0.93
  -2  12  -2    7.13    0.77
   2  12   2    7.10    0.87
   2  12   2    8.93    0.70
  -2  12  -2    7.84    0.94
  -3 -12  -2    2.21    0.61
   3 -12   2    2.29    0.65
  -3 -12  -2    2.93    0.71
   3 -12   2    2.94    0.65
  -3  12  -2    2.65    0.47
   3  12   2    2.43    0.69
  -3  12  -2    3.32    0.70
  -4 -12  -2    3.91    0.86
   4 -12   2    2.97    0.69
   4 -12   2    2.64    0.72
  -4 -12  -2    2.94    0.71
  -4  12  -2    3.76    0.80
  -4  12  -2    3.35    0.45
   4  12   2    2.18    0.70
  -5 -12  -2    8.99    1.18
   5 -12   2    7.27    1.16
   5  12   2    6.61    1.05
  -5  12  -2    9.23    1.20
   5 -13  -2    1.57    0.71
   5 -13  -2    1.52    0.68
  -5 -13   2    2.96    1.08
  -5  13   2    2.47    0.75
   5  13  -2    0.70    0.63
   4 -13  -2   10.17    1.21
  -4 -13   2   10.34    1.25
   4  13  -2   13.67    1.44
  -4  13   2   12.46    1.31
  -4  13   2   12.23    0.95
   3 -13  -2    5.40    0.88
  -3 -13   2    5.06    0.81
  -3  13   2    7.53    0.82
  -3  13   2    7.04    0.62
   3  13  -2    6.44    0.94
  -3  13   2    8.03    1.07
   3  13  -2    6.99    0.76
  -2 -13   2   24.37    1.47
   2 -13  -2   22.72    1.46
  -2  13   2   23.38    1.20
  -2  13   2   25.42    1.24
   2  13  -2   24.87    1.21
  -2  13   2   24.85    1.44
   2  13  -2   23.44    1.49
  -1 -13   2    8.62    1.00
   1 -13  -2   10.68    1.00
  -1 -13   2   12.78    1.05
   1 -13  -2   13.17    0.94
  -1  13   2   12.64    0.97
  -1  13   2   12.64    0.91
   1  13  -2   11.13    1.03
   1  13  -2   12.03    0.91
  -1  13   2   13.33    1.03
   0 -13   2    0.99    0.47
   0 -13   2    0.49    0.37
   0 -13  -2    0.50    0.38
   0 -13  -2    0.90    0.46
   0  13   2    0.46    0.35
   0  13  -2    0.65    0.40
   0  13   2    0.37    0.41
   0  13  -2    0.78    0.44
   0  13   2    0.87    0.44
   1 -13   2    8.12    0.88
  -1 -13  -2    9.68    1.14
  -1 -13  -2    9.43    1.06
   1 -13   2    9.12    1.01
   1  13   2    9.32    0.82
   1  13   2    9.35    1.03
  -1  13  -2    6.92    0.88
   1  13   2    9.88    0.87
  -1  13  -2    7.96    0.91
   2 -13   2   19.29    1.26
  -2 -13  -2   18.97    1.31
  -2 -13  -2   19.34    1.38
  -2  13  -2   19.49    1.31
   2  13   2   20.34    1.10
   2  13   2   18.74    1.22
  -2  13  -2   18.38    1.09
   2  13   2   16.50    1.31
   3 -13   2    8.66    1.02
  -3 -13  -2   12.93    1.41
  -3 -13  -2    8.69    1.06
   3  13   2    9.80    1.24
  -3  13  -2    8.39    0.74
  -3  13  -2   11.70    1.28
   4 -13   2    3.92    0.91
   4 -13   2    2.85    0.72
  -4 -13  -2    3.78    0.83
  -4 -13  -2    6.14    1.11
  -4  13  -2    3.09    0.80
   4  13   2    3.03    0.84
   4 -14  -2    2.85    0.81
  -4 -14   2    3.70    0.89
  -4  14   2    2.06    0.72
   4  14  -2    2.07    0.73
   3 -14  -2    1.09    0.61
  -3 -14   2    0.72    0.46
   3  14  -2    0.76    0.52
  -3  14   2    0.62    0.33
  -3  14   2    0.98    0.54
  -3  14   2    0.40    0.38
  -2 -14   2   26.63    1.60
   2 -14  -2   25.98    1.58
  -2  14   2   22.55    1.26
  -2  14   2   24.65    1.28
  -2  14   2   24.86    1.49
   2  14  -2   27.40    1.66
   2  14  -2   25.72    1.30
  -1 -14   2   18.63    1.30
  -1 -14   2   18.46    1.34
   1 -14  -2   17.97    1.34
   1  14  -2   17.02    1.29
  -1  14   2   20.05    1.30
  -1  14   2   19.96    1.25
  -1  14   2   18.84    1.14
   1  14  -2   17.92    1.17
   0 -14   2   13.43    1.06
   0 -14   2    8.34    1.01
   0 -14  -2   10.21    1.15
   0 -14  -2    9.35    1.01
   0  14  -2    9.78    1.06
   0  14   2   10.52    0.89
   0  14  -2   10.06    1.06
   0  14   2   11.78    1.00
   0  14   2    9.95    1.08
  -1 -14  -2   25.22    1.52
   1 -14   2   23.17    1.46
  -1 -14  -2   21.47    1.42
   1  14   2   23.49    1.32
   1  14   2   24.73    1.56
  -1  14  -2   22.32    1.40
   1  14   2   24.58    1.36
  -1  14  -2   24.59    1.39
  -2 -14  -2    7.45    1.03
   2 -14   2    7.99    1.02
  -2 -14  -2    5.45    0.88
   2  14   2    8.02    0.86
   2  14   2    8.45    1.13
  -2  14  -2    5.33    0.88
   2  14   2    6.78    0.90
  -2  14  -2    7.71    0.89
  -3 -14  -2    2.59    0.71
   3 -14   2    3.18    0.76
  -3 -14  -2    3.59    0.82
   3  14   2    1.68    0.66
  -3  14  -2    3.77    0.59
  -4 -14  -2    1.94    0.74
   4 -14   2    2.20    0.71
  -4 -14  -2    1.70    0.70
   4  14   2    1.71    0.74
  -4 -15   2    4.02    0.96
   4 -15  -2    2.97    0.84
   4  15  -2    3.30    0.87
  -3 -15   2    6.49    1.00
   3 -15  -2    7.42    1.15
  -3  15   2    6.77    1.06
  -3  15   2    6.43    0.74
  -3  15   2    7.57    1.17
   3  15  -2    6.54    1.04
  -2 -15   2    0.11    0.45
   2 -15  -2   -0.71    0.39
  -2 -15   2    0.45    0.50
   2  15  -2    0.06    0.44
  -2  15   2   -0.01    0.36
  -2  15   2   -0.47    0.38
  -2  15   2    0.16    0.32
   2  15  -2   -0.32    0.30
   1 -15  -2    2.31    0.72
  -1 -15   2    2.14    0.66
  -1 -15   2    1.90    0.60
   1  15  -2    2.67    0.74
  -1  15   2    2.61    0.63
  -1  15   2    2.03    0.63
   1  15  -2    1.57    0.52
  -1  15   2    2.65    0.60
   0 -15  -2    4.54    0.84
   0 -15   2    4.82    0.84
   0  15  -2    6.97    0.98
   0  15   2    6.32    0.88
   0  15   2    6.38    0.94
   0  15   2    4.27    0.72
   0  15  -2    5.01    0.82
  -1 -15  -2    7.21    0.99
  -1 -15  -2    9.26    1.21
   1 -15   2   10.56    1.21
   1  15   2   10.19    1.12
   1  15   2    9.01    1.16
  -1  15  -2   11.74    1.29
   1  15   2    9.03    1.00
  -1  15  -2    8.96    1.06
  -2 -15  -2    2.97    0.76
   2 -15   2    5.58    0.94
  -2 -15  -2    4.96    0.93
  -2  15  -2    4.45    0.90
   2  15   2    5.17    1.00
   2  15   2    3.04    0.62
  -2  15  -2    3.07    0.63
   2  15   2    3.74    0.76
  -3 -15  -2    4.23    0.90
  -3 -15  -2    4.27    0.95
   3 -15   2    6.33    1.00
  -3  15  -2    4.94    0.70
   3  15   2    5.02    1.01
  -3 -16   2    4.41    0.94
  -3 -16   2    4.62    0.96
   3 -16  -2    3.77    0.91
  -3  16   2    5.24    0.73
  -2 -16   2    0.09    0.56
  -2 -16   2   -0.34    0.41
   2 -16  -2   -0.19    0.53
  -2  16   2    0.05    0.38
  -2  16   2   -0.17    0.38
   2  16  -2    0.03    0.52
  -2  16   2   -0.30    0.44
   2  16  -2    0.45    0.40
   1 -16  -2    6.13    1.01
  -1 -16   2    8.54    1.23
  -1 -16   2    6.03    0.99
  -1  16   2    7.73    1.05
   1  16  -2    6.69    0.93
  -1  16   2    7.25    1.07
  -1  16   2    7.92    0.98
   1  16  -2    7.98    1.17
   0 -16  -2    1.06    0.67
   0 -16   2    1.86    0.66
   0  16   2    1.52    0.53
   0  16   2    1.59    0.63
   0  16  -2    2.03    0.65
   0  16  -2    1.74    0.61
   0  16   2    1.57    0.58
  -1 -16  -2    3.49    0.81
   1 -16   2    3.09    0.85
  -1 -16  -2    4.25    0.88
  -1  16  -2    3.52    0.72
   1  16   2    2.41    0.73
   1  16   2    4.69    0.83
   1  16   2    4.10    0.78
  -1  16  -2    4.04    0.87
   2 -16   2    2.40    0.75
  -2 -16  -2    3.04    0.89
  -2 -16  -2    2.50    0.75
  -2  16  -2    3.10    0.65
  -2  16  -2    3.16    1.24
   2  16   2    2.37    0.63
   2 -17  -2    6.33    1.12
  -2 -17   2    4.88    0.99
  -2 -17   2    5.75    1.03
  -2  17   2    7.05    0.96
  -1 -17   2    1.51    0.65
   1 -17  -2    0.50    0.52
  -1  17   2    0.68    0.70
  -1  17   2    0.60    0.56
   1  17  -2    0.16    0.43
  -1  17   2    0.05    0.47
   0 -17   2   -0.39    0.50
   0 -17  -2   -0.20    0.55
   0  17   2    0.94    0.51
   0  17  -2    0.84    0.52
   0  17   2    1.14    0.59
  -1 -17  -2    6.67    1.21
   1 -17   2    6.36    1.09
   1  17   2    6.15    0.94
   1  17   2    7.39    1.02
   7   0  -3    0.50    0.53
  -7   0   3    0.65    0.26
  -7   0   3    0.23    0.42
   7   0  -3    0.06    0.44
  -6   0   3    0.11    0.17
   6   0  -3   -0.68    0.29
  -6   0   3    0.46    0.34
   6   0  -3    0.07    0.30
  -5   0   3   15.00    0.69
  -5   0   3   15.39    0.73
   5   0  -3   17.60    1.04
   5   0  -3   15.07    1.00
  -5   0   3   17.09    1.04
   5   0  -3   15.69    0.75
   5   0  -3   15.18    0.98
  -4   0   3   88.10    2.13
  -4   0   3   87.37    2.09
   4   0  -3   87.20    2.49
   4   0  -3   90.48    2.37
  -4   0   3   87.82    2.15
   4   0  -3   89.06    2.15
   4   0  -3   88.71    2.45
  -4   0   3   86.94    2.44
   3   0  -3    4.38    0.37
  -3   0   3    4.99    0.38
   3   0  -3    5.56    0.66
  -3   0   3    4.13    0.36
  -3   0   3    4.68    0.52
  -3   0   3    4.67    0.36
   3   0  -3    5.02    0.45
   3   0  -3    4.57    0.40
   3   0  -3    4.47    0.52
   3   0  -3    4.84    0.39
  -2   0   3    8.20    0.47
   2   0  -3    8.13    0.51
  -2   0   3    7.63    0.46
   2   0  -3    7.46    0.46
   2   0  -3    7.78    0.47
  -2   0   3    8.17    0.46
  -2   0   3    7.53    0.50
   2   0  -3    7.59    0.51
  -2   0   3    8.79    0.51
   2   0  -3    7.38    0.50
  -1   0   3   25.05    0.86
   1   0  -3   25.13    0.83
   1   0  -3   23.80    0.78
  -1   0   3   23.40    0.83
   1   0  -3   25.76    0.87
   1   0  -3   23.69    0.83
  -1   0   3   23.55    0.83
   1   0  -3   24.23    0.85
  -1   0   3   23.82    0.78
  -1   0   3   23.45    0.82
   1   0  -3   24.49    0.83
   0   0   3    1.08    0.25
   0   0   3    1.08    0.22
   0   0  -3    1.17    0.22
   0   0  -3    1.26    0.24
   0   0  -3    1.53    0.26
   0   0   3    1.54    0.22
   0   0  -3    1.32    0.21
   0   0  -3    1.43    0.26
   0   0   3    1.72    0.28
   0   0   3    1.60    0.27
  -1   0  -3    0.48    0.20
  -1   0  -3    0.27    0.14
  -1   0  -3    0.52    0.19
   1   0   3    0.32    0.15
   1   0   3    0.23    0.17
  -1   0  -3    0.15    0.15
   1   0   3    0.30    0.17
  -1   0  -3    0.22    0.18
   1   0   3    0.65    0.20
   2   0   3    3.87    0.45
   2   0   3    3.27    0.41
  -2   0  -3    3.95    0.42
   2   0   3    4.43    0.38
   2   0   3    3.96    0.41
  -2   0  -3    2.78    0.38
  -2   0  -3    3.38    0.41
  -2   0  -3    3.84    0.42
   2   0   3    3.03    0.38
  -2   0  -3    2.44    0.38
  -3   0  -3   52.33    1.51
  -3   0  -3   53.57    1.58
   3   0   3   51.81    1.70
  -3   0  -3   53.04    1.62
  -3   0  -3   53.27    1.64
   3   0   3   53.74    1.65
   3   0   3   53.70    1.53
  -4   0  -3   33.44    1.31
  -4   0  -3   34.00    1.19
   4   0   3   33.83    1.50
  -4   0  -3   33.20    1.30
   4   0   3   34.20    1.19
   4   0   3   32.06    1.29
  -5   0  -3    4.69    0.63
   5   0   3    4.10    0.77
  -5   0  -3    4.39    0.51
   6   0   3    7.94    1.04
  -6   0  -3   10.52    0.83
   7   0   3    0.09    0.61
  -7   0  -3    1.17    0.44
  -7  -1   3    5.57    0.89
   7  -1  -3    6.36    0.96
   7  -1  -3    5.88    0.93
  -7  -1   3    5.64    0.61
   7   1  -3    6.62    1.01
   7   1  -3    7.17    1.04
  -7   1   3    5.21    0.88
   6  -1  -3    8.30    0.95
  -6  -1   3   10.76    1.12
   6  -1  -3    8.13    0.98
  -6  -1   3    9.11    0.65
   6  -1  -3    9.69    1.06
   6   1  -3    8.31    0.95
   6   1  -3    8.10    0.94
  -6   1   3    8.66    0.60
  -6   1   3    9.69    0.53
  -6   1   3   10.45    0.94
   5  -1  -3    1.43    0.45
   5  -1  -3    0.98    0.40
  -5  -1   3    1.32    0.44
   5  -1  -3    0.43    0.35
  -5  -1   3    0.92    0.26
  -5  -1   3    0.78    0.21
  -5   1   3    0.85    0.22
  -5   1   3    1.07    0.27
  -5   1   3    0.82    0.36
   5   1  -3    0.70    0.33
   5   1  -3    1.11    0.43
   5   1  -3    0.95    0.28
   4  -1  -3   11.23    0.64
  -4  -1   3   10.02    0.61
   4  -1  -3    9.09    0.66
  -4  -1   3   10.34    0.73
  -4  -1   3   10.26    0.51
  -4  -1   3   10.06    0.60
   4  -1  -3    9.39    0.71
   4  -1  -3    9.71    0.76
   4  -1  -3    9.83    0.52
   4   1  -3   10.42    0.71
  -4   1   3   10.66    0.73
  -4   1   3    9.50    0.51
  -4   1   3   10.31    0.53
   4   1  -3   10.05    0.61
  -4   1   3    9.41    0.55
   4   1  -3   10.27    0.71
   3  -1  -3    9.95    0.50
   3  -1  -3    9.39    0.50
   3  -1  -3    9.61    0.62
  -3  -1   3    8.23    0.52
   3  -1  -3    9.64    0.62
  -3  -1   3   10.09    0.49
  -3  -1   3    9.48    0.63
   3  -1  -3    9.97    0.67
   3  -1  -3    9.09    0.54
  -3  -1   3   10.31    0.57
  -3   1   3   10.29    0.54
   3   1  -3    9.95    0.57
   3   1  -3    9.41    0.64
  -3   1   3   10.34    0.64
   3   1  -3   10.02    0.57
  -3   1   3   10.42    0.51
  -3   1   3   10.76    0.64
  -3   1   3    9.57    0.49
   3   1  -3    9.57    0.57
   3   1  -3   10.06    0.63
   2  -1  -3   15.46    0.69
  -2  -1   3   14.71    0.67
   2  -1  -3   14.33    0.71
  -2  -1   3   14.64    0.69
  -2  -1   3   14.96    0.61
   2  -1  -3   14.22    0.61
  -2  -1   3   14.57    0.67
   2  -1  -3   16.04    0.71
   2  -1  -3   14.52    0.62
   2   1  -3   16.72    0.64
   2   1  -3   15.44    0.69
   2   1  -3   16.27    0.73
  -2   1   3   17.95    0.67
  -2   1   3   14.59    0.67
   2   1  -3   16.07    0.71
  -2   1   3   16.00    0.66
  -2   1   3   15.29    0.69
   2   1  -3   17.09    0.71
   2   1  -3   16.57    0.72
  -2   1   3   15.62    0.63
   1  -1  -3  140.41    3.06
  -1  -1   3  140.51    3.11
   1  -1  -3  146.07    3.05
  -1  -1   3  144.13    3.12
   1  -1  -3  144.49    3.07
  -1  -1   3  148.33    3.07
   1  -1  -3  149.65    3.08
  -1  -1   3  149.21    3.12
  -1  -1   3  142.48    2.97
   1  -1  -3  143.96    3.09
  -1   1   3  147.53    3.05
   1   1  -3  152.24    3.12
   1   1  -3  148.02    3.06
  -1   1   3  147.80    3.09
  -1   1   3  148.02    3.09
  -1   1   3  145.80    3.08
  -1   1   3  141.39    3.07
   1   1  -3  144.90    3.12
   1   1  -3  147.12    3.05
   1   1  -3  144.69    3.12
   0  -1   3  114.05    2.54
   0  -1  -3  106.68    2.45
   0  -1  -3  111.30    2.52
   0  -1   3  113.95    2.50
   0  -1  -3  109.09    2.47
   0  -1  -3  115.16    2.57
   0  -1   3  110.45    2.29
   0  -1   3  114.47    2.55
   0  -1  -3  113.19    2.41
   0  -1   3  111.93    2.48
   0   1   3  113.17    2.42
   0   1   3  112.12    2.53
   0   1  -3  110.30    2.52
   0   1   3  112.27    2.54
   0   1   3  108.83    2.47
   0   1  -3  112.91    2.29
   0   1   3  113.95    2.50
   0   1  -3  114.10    2.50
   0   1  -3  114.64    2.55
   1  -1   3    0.23    0.12
   1  -1   3    0.31    0.17
  -1  -1  -3   -0.05    0.13
  -1  -1  -3    0.42    0.20
  -1  -1  -3    0.06    0.13
  -1  -1  -3    0.35    0.17
   1  -1   3    0.26    0.15
   1  -1   3    0.02    0.13
   1  -1   3    0.24    0.17
  -1  -1  -3    0.20    0.16
  -1   1  -3    0.13    0.16
  -1   1  -3    0.68    0.21
   1   1   3    0.37    0.17
  -1   1  -3    0.36    0.19
   1   1   3    0.49    0.20
   1   1   3    0.26    0.18
  -1   1  -3    0.31    0.17
  -1   1  -3    0.26    0.12
   1   1   3    0.37    0.16
  -2  -1  -3   36.14    1.28
  -2  -1  -3   39.39    1.18
   2  -1   3   38.87    1.22
  -2  -1  -3   36.85    1.19
   2  -1   3   38.70    1.27
  -2  -1  -3   39.37    1.32
   2  -1   3   40.16    1.27
  -2  -1  -3   38.80    1.30
   2  -1   3   39.66    1.26
  -2   1  -3   40.81    1.34
   2   1   3   38.60    1.17
   2   1   3   40.65    1.23
  -2   1  -3   38.65    1.10
  -2   1  -3   40.83    1.27
  -2   1  -3   38.15    1.22
   2   1   3   41.01    1.32
   2   1   3   39.47    1.26
   2   1   3   38.93    1.31
  -2   1  -3   39.76    1.27
  -3  -1  -3    0.53    0.22
  -3  -1  -3    0.53    0.24
   3  -1   3    0.86    0.26
   3  -1   3    0.35    0.26
   3  -1   3    0.89    0.26
  -3  -1  -3    0.66    0.26
  -3   1  -3    0.82    0.24
   3   1   3    1.09    0.35
  -3   1  -3    0.34    0.19
   3   1   3    0.38    0.23
  -3   1  -3    0.77    0.25
   3   1   3    0.76    0.22
  -3   1  -3    0.75    0.25
  -4  -1  -3   13.78    0.87
  -4  -1  -3   13.31    0.84
   4  -1   3   14.70    0.83
   4  -1   3   13.66    0.96
  -4  -1  -3   15.10    0.73
   4   1   3   13.34    0.97
  -4   1  -3   14.40    0.82
   4   1   3   14.08    0.71
   4   1   3   14.54    0.88
  -4   1  -3   12.90    0.78
  -4   1  -3   13.06    0.75
   5  -1   3   10.04    1.08
  -5  -1  -3    6.41    0.73
  -5  -1  -3    7.46    0.55
   5   1   3    7.43    0.96
  -5   1  -3    7.85    0.63
  -5   1  -3    7.02    0.73
  -6  -1  -3   14.80    1.02
   6  -1   3   16.28    1.35
  -6   1  -3   16.36    0.96
   6   1   3   15.69    1.33
  -7  -1  -3    3.87    0.67
   7  -1   3    3.69    0.93
   7   1   3    4.09    0.95
  -7   1  -3    2.77    0.77
  -7  -2   3    5.86    0.98
  -7  -2   3    4.69    0.62
   7  -2  -3    4.31    0.86
   7  -2  -3    3.27    0.74
  -7   2   3    3.94    0.81
   7   2  -3    3.89    0.80
   7   2  -3    3.46    0.79
   6  -2  -3    5.56    0.83
   6  -2  -3    5.92    0.83
   6  -2  -3    3.80    0.73
  -6  -2   3    5.83    0.67
  -6  -2   3    6.47    0.86
  -6   2   3    5.97    0.34
   6   2  -3    7.28    0.94
   6   2  -3    6.03    0.87
  -6   2   3    6.43    0.56
  -6   2   3    4.65    0.75
  -5  -2   3   34.46    1.29
   5  -2  -3   31.17    1.47
  -5  -2   3   33.94    0.95
   5  -2  -3   33.81    0.98
   5  -2  -3   34.33    1.47
  -5  -2   3   35.68    1.53
   5  -2  -3   33.13    1.44
   5   2  -3   34.17    1.49
  -5   2   3   34.93    1.50
  -5   2   3   34.88    0.97
   5   2  -3   33.46    1.47
   5   2  -3   36.11    1.33
  -4  -2   3   42.20    1.14
   4  -2  -3   42.90    1.53
   4  -2  -3   42.39    1.59
   4  -2  -3   43.14    1.15
  -4  -2   3   41.81    1.42
  -4  -2   3   42.32    1.40
   4  -2  -3   43.24    1.46
  -4  -2   3   40.36    1.51
   4   2  -3   42.25    1.49
   4   2  -3   42.12    1.40
  -4   2   3   44.29    1.54
   4   2  -3   43.10    1.54
  -4   2   3   42.23    1.15
  -4   2   3   42.31    1.13
  -4   2   3   41.95    1.50
  -3  -2   3    6.64    0.51
   3  -2  -3    5.57    0.47
   3  -2  -3    6.55    0.46
  -3  -2   3    4.98    0.52
   3  -2  -3    6.24    0.65
   3  -2  -3    6.86    0.52
  -3  -2   3    6.07    0.48
   3  -2  -3    6.98    0.39
  -3  -2   3    6.45    0.39
   3  -2  -3    5.86    0.38
  -3   2   3    5.76    0.37
  -3   2   3    6.13    0.38
   3   2  -3    5.72    0.48
  -3   2   3    5.41    0.48
   3   2  -3    6.38    0.52
  -3   2   3    6.00    0.50
   2  -2  -3   18.78    0.70
  -2  -2   3   19.34    0.71
  -2  -2   3   18.77    0.81
   2  -2  -3   19.28    0.70
   2  -2  -3   18.74    0.82
   2  -2  -3   19.75    0.78
  -2  -2   3   21.11    0.83
  -2  -2   3   18.63    0.80
   2  -2  -3   19.18    0.79
  -2   2   3   20.20    0.72
  -2   2   3   19.94    0.78
   2   2  -3   19.15    0.81
   2   2  -3   18.24    0.69
   2   2  -3   19.22    0.80
   2   2  -3   20.36    0.82
  -2   2   3   19.99    0.80
   2   2  -3   19.96    0.82
  -2   2   3   19.26    0.71
   1  -2  -3  362.11    6.88
   1  -2  -3  347.30    6.87
  -1  -2   3  362.16    6.74
  -1  -2   3  365.32    6.92
   1  -2  -3  361.70    6.86
  -1  -2   3  367.65    6.87
   1  -2  -3  364.69    6.90
  -1  -2   3  359.58    6.97
  -1  -2   3  364.16    6.99
   1  -2  -3  355.39    6.89
  -1   2   3  359.40    6.89
  -1   2   3  362.90    6.91
   1   2  -3  372.68    6.90
   1   2  -3  348.12    6.96
   1   2  -3  356.43    6.96
  -1   2   3  349.92    6.87
   1   2  -3  367.49    6.87
   1   2  -3  357.85    6.91
  -1   2   3  357.22    6.88
  -1   2   3  360.54    6.86
   0  -2  -3    4.04    0.40
   0  -2   3    2.84    0.21
   0  -2  -3    3.25    0.28
   0  -2  -3    3.71    0.41
   0  -2   3    3.09    0.35
   0  -2  -3    2.82    0.31
   0  -2   3    2.54    0.32
   0  -2   3    2.49    0.32
   0  -2  -3    2.66    0.31
   0  -2  -3    2.97    0.37
   0  -2   3    2.86    0.33
   0   2   3    3.59    0.32
   0   2  -3    3.22    0.36
   0   2   3    4.16    0.37
   0   2  -3    2.66    0.32
   0   2   3    3.59    0.40
   0   2  -3    3.23    0.36
   0   2  -3    3.60    0.33
   0   2   3    3.45    0.36
   0   2  -3    3.28    0.22
   0   2   3    3.40    0.35
   1  -2   3   76.43    1.92
   1  -2   3   76.21    1.61
   1  -2   3   78.29    1.87
  -1  -2  -3   73.48    1.83
  -1  -2  -3   74.13    1.97
  -1  -2  -3   76.50    2.00
   1  -2   3   76.27    1.93
   1  -2   3   74.87    1.91
  -1  -2  -3   75.60    1.91
  -1  -2  -3   76.62    1.88
   1   2   3   76.51    1.98
  -1   2  -3   74.93    1.90
   1   2   3   75.30    1.84
   1   2   3   76.75    2.00
  -1   2  -3   79.40    1.62
  -1   2  -3   78.51    1.94
  -1   2  -3   76.40    1.91
   1   2   3   77.87    1.88
  -1   2  -3   75.01    1.91
  -2  -2  -3    6.07    0.43
  -2  -2  -3    6.76    0.54
   2  -2   3    6.99    0.51
  -2  -2  -3    6.22    0.49
   2  -2   3    6.17    0.48
  -2  -2  -3    5.48    0.50
   2  -2   3    6.27    0.50
   2  -2   3    7.05    0.50
  -2  -2  -3    6.93    0.53
  -2   2  -3    6.84    0.51
   2   2   3    6.75    0.50
  -2   2  -3    6.98    0.49
  -2   2  -3    6.73    0.49
  -2   2  -3    7.51    0.54
   2   2   3    7.17    0.45
  -2   2  -3    6.58    0.37
   2   2   3    6.64    0.50
   2   2   3    6.27    0.54
   3  -2   3   34.17    1.35
  -3  -2  -3   34.55    1.33
  -3  -2  -3   34.14    1.31
   3  -2   3   32.00    1.21
   3  -2   3   33.16    1.18
  -3  -2  -3   32.16    1.06
  -3   2  -3   33.91    1.09
  -3   2  -3   33.37    1.17
  -3   2  -3   33.09    1.17
   3   2   3   33.52    1.31
   3   2   3   33.97    1.32
  -3   2  -3   32.79    1.19
   3   2   3   33.26    1.07
   4  -2   3   79.89    2.48
   4  -2   3   80.29    2.16
  -4  -2  -3   81.81    2.36
  -4  -2  -3   76.03    2.32
  -4  -2  -3   77.57    1.95
   4   2   3   79.75    1.97
   4   2   3   80.22    2.37
  -4   2  -3   77.26    2.15
  -4   2  -3   77.84    2.12
  -4   2  -3   75.68    2.10
   4   2   3   73.26    2.40
   5  -2   3    1.73    0.55
  -5  -2  -3    1.37    0.42
  -5  -2  -3    1.55    0.31
  -5   2  -3    1.95    0.40
   5   2   3    1.83    0.69
   5   2   3    1.33    0.54
  -5   2  -3    1.76    0.40
   6  -2   3   -0.01    0.48
  -6  -2  -3    1.27    0.44
   6   2   3    0.01    0.47
  -6   2  -3    1.03    0.35
   7  -3  -3    0.06    0.50
  -7  -3   3    0.32    0.32
   7  -3  -3    0.23    0.49
  -7  -3   3    0.53    0.47
   7  -3  -3   -0.37    0.33
   7   3  -3   -0.47    0.41
  -7   3   3    0.49    0.44
  -7   3   3    0.29    0.41
   7   3  -3    0.22    0.43
   6  -3  -3    7.12    0.93
   6  -3  -3    5.96    0.88
  -6  -3   3    5.93    0.86
  -6  -3   3    6.69    0.75
   6  -3  -3    7.04    0.94
  -6   3   3    6.54    0.83
   6   3  -3    5.88    0.86
   6   3  -3    6.38    0.93
  -6   3   3    6.64    0.72
  -6   3   3    5.74    0.83
  -5  -3   3    4.52    0.67
   5  -3  -3    5.01    0.28
   5  -3  -3    5.13    0.78
  -5  -3   3    4.52    0.59
   5  -3  -3    5.62    0.74
   5  -3  -3    4.90    0.70
  -5  -3   3    4.68    0.30
   5  -3  -3    4.99    0.36
  -5   3   3    5.18    0.27
  -5   3   3    3.76    0.59
  -5   3   3    4.58    0.26
   5   3  -3    6.07    0.82
   5   3  -3    4.88    0.70
  -5   3   3    4.69    0.67
   5   3  -3    4.90    0.61
  -4  -3   3   25.68    1.18
   4  -3  -3   26.87    1.11
  -4  -3   3   27.22    1.14
   4  -3  -3   26.42    0.77
  -4  -3   3   25.40    1.09
   4  -3  -3   27.29    1.25
   4  -3  -3   25.99    0.77
   4  -3  -3   26.84    1.16
  -4  -3   3   27.31    0.80
   4   3  -3   27.62    1.19
   4   3  -3   24.39    1.09
  -4   3   3   27.12    0.77
  -4   3   3   25.32    1.14
  -4   3   3   24.90    0.76
  -4   3   3   24.32    1.11
  -3  -3   3   33.90    1.22
   3  -3  -3   31.28    1.24
  -3  -3   3   32.27    1.18
  -3  -3   3   34.70    1.23
   3  -3  -3   34.08    1.20
   3  -3  -3   34.02    1.09
  -3  -3   3   32.70    0.95
   3  -3  -3   31.42    1.15
   3  -3  -3   33.14    0.93
  -3   3   3   31.70    0.92
  -3   3   3   30.96    0.92
  -3   3   3   32.62    1.19
  -3   3   3   33.31    1.16
   3   3  -3   32.07    1.18
   3   3  -3   32.27    1.20
   3   3  -3   30.18    0.92
  -2  -3   3   27.52    1.05
  -2  -3   3   26.78    1.03
  -2  -3   3   29.75    0.91
   2  -3  -3   28.90    1.08
   2  -3  -3   29.52    0.98
   2  -3  -3   28.19    0.98
   2  -3  -3   28.60    0.90
  -2  -3   3   28.74    1.02
   2  -3  -3   29.57    1.04
   2  -3  -3   27.25    0.88
  -2   3   3   28.43    0.89
  -2   3   3   28.32    0.96
  -2   3   3   26.57    0.88
   2   3  -3   28.65    1.05
   2   3  -3   27.88    1.05
  -2   3   3   30.36    1.04
   2   3  -3   27.95    0.90
   2   3  -3   28.21    1.00
   2   3  -3   28.48    1.02
  -1  -3   3  173.17    3.58
   1  -3  -3  171.67    3.60
  -1  -3   3  179.39    3.75
  -1  -3   3  171.10    3.71
   1  -3  -3  175.90    3.65
   1  -3  -3  174.05    3.65
   1  -3  -3  176.17    3.55
  -1  -3   3  173.90    3.62
   1  -3  -3  172.17    3.61
  -1   3   3  172.23    3.60
   1   3  -3  177.08    3.59
  -1   3   3  170.64    3.53
   1   3  -3  174.05    3.60
   1   3  -3  171.18    3.62
  -1   3   3  169.96    3.63
   1   3  -3  176.61    3.74
   1   3  -3  169.29    3.69
  -1   3   3  171.20    3.60
   0  -3   3   22.16    0.84
   0  -3   3   22.05    0.86
   0  -3  -3   21.07    0.76
   0  -3  -3   21.84    0.88
   0  -3  -3   23.59    0.79
   0  -3   3   22.44    0.58
   0  -3  -3   21.83    0.87
   0  -3   3   21.51    0.86
   0  -3   3   23.02    0.83
   0  -3  -3   22.16    0.83
   0   3   3   24.07    0.86
   0   3   3   23.37    0.80
   0   3   3   22.31    0.88
   0   3   3   23.21    0.84
   0   3  -3   23.69    0.87
   0   3  -3   23.65    0.83
   0   3  -3   24.50    0.90
   0   3   3   23.74    0.89
   0   3  -3   23.60    0.89
  -1  -3  -3   25.61    1.02
   1  -3   3   27.26    1.00
   1  -3   3   26.46    0.97
   1  -3   3   27.94    0.98
  -1  -3  -3   27.44    0.83
   1  -3   3   26.27    0.97
  -1  -3  -3   27.08    1.05
  -1  -3  -3   27.03    0.95
  -1  -3  -3   25.95    0.96
  -1   3  -3   27.93    0.99
  -1   3  -3   27.91    0.65
   1   3   3   28.95    0.95
  -1   3  -3   26.32    0.99
  -1   3  -3   26.08    0.96
   1   3   3   26.54    1.04
   1   3   3   27.73    1.05
  -1   3  -3   26.92    0.98
   1   3   3   28.27    0.99
  -2  -3  -3    2.00    0.37
  -2  -3  -3    1.95    0.27
  -2  -3  -3    1.50    0.31
   2  -3   3    1.33    0.30
   2  -3   3    2.00    0.32
  -2  -3  -3    1.54    0.27
  -2  -3  -3    1.81    0.36
   2  -3   3    1.41    0.28
  -2  -3  -3    1.47    0.33
   2  -3   3    2.00    0.33
  -2   3  -3    1.74    0.36
  -2   3  -3    1.90    0.23
   2   3   3    1.45    0.30
   2   3   3    1.36    0.31
  -2   3  -3    1.37    0.27
  -2   3  -3    1.41    0.31
  -2   3  -3    1.62    0.30
   2   3   3    1.91    0.35
   2   3   3    2.01    0.30
  -3  -3  -3   16.48    0.94
   3  -3   3   16.83    0.95
   3  -3   3   17.35    0.80
  -3  -3  -3   18.39    0.73
  -3  -3  -3   15.30    0.90
   3   3   3   18.77    0.99
  -3   3  -3   17.55    0.80
  -3   3  -3   17.08    0.70
   3   3   3   17.49    0.72
  -3   3  -3   17.15    0.80
  -3   3  -3   17.56    0.88
   3   3   3   18.91    0.97
   4  -3   3    1.52    0.33
   4  -3   3    1.17    0.47
  -4  -3  -3    1.95    0.32
  -4  -3  -3    1.67    0.42
  -4  -3  -3    2.30    0.51
   4   3   3    1.70    0.43
   4   3   3    2.20    0.33
  -4   3  -3    1.34    0.33
  -4   3  -3    1.48    0.32
   4   3   3    1.40    0.46
  -4   3  -3    1.90    0.40
  -5  -3  -3    7.71    0.88
   5  -3   3    8.05    0.99
  -5   3  -3    8.94    0.65
  -5   3  -3    8.76    0.73
   5   3   3   11.64    1.21
   5   3   3    9.31    0.85
  -6  -3  -3    3.82    0.70
   6  -3   3    2.39    0.71
  -6   3  -3    3.56    0.49
   6   3   3    4.59    0.90
   7  -4  -3    2.98    0.80
   7  -4  -3    3.86    0.81
  -7  -4   3    3.56    0.78
   7  -4  -3    2.20    0.73
  -7  -4   3    3.30    0.60
   7   4  -3    2.22    0.68
  -7   4   3    4.00    0.79
   7   4  -3    3.71    0.86
  -7   4   3    3.82    0.78
   6  -4  -3   17.72    1.23
   6  -4  -3   18.38    1.21
   6  -4  -3   18.97    1.27
  -6  -4   3   20.07    1.12
  -6  -4   3   17.61    1.23
  -6   4   3   20.35    1.26
   6   4  -3   21.92    1.37
  -6   4   3   19.54    1.04
   6   4  -3   21.51    1.31
  -6   4   3   19.61    1.23
   5  -4  -3  104.98    2.97
  -5  -4   3  109.93    2.93
  -5  -4   3  106.44    3.07
   5  -4  -3  103.28    3.08
   5  -4  -3  111.53    3.01
  -5   4   3  105.73    2.98
   5   4  -3  105.54    3.02
   5   4  -3  109.74    2.96
   5   4  -3  109.54    3.10
  -5   4   3  102.88    2.97
  -4  -4   3   63.69    1.97
  -4  -4   3   64.85    1.48
   4  -4  -3   61.98    1.94
   4  -4  -3   65.46    2.11
   4  -4  -3   63.74    1.39
   4  -4  -3   64.99    1.92
   4  -4  -3   63.66    1.40
  -4  -4   3   63.61    2.00
  -4  -4   3   61.87    2.00
   4   4  -3   62.98    1.98
   4   4  -3   67.43    2.03
  -4   4   3   64.73    1.39
  -4   4   3   62.22    1.39
  -4   4   3   63.30    1.97
  -4   4   3   62.99    1.93
   3  -4  -3    0.33    0.21
  -3  -4   3    0.13    0.20
  -3  -4   3   -0.02    0.16
   3  -4  -3    0.01    0.05
   3  -4  -3    0.21    0.18
   3  -4  -3    0.14    0.12
   3  -4  -3    0.01    0.18
  -3  -4   3    0.19    0.14
   3  -4  -3    0.09    0.23
  -3  -4   3    0.25    0.20
   3   4  -3   -0.01    0.19
  -3   4   3    0.27    0.11
  -3   4   3    0.32    0.21
  -3   4   3   -0.01    0.10
  -3   4   3    0.10    0.16
   3   4  -3    0.13    0.13
   3   4  -3    0.34    0.20
   2  -4  -3   28.28    0.91
   2  -4  -3   28.84    1.00
   2  -4  -3   29.09    0.97
  -2  -4   3   27.39    1.08
  -2  -4   3   28.12    1.02
   2  -4  -3   27.52    0.90
   2  -4  -3   29.03    1.11
   2  -4  -3   28.81    1.06
  -2  -4   3   28.20    0.91
  -2  -4   3   29.31    1.13
   2   4  -3   27.38    1.10
  -2   4   3   29.03    0.91
   2   4  -3   28.28    1.03
   2   4  -3   28.42    1.00
  -2   4   3   28.45    0.91
   2   4  -3   28.03    0.92
   2   4  -3   27.27    1.09
  -2   4   3   27.87    0.94
  -1  -4   3   45.34    1.42
   1  -4  -3   47.32    1.35
  -1  -4   3   46.47    1.32
   1  -4  -3   45.87    1.24
  -1  -4   3   47.33    1.45
   1  -4  -3   46.64    1.33
   1  -4  -3   47.64    1.40
  -1  -4   3   44.04    1.30
   1  -4  -3   47.11    1.38
   1   4  -3   46.16    1.32
   1   4  -3   47.84    1.29
   1   4  -3   46.65    1.32
  -1   4   3   43.70    1.34
   1   4  -3   47.60    1.45
   1   4  -3   46.03    1.44
  -1   4   3   46.51    1.34
  -1   4   3   46.31    1.32
  -1   4   3   48.53    1.26
   0  -4   3   33.34    1.06
   0  -4   3   33.35    1.11
   0  -4   3   34.36    1.16
   0  -4  -3   33.42    1.16
   0  -4  -3   33.93    1.11
   0  -4  -3   35.01    1.08
   0  -4   3   32.60    1.14
   0  -4  -3   33.91    1.15
   0  -4  -3   33.60    1.00
   0  -4   3   35.20    0.76
   0   4   3   34.01    1.01
   0   4  -3   35.51    1.17
   0   4  -3   33.94    1.13
   0   4  -3   32.79    1.13
   0   4   3   33.90    1.16
   0   4  -3   32.90    1.05
   0   4   3   33.91    1.09
   0   4   3   32.66    1.13
   0   4   3   33.78    1.12
  -1  -4  -3  200.12    4.39
   1  -4   3  204.59    4.25
   1  -4   3  203.03    4.31
  -1  -4  -3  205.96    4.19
  -1  -4  -3  203.86    4.28
   1  -4   3  203.23    4.24
  -1  -4  -3  199.26    4.36
  -1  -4  -3  208.41    4.11
   1  -4   3  203.98    4.26
  -1   4  -3  198.00    4.22
   1   4   3  201.71    4.15
  -1   4  -3  198.41    4.23
   1   4   3  202.09    4.37
  -1   4  -3  198.19    4.28
   1   4   3  200.78    4.39
  -1   4  -3  198.91    4.20
   2  -4   3   25.83    0.99
   2  -4   3   27.02    1.12
  -2  -4  -3   25.97    1.14
  -2  -4  -3   25.78    1.05
  -2  -4  -3   25.55    0.89
  -2  -4  -3   26.63    1.14
   2   4   3   26.81    1.17
  -2   4  -3   26.91    0.71
  -2   4  -3   27.16    0.99
   2   4   3   27.09    1.09
  -2   4  -3   27.74    1.09
  -2   4  -3   26.32    0.98
   2   4   3   25.78    0.91
  -2   4  -3   28.51    1.22
   2   4   3   27.73    1.05
  -3  -4  -3    8.58    0.71
   3  -4   3    7.39    0.65
   3  -4   3    7.94    0.55
  -3  -4  -3    8.32    0.71
  -3   4  -3    7.23    0.53
   3   4   3    8.55    0.73
  -3   4  -3    7.95    0.54
   3   4   3    7.19    0.47
   3   4   3    8.19    0.66
   3   4   3    8.07    0.66
  -3   4  -3    7.95    0.63
  -3   4  -3    8.13    0.45
  -4  -4  -3    2.17    0.54
   4  -4   3    2.46    0.41
   4  -4   3    2.73    0.58
  -4   4  -3    2.74    0.51
  -4   4  -3    2.64    0.41
   4   4   3    2.13    0.31
   4   4   3    2.44    0.55
  -4   4  -3    2.54    0.41
  -4   4  -3    2.13    0.38
   4   4   3    2.29    0.51
   5  -4   3    1.95    0.63
  -5  -4  -3    2.69    0.59
   5   4   3    1.46    0.57
  -5   4  -3    2.23    0.38
   5   4   3    2.27    0.55
  -5   4  -3    1.75    0.45
   6  -4   3    1.89    0.72
  -6  -4  -3    0.93    0.44
  -6   4  -3    1.59    0.35
  -6   4  -3    1.51    0.54
   6   4   3    1.24    0.70
  -7  -5   3    3.84    0.81
   7  -5  -3    2.88    0.78
   7  -5  -3    3.50    0.79
   7  -5  -3    3.51    0.77
  -7  -5   3    3.51    0.67
  -7   5   3    3.18    0.74
   7   5  -3    4.15    0.90
  -7   5   3    2.78    0.69
   7   5  -3    2.94    0.73
  -6  -5   3    1.97    0.56
   6  -5  -3    1.49    0.51
   6  -5  -3    1.88    0.64
  -6  -5   3    2.33    0.54
   6  -5  -3    2.08    0.61
  -6   5   3    1.44    0.48
   6   5  -3    2.09    0.65
  -6   5   3    1.32    0.43
  -6   5   3    1.62    0.51
   6   5  -3    1.77    0.57
  -5  -5   3   15.74    1.02
   5  -5  -3   17.42    1.08
   5  -5  -3   17.85    1.17
   5  -5  -3   15.88    1.01
  -5  -5   3   17.83    1.12
  -5   5   3   16.71    1.02
   5   5  -3   15.50    1.03
   5   5  -3   16.30    1.05
  -5   5   3   17.16    1.04
   4  -5  -3    1.87    0.51
  -4  -5   3    1.05    0.32
   4  -5  -3    1.87    0.42
   4  -5  -3    1.77    0.39
   4  -5  -3    1.56    0.16
  -4  -5   3    1.50    0.39
  -4  -5   3    2.14    0.24
  -4  -5   3    2.55    0.51
   4  -5  -3    1.98    0.18
   4   5  -3    1.88    0.44
  -4   5   3    1.93    0.16
  -4   5   3    1.91    0.42
   4   5  -3    1.91    0.44
  -4   5   3    1.40    0.36
  -3  -5   3   37.42    1.40
   3  -5  -3   37.25    1.02
  -3  -5   3   39.77    1.46
   3  -5  -3   37.57    1.28
   3  -5  -3   36.68    1.23
   3  -5  -3   37.76    1.24
  -3  -5   3   38.02    1.07
  -3  -5   3   37.90    1.35
   3  -5  -3   37.91    1.43
  -3   5   3   36.15    1.23
  -3   5   3   36.86    1.02
   3   5  -3   36.89    1.29
  -3   5   3   34.57    1.30
   3   5  -3   38.52    1.44
  -3   5   3   34.69    0.99
   3   5  -3   35.77    1.05
   2  -5  -3   18.28    1.26
   2  -5  -3   19.28    0.79
   2  -5  -3   19.24    0.73
  -2  -5   3   19.18    0.95
  -2  -5   3   18.44    0.74
   2  -5  -3   18.68    0.73
   2  -5  -3   19.33    0.92
   2  -5  -3   19.28    0.75
  -2  -5   3   19.51    0.92
  -2  -5   3   18.78    0.82
   2  -5  -3   18.05    0.72
   2   5  -3   18.40    0.74
   2   5  -3   19.91    0.96
   2   5  -3   18.13    0.78
   2   5  -3   19.44    0.84
  -2   5   3   17.56    0.82
  -2   5   3   18.91    0.74
  -2   5   3   18.93    0.74
  -2   5   3   18.31    0.72
  -1  -5   3   35.86    1.29
  -1  -5   3   35.95    1.28
   1  -5  -3   37.13    1.18
  -1  -5   3   35.58    1.13
  -1  -5   3   38.77    1.19
   1  -5  -3   35.17    1.18
   1  -5  -3   37.92    1.05
   1  -5  -3   37.39    1.23
   1  -5  -3   35.94    1.25
   1  -5  -3   37.15    1.10
   1   5  -3   37.29    1.14
   1   5  -3   38.95    1.31
  -1   5   3   37.95    1.19
  -1   5   3   36.70    1.19
   1   5  -3   35.85    1.16
   1   5  -3   37.32    1.31
  -1   5   3   35.88    1.03
   1   5  -3   36.29    1.08
   0  -5   3   13.25    0.72
   0  -5  -3   13.87    0.69
   0  -5  -3   14.71    0.75
   0  -5  -3   13.55    0.72
   0  -5  -3   14.09    0.59
   0  -5   3   14.01    0.73
   0  -5  -3   13.80    0.70
   0  -5   3   12.55    0.67
   0  -5   3   13.93    0.64
   0  -5   3   13.60    0.37
   0   5  -3   14.10    0.64
   0   5  -3   15.89    0.76
   0   5   3   14.02    0.73
   0   5   3   13.75    0.58
   0   5  -3   15.33    0.73
   0   5   3   15.92    0.78
   0   5  -3   13.39    0.72
   1  -5   3    7.85    0.56
  -1  -5  -3    7.45    0.51
  -1  -5  -3    7.37    0.48
   1  -5   3    8.11    0.60
  -1  -5  -3    8.18    0.62
  -1  -5  -3    7.81    0.61
   1  -5   3    7.57    0.54
   1  -5   3    7.43    0.45
   1   5   3    8.45    0.63
   1   5   3    8.92    0.60
  -1   5  -3    7.72    0.56
   1   5   3    8.68    0.63
  -1   5  -3    8.32    0.51
   1   5   3    8.71    0.53
  -1   5  -3    9.29    0.57
  -1   5  -3    7.24    0.53
   2  -5   3    0.59    0.28
  -2  -5  -3    0.30    0.25
   2  -5   3    0.51    0.21
  -2  -5  -3    0.66    0.26
  -2  -5  -3    0.51    0.21
   2  -5   3    0.49    0.19
   2   5   3    0.65    0.21
  -2   5  -3   -0.04    0.18
   2   5   3    0.72    0.28
  -2   5  -3    0.68    0.11
  -2   5  -3    0.56    0.23
   2   5   3    0.25    0.23
  -2   5  -3    0.32    0.18
   3  -5   3    4.63    0.49
   3  -5   3    4.57    0.39
  -3  -5  -3    4.27    0.64
   3  -5   3    3.26    0.54
   3   5   3    3.71    0.40
   3   5   3    4.30    0.58
   3   5   3    3.69    0.59
  -3   5  -3    4.66    0.50
  -3   5  -3    3.88    0.55
   3   5   3    4.65    0.63
  -3   5  -3    5.17    0.54
  -3   5  -3    4.39    0.32
  -4  -5  -3    5.94    0.83
   4  -5   3    5.16    0.75
   4   5   3    5.59    0.78
  -4   5  -3    5.59    0.70
  -4   5  -3    5.74    0.58
   4   5   3    4.98    0.72
  -4   5  -3    5.91    0.57
   5  -5   3   38.27    1.85
  -5  -5  -3   36.98    1.71
   5   5   3   33.88    1.66
  -5   5  -3   32.80    1.50
   5   5   3   33.29    1.72
  -5   5  -3   34.27    1.19
  -6  -5  -3    7.69    1.01
   6  -5   3    8.03    1.13
   6   5   3    7.70    1.14
  -6   5  -3    8.46    0.94
  -7  -6   3    6.56    1.00
   7  -6  -3    8.18    1.17
   7  -6  -3    8.21    1.10
  -7  -6   3    8.98    1.05
   7  -6  -3    6.83    0.98
   7   6  -3    7.39    1.19
  -7   6   3    8.78    1.11
   7   6  -3    6.16    0.99
  -7   6   3    6.93    0.97
  -6  -6   3   37.30    1.79
   6  -6  -3   33.76    1.77
   6  -6  -3   33.92    1.63
   6  -6  -3   38.26    1.77
  -6  -6   3   37.93    1.72
   6   6  -3   37.54    1.74
  -6   6   3   37.03    1.71
  -6   6   3   36.62    1.67
  -6   6   3   35.20    1.58
   6   6  -3   36.68    1.85
   5  -6  -3   73.33    2.53
  -5  -6   3   74.37    2.44
   5  -6  -3   77.05    2.41
   5  -6  -3   72.40    2.32
  -5  -6   3   75.97    2.47
   5   6  -3   70.97    2.36
  -5   6   3   71.68    2.34
   5   6  -3   73.68    2.46
  -5   6   3   75.96    2.34
  -4  -6   3    7.16    0.76
  -4  -6   3    7.37    0.39
  -4  -6   3    8.02    0.74
   4  -6  -3    8.38    0.92
   4  -6  -3    8.40    0.68
   4  -6  -3    7.79    0.68
  -4   6   3    7.89    0.67
   4   6  -3    7.46    0.39
   4   6  -3    8.38    0.76
  -4   6   3    7.02    0.61
   4   6  -3    7.42    0.65
   3  -6  -3    6.42    0.53
   3  -6  -3    6.48    0.54
   3  -6  -3    6.16    0.72
  -3  -6   3    6.88    0.59
  -3  -6   3    7.25    0.44
   3  -6  -3    6.48    0.40
  -3  -6   3    7.51    0.78
  -3   6   3    7.16    0.40
  -3   6   3    7.75    0.43
   3   6  -3    7.34    0.44
  -3   6   3    6.92    0.51
   3   6  -3    7.45    0.67
  -3   6   3    7.02    0.59
   3   6  -3    7.39    0.56
   2  -6  -3    0.27    0.19
  -2  -6   3    0.09    0.24
   2  -6  -3    0.32    0.18
  -2  -6   3    0.10    0.22
  -2  -6   3    0.12    0.16
   2  -6  -3    0.51    0.26
   2  -6  -3    0.25    0.16
  -2  -6   3    0.35    0.20
   2  -6  -3    0.28    0.17
   2  -6  -3   -0.13    0.17
  -2   6   3    0.02    0.16
   2   6  -3    0.22    0.25
   2   6  -3    0.15    0.17
   2   6  -3    0.33    0.19
  -2   6   3    0.27    0.16
  -2   6   3    0.05    0.12
   2   6  -3    0.48    0.21
  -2   6   3    0.45    0.22
  -1  -6   3   32.52    1.06
  -1  -6   3   31.41    1.22
   1  -6  -3   32.32    1.13
  -1  -6   3   36.69    1.92
   1  -6  -3   32.20    1.22
  -1  -6   3   32.01    1.12
   1  -6  -3   32.89    1.02
   1  -6  -3   31.41    1.29
   1  -6  -3   31.53    0.93
   1   6  -3   31.74    0.99
  -1   6   3   32.70    1.12
   1   6  -3   30.76    1.10
  -1   6   3   29.32    0.92
   1   6  -3   33.41    1.26
   1   6  -3   32.11    1.06
  -1   6   3   31.71    1.13
   1   6  -3   32.59    1.26
   0  -6   3    7.73    0.58
   0  -6  -3    7.96    0.59
   0  -6   3    8.07    0.64
   0  -6   3    7.78    0.26
   0  -6  -3    8.50    0.59
   0  -6  -3    7.63    0.42
   0  -6   3    7.60    0.48
   0   6  -3    7.53    0.57
   0   6   3    7.00    0.57
   0   6  -3    7.58    0.47
   0   6  -3    7.54    0.57
   0   6  -3    7.32    0.55
   0   6   3    7.70    0.58
   0   6   3    6.83    0.54
   1  -6   3   20.77    0.82
   1  -6   3   19.42    0.94
  -1  -6  -3   18.92    0.86
  -1  -6  -3   20.59    0.80
  -1  -6  -3   20.69    1.01
   1  -6   3   19.52    0.89
   1   6   3   20.26    0.84
   1   6   3   18.30    0.96
  -1   6  -3   20.25    0.81
   1   6   3   19.03    0.99
  -1   6  -3   19.97    0.90
  -1   6  -3   19.20    0.93
   1   6   3   18.72    0.91
  -1   6  -3   20.56    0.90
  -2  -6  -3   16.97    0.96
   2  -6   3   15.38    0.69
   2  -6   3   15.90    0.91
  -2  -6  -3   15.25    0.79
  -2  -6  -3   16.48    0.97
   2  -6   3   16.57    0.79
   2   6   3   15.24    0.88
  -2   6  -3   16.03    0.78
  -2   6  -3   17.69    0.82
   2   6   3   16.37    0.74
  -2   6  -3   16.81    0.92
   2   6   3   17.46    1.01
  -3  -6  -3    9.98    0.69
   3  -6   3   10.23    0.59
  -3  -6  -3   10.38    0.86
   3  -6   3    9.90    0.63
   3  -6   3    9.52    0.81
  -3   6  -3   11.34    0.66
   3   6   3   10.53    0.59
  -3   6  -3   10.25    0.44
   3   6   3   10.96    0.88
  -3   6  -3   10.52    0.79
   3   6   3   11.61    0.84
  -3   6  -3   10.87    0.45
  -3   6  -3   10.30    0.62
   4  -6   3    2.54    0.59
  -4  -6  -3    3.94    0.66
  -4   6  -3    3.97    0.47
  -4   6  -3    3.35    0.59
   4   6   3    3.33    0.62
   4   6   3    3.45    0.64
  -5  -6  -3    2.49    0.60
   5  -6   3    2.39    0.69
   5   6   3    3.19    0.76
  -5   6  -3    2.49    0.37
  -5   6  -3    3.27    0.63
   6  -6   3    2.09    0.71
  -6  -6  -3    1.95    0.59
  -6   6  -3    4.62    0.75
   6   6   3    2.35    0.75
   7  -7  -3    0.75    0.63
  -7  -7   3    0.57    0.47
   7  -7  -3    0.53    0.57
   7  -7  -3    0.38    0.46
  -7  -7   3    0.79    0.55
  -7   7   3    0.27    0.42
   7   7  -3    0.91    0.60
   7   7  -3    0.19    0.47
  -7   7   3    0.47    0.45
  -6  -7   3   11.71    1.06
   6  -7  -3   11.12    1.17
  -6  -7   3   11.38    1.03
   6  -7  -3   10.64    0.95
   6  -7  -3   10.18    1.16
  -6   7   3   11.76    0.98
  -6   7   3    9.30    1.03
  -6   7   3   10.93    0.96
   6   7  -3   10.11    1.10
  -5  -7   3   22.98    1.29
  -5  -7   3   21.30    1.28
   5  -7  -3   19.82    1.13
   5  -7  -3   20.65    1.23
   5  -7  -3   22.81    1.39
   5   7  -3   21.23    1.19
   5   7  -3   23.07    1.32
  -5   7   3   18.67    1.09
  -5   7   3   20.15    1.16
   4  -7  -3    8.66    0.74
   4  -7  -3    7.27    0.86
  -4  -7   3    8.62    0.75
   4  -7  -3    8.81    0.69
  -4  -7   3    8.62    0.80
  -4  -7   3    7.51    0.42
  -4   7   3    8.38    0.66
   4   7  -3    8.15    0.90
   4   7  -3    9.09    0.45
   4   7  -3    7.48    0.76
  -4   7   3    7.96    0.69
  -3  -7   3    6.41    0.44
  -3  -7   3    6.38    0.58
   3  -7  -3    6.84    0.53
   3  -7  -3    6.95    0.80
   3  -7  -3    6.63    0.56
  -3  -7   3    5.66    0.70
  -3   7   3    6.54    0.41
   3   7  -3    7.54    0.57
  -3   7   3    6.81    0.50
   3   7  -3    6.94    0.77
  -3   7   3    6.85    0.42
   3   7  -3    7.16    0.47
  -3   7   3    7.11    0.62
   2  -7  -3   17.82    0.97
  -2  -7   3   18.84    0.81
  -2  -7   3   18.05    0.79
   2  -7  -3   18.37    0.79
   2  -7  -3   18.45    0.71
  -2  -7   3   17.57    0.98
   2  -7  -3   18.70    0.77
  -2  -7   3   19.09    0.84
  -2   7   3   18.43    0.80
  -2   7   3   17.65    0.88
   2   7  -3   17.53    0.77
   2   7  -3   18.94    0.81
   2   7  -3   18.04    1.00
   2   7  -3   17.82    0.82
  -2   7   3   19.67    0.73
  -2   7   3   18.07    0.77
   1  -7  -3   85.07    2.23
  -1  -7   3   87.38    1.95
  -1  -7   3   85.28    2.37
   1  -7  -3   87.05    1.92
  -1  -7   3   84.24    2.08
  -1  -7   3   87.01    2.24
   1  -7  -3   87.18    2.01
   1  -7  -3   87.45    2.38
   1   7  -3   87.74    2.41
  -1   7   3   86.27    1.91
   1   7  -3   87.27    2.01
   1   7  -3   85.32    2.22
   1   7  -3   85.81    2.42
  -1   7   3   81.92    2.20
   1   7  -3   85.54    2.10
  -1   7   3   79.68    2.23
  -1   7   3   83.51    2.24
   0  -7   3   22.40    0.56
   0  -7  -3   21.44    0.74
   0  -7  -3   22.03    1.02
   0  -7  -3   22.83    1.02
   0  -7   3   21.88    1.01
   0  -7   3   21.34    0.83
   0   7   3   22.94    1.04
   0   7  -3   21.67    0.83
   0   7  -3   22.36    1.02
   0   7   3   20.76    0.99
   0   7  -3   21.99    0.99
   0   7   3   23.35    1.00
   0   7  -3   22.63    1.02
  -1  -7  -3   12.55    0.62
   1  -7   3   12.68    0.80
  -1  -7  -3   14.49    0.79
  -1  -7  -3   12.29    0.83
   1  -7   3   11.64    0.66
   1  -7   3   11.89    0.73
  -1   7  -3   13.19    0.76
   1   7   3   11.96    0.76
  -1   7  -3   12.98    0.65
   1   7   3   13.02    0.85
  -1   7  -3   13.08    0.74
  -1   7  -3   14.90    0.84
  -2  -7  -3    4.13    0.59
  -2  -7  -3    4.50    0.62
   2  -7   3    5.57    0.59
   2  -7   3    3.77    0.56
  -2  -7  -3    4.43    0.56
   2  -7   3    4.93    0.52
   2   7   3    3.91    0.59
  -2   7  -3    4.58    0.51
   2   7   3    4.22    0.47
  -2   7  -3    4.00    0.55
  -2   7  -3    4.28    0.50
   2   7   3    4.10    0.56
   3  -7   3    6.12    0.53
  -3  -7  -3    5.54    0.76
   3  -7   3    6.13    0.81
  -3  -7  -3    5.89    0.68
   3  -7   3    6.09    0.53
  -3   7  -3    5.73    0.29
   3   7   3    5.99    0.48
   3   7   3    6.26    0.77
   3   7   3    5.93    0.75
  -3   7  -3    5.63    0.50
  -3   7  -3    5.88    0.52
  -3   7  -3    5.75    0.71
  -3   7  -3    5.68    0.29
  -4  -7  -3    3.17    0.65
   4  -7   3    1.96    0.54
  -4   7  -3    3.91    0.67
  -4   7  -3    3.35    0.48
   4   7   3    2.25    0.57
  -4   7  -3    3.10    0.43
   4   7   3    4.22    0.79
  -5  -7  -3    8.28    1.00
   5  -7   3   11.09    1.27
   5   7   3   12.25    1.33
  -5   7  -3   11.99    1.03
  -5   7  -3   10.34    0.59
   6  -7   3   12.96    1.48
  -6  -7  -3   12.61    1.41
  -6   7  -3   13.11    1.11
   6   7   3   17.14    1.70
   7  -8  -3    0.85    0.64
  -7  -8   3    1.12    0.74
   7  -8  -3    2.96    0.72
   7  -8  -3    1.85    0.70
  -7   8   3    2.43    0.68
  -7   8   3    2.03    0.68
   7   8  -3    2.24    0.84
  -7   8   3    1.54    0.56
   7   8  -3    2.15    0.67
   6  -8  -3   13.47    1.40
   6  -8  -3   11.67    1.01
  -6  -8   3   12.19    1.11
   6  -8  -3   12.14    1.08
  -6  -8   3   13.29    1.13
   6   8  -3   12.07    1.05
  -6   8   3   12.29    1.02
  -6   8   3   11.22    1.14
  -6   8   3   12.77    1.02
  -5  -8   3   19.39    1.29
   5  -8  -3   19.93    1.34
   5  -8  -3   20.51    1.12
   5  -8  -3   20.49    1.26
  -5  -8   3   24.01    1.31
   5   8  -3   24.85    1.43
  -5   8   3   20.30    1.12
   5   8  -3   20.66    1.18
  -5   8   3   23.83    1.25
   4  -8  -3   17.83    0.92
   4  -8  -3   17.05    1.02
  -4  -8   3   16.74    1.11
   4  -8  -3   16.06    1.13
  -4  -8   3   19.09    1.05
   4   8  -3   15.99    1.11
  -4   8   3   15.07    0.86
  -4   8   3   16.91    0.99
   4   8  -3   14.60    0.62
   4   8  -3   15.31    0.92
  -3  -8   3   19.64    1.14
   3  -8  -3   18.78    0.87
   3  -8  -3   18.93    1.14
  -3  -8   3   19.64    0.82
   3  -8  -3   20.08    0.99
  -3  -8   3   20.11    0.98
   3   8  -3   20.54    1.18
  -3   8   3   20.76    1.03
  -3   8   3   19.25    0.75
  -3   8   3   20.05    0.84
   3   8  -3   19.30    0.91
   3   8  -3   20.50    0.83
  -2  -8   3    6.58    0.52
  -2  -8   3    6.87    0.53
  -2  -8   3    7.87    0.72
   2  -8  -3    7.45    0.43
   2  -8  -3    7.45    0.53
  -2  -8   3    7.69    0.54
   2  -8  -3    8.30    0.86
   2  -8  -3    6.87    0.47
   2   8  -3    7.37    0.54
  -2   8   3    6.43    0.41
  -2   8   3    7.41    0.52
   2   8  -3    6.36    0.71
  -2   8   3    7.99    0.62
   2   8  -3    6.87    0.53
   2   8  -3    7.30    0.49
  -2   8   3    7.76    0.55
   1  -8  -3    0.47    0.15
  -1  -8   3    0.83    0.24
  -1  -8   3    0.31    0.27
   1  -8  -3    0.24    0.16
  -1  -8   3    0.77    0.20
   1  -8  -3    0.57    0.30
   1  -8  -3    0.33    0.22
   1   8  -3    0.74    0.22
  -1   8   3    0.56    0.23
   1   8  -3    0.86    0.33
  -1   8   3    0.89    0.30
  -1   8   3    0.99    0.19
   1   8  -3    0.71    0.20
   1   8  -3    0.38    0.24
  -1   8   3    0.26    0.24
   0  -8   3   29.93    1.02
   0  -8  -3   29.11    1.26
   0  -8  -3   31.12    0.92
   0  -8   3   32.13    0.76
   0  -8  -3   30.29    1.27
   0  -8   3   32.75    1.31
   0   8  -3   31.21    1.27
   0   8  -3   30.63    1.02
   0   8   3   31.99    1.32
   0   8  -3   31.43    1.30
   0   8   3   31.05    1.27
   0   8   3   30.61    1.24
   0   8  -3   31.52    1.26
  -1  -8  -3   15.33    0.69
   1  -8   3   15.88    0.82
  -1  -8  -3   15.88    0.90
  -1  -8  -3   15.09    0.95
   1  -8   3   15.53    0.86
   1   8   3   15.73    0.91
   1   8   3   16.14    0.99
  -1   8  -3   14.78    0.84
  -1   8  -3   15.85    0.72
  -1   8  -3   15.44    0.91
  -1   8  -3   15.86    0.88
   2  -8   3   78.08    2.42
   2  -8   3   79.16    2.13
  -2  -8  -3   77.14    2.26
  -2  -8  -3   73.11    2.31
   2  -8   3   79.53    2.19
  -2  -8  -3   78.16    2.50
   2   8   3   82.31    2.56
  -2   8  -3   78.19    2.40
   2   8   3   78.24    2.09
  -2   8  -3   77.90    2.16
   2   8   3   79.86    2.40
  -2   8  -3   81.62    2.20
   3  -8   3   22.94    1.03
  -3  -8  -3   21.42    1.11
   3  -8   3   21.48    1.25
   3  -8   3   22.93    1.01
  -3  -8  -3   23.97    1.35
  -3   8  -3   22.70    0.99
   3   8   3   21.60    0.93
   3   8   3   21.45    1.21
   3   8   3   25.03    1.41
  -3   8  -3   22.32    1.23
  -4  -8  -3    6.08    0.76
   4  -8   3    6.03    0.89
  -4  -8  -3    7.00    0.98
  -4   8  -3    5.80    0.80
   4   8   3    4.97    0.77
  -4   8  -3    6.14    0.53
  -5  -8  -3    2.73    0.66
   5  -8   3    2.49    0.75
  -5   8  -3    3.47    0.72
   5   8   3    2.70    0.67
   5   8   3    2.68    0.68
   6  -8   3    3.09    0.84
  -6   8  -3    4.23    0.83
   6   8   3    3.89    0.93
  -6  -9   3    3.20    0.75
   6  -9  -3    2.66    0.63
   6  -9  -3    2.64    0.74
   6  -9  -3    1.83    0.68
  -6  -9   3    3.27    0.78
   6   9  -3    2.25    0.63
  -6   9   3    2.27    0.55
  -6   9   3    2.90    0.68
  -6   9   3    2.32    0.59
   5  -9  -3    7.55    0.85
  -5  -9   3    9.47    1.13
   5  -9  -3    7.92    1.03
   5  -9  -3    7.47    0.93
  -5  -9   3    9.14    1.02
   5   9  -3    9.14    1.13
  -5   9   3    9.65    1.06
  -5   9   3    8.79    0.95
   5   9  -3    9.07    0.94
  -5   9   3    8.69    0.75
  -4  -9   3    7.18    0.81
   4  -9  -3    4.86    0.70
  -4  -9   3    6.48    0.83
   4  -9  -3    4.81    0.75
   4  -9  -3    7.39    0.73
   4   9  -3    6.32    0.44
   4   9  -3    7.87    0.80
   4   9  -3    6.97    0.90
  -4   9   3    7.22    0.81
  -4   9   3    6.25    0.63
  -4   9   3    6.14    0.31
   3  -9  -3   32.89    1.35
   3  -9  -3   32.03    1.16
  -3  -9   3   29.64    1.49
  -3  -9   3   31.74    1.27
   3  -9  -3   31.94    1.53
  -3  -9   3   32.73    1.14
  -3   9   3   32.72    1.09
  -3   9   3   32.93    1.11
   3   9  -3   32.31    1.13
  -3   9   3   31.87    1.07
  -3   9   3   32.97    1.37
   3   9  -3   33.84    1.60
   3   9  -3   31.27    1.19
  -2  -9   3   25.07    1.16
   2  -9  -3   25.81    1.30
  -2  -9   3   26.72    1.32
   2  -9  -3   24.81    1.03
  -2  -9   3   25.04    1.01
   2  -9  -3   24.31    0.90
   2   9  -3   26.17    0.95
  -2   9   3   25.05    1.03
   2   9  -3   28.39    1.38
   2   9  -3   26.01    1.07
  -2   9   3   26.25    1.17
   2   9  -3   25.37    1.03
  -2   9   3   27.06    0.83
  -2   9   3   25.82    1.06
   1  -9  -3   18.92    0.62
   1  -9  -3   19.12    1.08
  -1  -9   3   20.42    0.81
  -1  -9   3   18.77    1.06
   1  -9  -3   19.01    0.97
   1  -9  -3   18.65    0.72
  -1  -9   3   18.77    0.75
  -1   9   3   19.96    0.98
   1   9  -3   19.75    0.97
   1   9  -3   20.56    0.75
  -1   9   3   20.25    1.02
   1   9  -3   19.29    1.11
   1   9  -3   20.39    0.82
  -1   9   3   20.60    1.02
   0  -9  -3  129.45    3.37
   0  -9   3  134.40    3.38
   0  -9  -3  133.32    2.72
   0  -9   3  132.94    2.92
   0  -9   3  131.39    2.60
   0  -9  -3  132.42    3.38
   0   9  -3  131.08    2.92
   0   9   3  135.18    3.42
   0   9  -3  131.49    2.77
   0   9  -3  128.32    3.36
   0   9   3  133.24    3.38
   0   9  -3  134.74    3.34
   0   9  -3  130.04    3.36
   0   9   3  132.72    3.31
  -1  -9  -3   12.42    0.92
  -1  -9  -3   12.57    0.62
  -1  -9  -3   12.68    0.88
   1  -9   3   14.23    0.86
   1  -9   3   13.36    0.83
  -1   9  -3   11.54    0.63
   1   9   3   12.54    0.86
  -1   9  -3   12.97    0.82
  -1   9  -3   13.51    0.86
   1   9   3   12.78    0.96
  -1   9  -3   13.36    0.90
  -2  -9  -3    1.37    0.39
   2  -9   3    2.98    0.49
   2  -9   3    1.97    0.40
   2  -9   3    1.61    0.48
  -2  -9  -3    2.63    0.57
  -2  -9  -3    2.54    0.50
  -2   9  -3    2.45    0.45
  -2   9  -3    2.33    0.53
   2   9   3    3.07    0.61
   2   9   3    2.48    0.52
  -2   9  -3    1.96    0.39
  -3  -9  -3   22.16    1.37
  -3  -9  -3   21.38    1.19
   3  -9   3   22.89    1.09
   3  -9   3   23.29    1.34
  -3   9  -3   22.14    1.02
  -3   9  -3   22.87    1.30
   3   9   3   24.28    1.32
   3   9   3   24.89    1.47
   4  -9   3   -0.34    0.39
  -4  -9  -3    0.48    0.44
  -4  -9  -3   -0.06    0.37
  -4   9  -3    0.35    0.36
  -4   9  -3    0.46    0.25
  -5  -9  -3    2.60    0.66
   5  -9   3    3.19    0.79
  -5  -9  -3    3.08    0.68
   5   9   3    3.37    0.84
  -5   9  -3    3.46    0.75
   5   9   3    3.48    0.80
  -6 -10   3    5.58    0.94
   6 -10  -3    5.19    0.91
   6 -10  -3    4.33    0.91
   6 -10  -3    6.21    0.88
  -6 -10   3    5.03    0.88
  -6  10   3    5.48    0.90
  -6  10   3    7.32    0.97
   6  10  -3    5.42    0.85
   5 -10  -3   13.19    1.10
  -5 -10   3   15.21    1.24
   5 -10  -3   11.21    1.24
   5 -10  -3   13.20    0.91
  -5 -10   3   13.48    1.06
  -5  10   3   12.76    0.94
   5  10  -3   12.35    1.37
  -5  10   3   12.94    1.00
  -5  10   3   11.20    1.16
   5  10  -3   11.49    0.91
   4 -10  -3    8.53    0.98
  -4 -10   3   11.33    0.85
  -4 -10   3   11.15    1.05
   4 -10  -3   10.09    0.72
   4 -10  -3   10.68    0.91
   4  10  -3   11.81    1.09
  -4  10   3   10.77    0.46
  -4  10   3   10.91    0.69
   4  10  -3   11.89    0.82
  -4  10   3   11.30    0.89
  -3 -10   3    0.32    0.36
  -3 -10   3    0.22    0.26
   3 -10  -3    0.23    0.41
   3 -10  -3    0.02    0.21
   3  10  -3    0.05    0.20
   3  10  -3    0.15    0.24
  -3  10   3    0.14    0.21
   3  10  -3    0.16    0.36
  -3  10   3    0.19    0.20
  -3  10   3    0.20    0.27
  -2 -10   3    3.19    0.58
   2 -10  -3    2.98    0.38
   2 -10  -3    2.30    0.54
  -2 -10   3    2.61    0.40
   2 -10  -3    1.99    0.40
  -2  10   3    2.32    0.47
   2  10  -3    3.09    0.48
   2  10  -3    3.23    0.52
   2  10  -3    3.45    0.42
  -2  10   3    3.18    0.49
  -2  10   3    3.22    0.30
   2  10  -3    3.35    0.62
  -1 -10   3    7.32    0.78
   1 -10  -3    8.01    0.89
   1 -10  -3    7.69    0.45
  -1 -10   3    6.98    0.48
   1 -10  -3    5.74    0.64
   1 -10  -3    7.33    0.32
  -1 -10   3    7.38    0.52
   1  10  -3    8.06    0.70
  -1  10   3    7.08    0.73
   1  10  -3    8.09    0.87
   1  10  -3    7.57    0.52
  -1  10   3    8.00    0.70
   1  10  -3    7.22    0.44
   0 -10  -3   15.02    1.01
   0 -10  -3   13.48    0.93
   0 -10   3   18.48    1.05
   0 -10  -3   13.96    0.52
   0 -10   3   14.89    0.94
   0 -10   3   15.92    0.70
   0 -10   3   14.99    0.53
   0  10  -3   14.27    0.67
   0  10   3   15.00    0.93
   0  10  -3   12.71    0.83
   0  10   3   15.11    1.01
   0  10  -3   13.77    0.92
   0  10  -3   15.14    0.99
  -1 -10  -3    2.64    0.55
  -1 -10  -3    3.04    0.36
   1 -10   3    3.00    0.56
   1 -10   3    3.59    0.55
  -1 -10  -3    3.72    0.60
  -1  10  -3    3.90    0.45
  -1  10  -3    3.30    0.59
  -1  10  -3    2.92    0.51
   1  10   3    3.97    0.66
   1  10   3    3.98    0.61
  -1  10  -3    4.41    0.62
  -2 -10  -3   29.04    1.50
   2 -10   3   28.22    1.44
   2 -10   3   28.83    1.24
  -2 -10  -3   28.80    1.30
   2 -10   3   28.66    1.28
  -2 -10  -3   25.92    1.31
   2  10   3   27.31    1.49
  -2  10  -3   27.70    1.42
  -2  10  -3   26.04    1.22
   2  10   3   25.46    1.34
   3 -10   3   42.42    1.60
   3 -10   3   37.95    1.84
  -3 -10  -3   39.58    1.89
  -3 -10  -3   39.45    1.69
   3  10   3   41.24    1.81
  -3  10  -3   39.42    1.79
  -3  10  -3   40.87    1.47
   4 -10   3   10.06    1.16
  -4 -10  -3   10.20    1.09
  -4 -10  -3   10.57    1.20
  -4  10  -3    9.92    1.09
  -4  10  -3   10.70    0.68
   4  10   3    9.63    1.13
  -5 -10  -3    5.21    0.91
  -5 -10  -3    5.12    0.85
   5 -10   3    4.63    0.93
  -5  10  -3    5.67    0.93
   5  10   3    4.49    0.87
  -6 -11   3    2.61    0.71
   6 -11  -3    1.79    0.70
   6 -11  -3    2.66    0.81
   6  11  -3    4.05    0.76
  -6  11   3    2.85    0.70
  -6  11   3    2.63    0.74
   5 -11  -3    4.91    0.95
  -5 -11   3    6.22    0.88
   5 -11  -3    4.66    0.84
  -5 -11   3    4.27    0.91
  -5  11   3    3.02    0.71
  -5  11   3    5.10    0.76
   5  11  -3    5.59    1.00
   5  11  -3    5.07    0.76
   4 -11  -3   11.41    0.99
  -4 -11   3   12.49    0.89
   4 -11  -3   13.34    1.17
  -4 -11   3   11.20    1.18
  -4  11   3    8.90    1.01
  -4  11   3   11.68    0.53
  -4  11   3   11.58    0.91
   4  11  -3   12.38    1.28
   4  11  -3   11.57    0.82
   3 -11  -3   20.01    1.33
  -3 -11   3   21.23    1.02
  -3 -11   3   21.18    1.37
  -3  11   3   20.38    0.95
   3  11  -3   24.15    1.47
   3  11  -3   19.47    0.96
   3  11  -3   21.25    0.95
  -3  11   3   19.85    1.12
   2 -11  -3   33.70    1.64
  -2 -11   3   32.92    1.63
   2 -11  -3   32.19    1.32
  -2 -11   3   34.71    1.22
  -2  11   3   34.26    1.39
  -2  11   3   33.38    1.44
   2  11  -3   34.96    1.69
   2  11  -3   34.03    1.36
  -1 -11   3   60.32    1.64
  -1 -11   3   60.95    2.19
   1 -11  -3   60.42    2.01
   1 -11  -3   56.35    2.14
  -1 -11   3   63.04    1.66
   1  11  -3   57.68    2.19
   1  11  -3   57.88    1.98
   1  11  -3   60.37    1.64
  -1  11   3   65.19    2.07
  -1  11   3   58.98    2.00
   0 -11   3   43.22    1.70
   0 -11   3   40.12    1.65
   0 -11  -3   37.47    1.62
   0 -11  -3   40.56    1.72
   0  11  -3   37.50    1.59
   0  11  -3   36.01    1.16
   0  11  -3   40.79    1.70
   0  11   3   35.33    1.53
   1 -11   3    3.50    0.59
  -1 -11  -3    3.56    0.72
  -1 -11  -3    2.46    0.58
   1 -11   3    2.85    0.55
  -1  11  -3    3.54    0.57
  -1  11  -3    3.46    0.64
   1  11   3    3.69    0.68
   2 -11   3    7.30    0.82
  -2 -11  -3    7.69    1.02
  -2 -11  -3    6.22    0.79
  -2  11  -3    9.68    1.07
  -2  11  -3    7.23    0.78
   2  11   3    7.41    0.92
   3 -11   3   10.96    0.92
  -3 -11  -3   11.45    1.00
  -3 -11  -3   12.02    1.28
   3 -11   3   10.24    1.14
  -3  11  -3   10.66    0.78
   3  11   3   13.18    1.08
   3  11   3   12.71    1.17
  -3  11  -3   12.34    1.24
  -4 -11  -3   -0.46    0.39
   4 -11   3    0.16    0.51
  -4 -11  -3    1.12    0.58
  -4  11  -3    0.71    0.50
   4  11   3    0.51    0.53
  -5 -11  -3    4.83    0.91
   5 -11   3    3.54    0.83
  -5  11  -3    4.98    0.94
   5  11   3    2.44    0.75
   5  11   3    4.20    0.88
   5 -12  -3    8.83    1.15
  -5 -12   3   11.00    1.15
   5 -12  -3   11.02    1.20
  -5 -12   3    7.57    1.06
  -5  12   3   10.21    1.09
  -5  12   3   10.18    1.26
   5  12  -3   10.43    1.03
   5  12  -3   10.84    1.31
  -4 -12   3    9.29    1.24
   4 -12  -3    7.52    1.05
  -4 -12   3    7.34    0.80
  -4  12   3    7.37    0.87
   4  12  -3    9.27    1.24
  -4  12   3    8.42    1.03
  -4  12   3    9.13    0.63
  -3 -12   3   13.17    1.15
   3 -12  -3   12.46    1.15
  -3 -12   3   12.04    0.78
  -3  12   3   10.78    0.75
   3  12  -3   11.69    0.79
   3  12  -3   12.29    1.30
  -3  12   3   11.85    0.93
   2 -12  -3    2.51    0.68
  -2 -12   3    2.99    0.44
  -2 -12   3    3.61    0.70
  -2  12   3    3.33    0.62
  -2  12   3    1.91    0.44
   2  12  -3    2.49    0.67
   2  12  -3    2.48    0.52
   1 -12  -3    2.57    0.60
   1 -12  -3    2.70    0.55
  -1 -12   3    3.79    0.66
  -1 -12   3    2.71    0.38
  -1  12   3    3.73    0.65
   1  12  -3    3.50    0.62
  -1  12   3    2.74    0.57
   1  12  -3    2.78    0.62
   0 -12  -3    8.53    0.93
   0 -12   3    8.73    0.95
   0 -12  -3   10.00    0.92
   0 -12   3    9.84    0.90
   0  12   3   10.43    1.08
   0  12   3    9.03    0.94
   0  12  -3   11.37    1.10
   0  12  -3   10.72    1.09
   1 -12   3    6.58    0.86
  -1 -12  -3    5.39    0.83
   1 -12   3    6.92    0.80
  -1 -12  -3    5.57    0.81
  -1  12  -3    6.15    0.83
  -1  12  -3    6.32    0.79
   1  12   3    6.21    0.80
   1  12   3    6.03    0.84
  -2 -12  -3    5.77    0.86
   2 -12   3    5.84    0.81
  -2 -12  -3    5.90    0.95
  -2  12  -3    5.60    0.82
   2  12   3    6.38    0.98
  -2  12  -3    5.81    0.72
   2  12   3    6.27    0.87
  -3 -12  -3   10.43    1.25
   3 -12   3   10.54    0.96
  -3 -12  -3    9.66    1.10
   3  12   3    9.89    1.25
  -3  12  -3    9.63    1.11
  -3  12  -3    9.21    0.77
   3  12   3    9.40    1.08
  -4 -12  -3   11.80    1.34
  -4 -12  -3    9.25    1.14
   4 -12   3    8.20    1.17
   4  12   3    9.39    1.24
  -4  12  -3   10.25    1.22
  -4  12  -3   10.37    0.73
   5 -13  -3    6.13    1.07
  -5  13   3    8.63    1.05
   5  13  -3    8.86    1.31
  -5  13   3    8.18    1.51
  -4 -13   3    4.41    0.86
   4 -13  -3    6.05    1.00
  -4  13   3    4.94    0.89
  -4  13   3    5.60    0.84
   4  13  -3    5.30    0.96
  -3 -13   3   12.93    1.20
   3 -13  -3   12.96    1.41
   3  13  -3   12.10    0.85
   3  13  -3   13.47    1.26
  -3  13   3   13.15    1.01
  -3  13   3   13.53    0.86
  -3  13   3   13.55    1.17
   2 -13  -3   22.50    1.48
  -2 -13   3   20.49    1.41
  -2  13   3   22.92    1.24
  -2  13   3   21.96    1.24
   2  13  -3   23.98    1.23
   2  13  -3   24.93    1.56
  -1 -13   3   18.96    1.28
   1 -13  -3   18.65    1.28
   1 -13  -3   18.57    1.23
   1  13  -3   20.57    1.36
  -1  13   3   19.61    1.17
  -1  13   3   18.48    1.20
   1  13  -3   19.28    1.15
   0 -13  -3    8.36    0.99
   0 -13  -3    8.01    1.06
   0 -13   3    6.85    0.88
   0 -13   3    7.79    1.00
   0  13  -3    8.82    1.02
   0  13   3    9.06    0.98
   0  13  -3   10.29    1.08
   0  13   3    8.36    0.98
   1 -13   3    8.61    0.97
  -1 -13  -3    8.90    1.04
  -1 -13  -3    7.83    1.05
   1  13   3   10.23    1.08
   1  13   3   10.45    1.13
  -1  13  -3   10.06    1.10
  -1  13  -3    9.87    1.01
   2 -13   3    7.26    0.92
  -2 -13  -3    7.50    1.07
  -2 -13  -3    6.83    0.98
  -2  13  -3    8.70    1.07
  -2  13  -3    7.46    0.87
   2  13   3    6.64    0.91
   2  13   3    8.22    1.14
   3 -13   3    5.68    0.86
  -3 -13  -3    4.08    0.81
  -3 -13  -3    4.08    0.85
   3  13   3    2.76    0.74
  -3  13  -3    4.16    0.63
  -3  13  -3    5.58    0.93
   3  13   3    3.94    0.80
  -4 -13  -3    0.80    0.62
  -4 -13  -3    0.70    0.58
   4 -13   3    0.60    0.61
  -4  13  -3    1.23    0.69
   4  13   3    0.34    0.55
   4 -14  -3    8.14    1.22
  -4 -14   3    6.07    1.13
  -4  14   3    5.74    1.01
   4  14  -3    7.02    1.17
  -4  14   3    4.97    0.77
  -3 -14   3    0.45    0.50
   3 -14  -3    0.37    0.51
   3  14  -3    1.09    0.66
  -3  14   3    1.28    0.52
  -3  14   3    1.47    0.45
  -3  14   3    0.45    0.46
  -2 -14   3    4.85    0.88
   2 -14  -3    3.69    0.78
  -2  14   3    3.56    0.68
  -2  14   3    3.46    0.62
  -2  14   3    2.73    0.72
   2  14  -3    5.27    0.76
   2  14  -3    5.79    0.97
   1 -14  -3    0.72    0.54
  -1 -14   3    0.19    0.40
  -1 -14   3   -0.03    0.44
   1  14  -3    0.46    0.47
   1  14  -3    0.04    0.35
  -1  14   3    0.19    0.40
  -1  14   3    0.78    0.42
   0 -14  -3    1.35    0.61
   0 -14   3    0.71    0.46
   0 -14   3    1.75    0.59
   0 -14  -3    1.43    0.51
   0  14  -3    0.99    0.49
   0  14   3    1.38    0.54
   0  14  -3    1.13    0.52
   0  14   3    1.44    0.51
  -1 -14  -3   14.27    1.26
   1 -14   3   13.46    1.16
  -1 -14  -3   13.75    1.23
   1  14   3   15.24    1.30
  -1  14  -3   16.00    1.24
  -1  14  -3   17.32    1.21
   1  14   3   15.63    1.16
   2 -14   3   11.62    1.21
  -2 -14  -3   11.65    1.29
  -2 -14  -3   11.99    1.29
   2  14   3   14.01    1.17
  -2  14  -3   13.41    1.41
   2  14   3   12.97    0.97
   2  14   3   11.99    1.33
  -2  14  -3   11.68    1.01
   3 -14   3   18.79    1.37
  -3 -14  -3   17.75    1.40
  -3 -14  -3   18.36    1.55
   3  14   3   18.52    1.40
   3  14   3   17.08    1.54
  -3  14  -3   16.99    1.42
  -3  14  -3   17.64    1.11
   4 -15  -3    0.63    0.65
   4  15  -3    2.72    0.93
   3 -15  -3    4.81    0.91
  -3 -15   3    6.37    1.04
  -3  15   3    5.53    0.97
  -3  15   3    5.75    0.75
  -3  15   3    7.58    0.96
   3  15  -3    7.05    1.15
   2 -15  -3   24.31    1.68
  -2 -15   3   25.69    1.69
  -2  15   3   25.33    1.42
   2  15  -3   24.46    1.37
   2  15  -3   25.87    1.75
  -2  15   3   26.12    1.62
  -2  15   3   24.55    1.41
  -1 -15   3   15.84    1.28
   1 -15  -3   13.73    1.26
  -1 -15   3   14.98    1.26
  -1  15   3   16.09    1.19
   1  15  -3   17.74    1.39
  -1  15   3   15.06    1.23
  -1  15   3   15.35    1.23
   1  15  -3   16.10    1.18
   0 -15  -3    0.31    0.47
   0 -15   3    0.10    0.47
   0  15  -3    0.70    0.46
   0  15   3    0.29    0.46
   0  15   3    1.23    0.50
   0  15   3    0.12    0.46
   0  15  -3    0.72    0.50
  -1 -15  -3    6.70    1.01
   1 -15   3    6.89    1.05
  -1 -15  -3    6.49    1.04
   1  15   3    5.98    0.93
   1  15   3    6.23    0.99
  -1  15  -3    8.46    1.03
   1  15   3    6.47    0.87
  -1  15  -3    5.92    0.91
  -2 -15  -3    4.68    0.93
  -2 -15  -3    5.32    0.95
   2 -15   3    4.72    0.94
  -2  15  -3    5.67    0.96
   2  15   3    6.13    1.00
   2  15   3    5.65    0.94
  -2  15  -3    5.05    0.77
   3 -15   3    0.56    0.58
  -3 -15  -3   -0.07    0.51
  -3  15  -3    0.11    0.36
  -3 -16   3    3.37    0.84
   3 -16  -3    2.24    0.75
  -3  16   3    2.65    0.58
   2 -16  -3    1.05    0.67
  -2 -16   3    0.55    0.50
  -2 -16   3    0.44    0.51
  -2  16   3    1.00    0.50
   2  16  -3    0.30    0.73
   2  16  -3    0.87    0.48
  -2  16   3    0.48    0.43
  -2  16   3    0.49    0.57
  -1 -16   3    4.97    1.31
  -1 -16   3    6.00    1.05
   1 -16  -3    5.33    1.05
   1  16  -3    5.12    0.98
  -1  16   3    4.19    0.81
   1  16  -3    5.73    0.91
  -1  16   3    7.04    1.01
  -1  16   3    6.61    1.01
   0 -16  -3    1.91    0.68
   0 -16   3    2.49    0.75
   0  16   3    3.05    0.69
   0  16  -3    1.51    0.60
   0  16   3    0.85    0.57
   0  16   3    2.55    0.69
   0  16  -3    2.06    0.71
  -1 -16  -3   10.67    1.35
   1 -16   3   11.08    1.31
   1  16   3   13.22    1.36
  -1  16  -3   13.30    1.46
  -1  16  -3   13.96    1.23
   1  16   3   10.61    1.14
   1  16   3   15.93    2.45
   2 -16   3   18.69    1.48
  -2 -16  -3   17.27    1.56
  -2 -16  -3   17.93    1.54
  -2  16  -3   14.83    1.23
   2  16   3   16.19    1.39
   1 -17  -3    5.31    1.08
  -1 -17   3    2.76    0.77
   1  17  -3    4.74    0.87
  -1  17   3    3.91    0.79
   0 -17   3    0.54    0.62
   0 -17  -3    1.57    0.69
   0  17   3    0.01    0.53
   0  17   3   -0.12    0.44
   0  17  -3    0.74    0.59
   7   0  -4    0.50    0.48
  -7   0   4    0.15    0.23
   7   0  -4    0.06    0.48
  -7   0   4    0.30    0.44
  -6   0   4    0.66    0.26
   6   0  -4    0.15    0.33
  -6   0   4    0.22    0.36
   6   0  -4    0.19    0.37
   5   0  -4    0.20    0.41
  -5   0   4    0.33    0.26
   5   0  -4    0.25    0.35
   5   0  -4    0.53    0.26
  -5   0   4    0.20    0.22
  -5   0   4    0.31    0.31
  -5   0   4    0.35    0.23
   5   0  -4    0.52    0.33
  -4   0   4   65.47    2.02
   4   0  -4   64.31    2.11
   4   0  -4   64.36    1.81
   4   0  -4   63.49    1.87
  -4   0   4   62.71    1.79
  -4   0   4   64.91    1.77
  -4   0   4   62.73    1.81
   4   0  -4   65.96    2.05
  -4   0   4   64.54    2.05
  -3   0   4   58.77    1.61
   3   0  -4   58.42    1.83
   3   0  -4   56.21    1.52
   3   0  -4   56.50    1.63
  -3   0   4   56.57    1.63
  -3   0   4   56.10    1.72
  -3   0   4   59.34    1.78
  -3   0   4   57.93    1.66
   3   0  -4   55.16    1.75
   2   0  -4  105.61    2.57
   2   0  -4  106.43    2.59
   2   0  -4  106.11    2.59
   2   0  -4  105.90    2.53
   2   0  -4  104.84    2.53
  -2   0   4  105.38    2.52
  -2   0   4  105.61    2.51
  -2   0   4  105.50    2.53
  -2   0   4  101.30    2.55
  -2   0   4  106.51    2.50
  -1   0   4  158.14    3.37
  -1   0   4  155.42    3.48
   1   0  -4  159.64    3.53
  -1   0   4  160.28    3.48
   1   0  -4  159.57    3.50
   1   0  -4  161.38    3.50
   1   0  -4  163.39    3.39
   1   0  -4  165.92    3.42
  -1   0   4  155.76    3.52
  -1   0   4  160.15    3.53
   0   0  -4  231.07    4.54
   0   0   4  228.48    4.79
   0   0  -4  227.95    4.73
   0   0   4  222.69    4.77
   0   0  -4  229.82    4.72
   0   0  -4  225.60    4.77
   0   0  -4  235.17    4.82
   0   0   4  228.77    4.72
   0   0   4  227.00    4.54
  -1   0  -4   64.22    1.80
   1   0   4   66.77    1.66
  -1   0  -4   67.32    1.88
   1   0   4   65.05    1.62
   1   0   4   63.51    1.86
  -1   0  -4   67.51    1.90
  -1   0  -4   65.89    1.87
  -1   0  -4   66.13    1.65
   1   0   4   64.35    1.79
   1   0   4   67.39    1.90
   2   0   4   21.93    0.89
  -2   0  -4   23.54    1.06
   2   0   4   23.37    1.06
  -2   0  -4   24.99    0.93
  -2   0  -4   23.66    1.05
  -2   0  -4   23.89    0.98
   2   0   4   24.27    0.98
   2   0   4   23.79    0.97
  -3   0  -4    8.69    0.69
   3   0   4    8.37    0.68
  -3   0  -4    8.14    0.61
  -3   0  -4    8.30    0.68
   3   0   4    8.10    0.66
   4   0   4   14.01    0.98
  -4   0  -4   12.98    0.81
   4   0   4   13.92    0.93
  -4   0  -4   14.14    0.93
  -5   0  -4    5.85    0.67
   5   0   4    5.98    0.92
  -5   0  -4    5.86    0.73
  -6   0  -4    1.93    0.53
   6   0   4    3.03    0.84
  -7  -1   4    0.28    0.27
  -7  -1   4    0.26    0.49
   7  -1  -4    0.11    0.42
   7  -1  -4   -0.35    0.39
   7   1  -4    0.68    0.52
   7   1  -4   -0.06    0.34
  -7   1   4    0.08    0.39
  -7   1   4    0.34    0.43
  -6  -1   4    6.45    0.60
   6  -1  -4    7.44    1.01
   6  -1  -4    7.20    0.89
  -6  -1   4    5.32    0.79
   6  -1  -4    5.14    0.80
  -6   1   4    5.76    0.83
  -6   1   4    6.42    0.49
   6   1  -4    6.31    0.85
  -6   1   4    6.65    0.88
   6   1  -4    4.77    0.73
  -5  -1   4   46.25    1.82
   5  -1  -4   44.95    1.42
  -5  -1   4   48.33    1.57
  -5  -1   4   47.13    2.02
   5  -1  -4   46.03    1.80
  -5  -1   4   46.00    1.38
   5  -1  -4   44.28    1.84
   5  -1  -4   45.79    1.67
  -5   1   4   45.85    1.78
   5   1  -4   46.01    1.56
  -5   1   4   42.36    1.75
  -5   1   4   43.44    1.38
  -5   1   4   47.89    1.60
   5   1  -4   45.26    1.70
   4  -1  -4   77.66    2.08
   4  -1  -4   73.61    2.32
  -4  -1   4   73.25    2.09
  -4  -1   4   73.56    2.06
  -4  -1   4   74.67    2.27
  -4  -1   4   74.69    1.94
   4  -1  -4   80.64    1.99
   4  -1  -4   76.10    2.26
  -4   1   4   72.87    2.03
  -4   1   4   75.00    1.95
  -4   1   4   76.68    2.25
   4   1  -4   75.40    2.09
   4   1  -4   73.47    2.24
   4   1  -4   73.28    2.09
  -4   1   4   74.59    2.25
  -4   1   4   74.93    1.97
  -3  -1   4    8.06    0.57
   3  -1  -4    7.36    0.52
   3  -1  -4    7.51    0.59
  -3  -1   4    7.53    0.55
  -3  -1   4    7.12    0.56
  -3  -1   4    7.08    0.59
   3  -1  -4    7.07    0.73
  -3  -1   4    7.99    0.51
   3  -1  -4    7.45    0.48
  -3   1   4    7.59    0.54
   3   1  -4    6.58    0.58
   3   1  -4    8.14    0.51
   3   1  -4    8.22    0.60
   3   1  -4    7.02    0.55
  -3   1   4    7.65    0.51
  -3   1   4    6.92    0.56
  -3   1   4    8.20    0.59
  -3   1   4    6.91    0.49
  -2  -1   4   56.66    1.57
   2  -1  -4   52.99    1.61
  -2  -1   4   57.79    1.57
   2  -1  -4   54.70    1.62
   2  -1  -4   54.29    1.65
  -2  -1   4   57.06    1.66
  -2  -1   4   57.43    1.65
   2  -1  -4   59.86    1.63
  -2  -1   4   56.49    1.64
   2  -1  -4   55.34    1.58
  -2   1   4   54.48    1.57
   2   1  -4   53.41    1.62
   2   1  -4   58.20    1.65
   2   1  -4   56.36    1.66
   2   1  -4   56.00    1.63
  -2   1   4   55.95    1.59
  -2   1   4   54.85    1.59
  -2   1   4   53.46    1.56
   2   1  -4   55.14    1.55
  -2   1   4   57.75    1.65
   2   1  -4   54.12    1.62
   1  -1  -4   54.18    1.47
   1  -1  -4   53.78    1.55
   1  -1  -4   51.45    1.49
   1  -1  -4   51.20    1.50
  -1  -1   4   52.91    1.39
  -1  -1   4   53.25    1.53
   1  -1  -4   52.11    1.53
  -1  -1   4   50.75    1.53
   1  -1  -4   51.96    1.44
  -1  -1   4   53.50    1.51
  -1  -1   4   52.30    1.56
   1   1  -4   51.92    1.37
  -1   1   4   51.62    1.51
   1   1  -4   52.49    1.50
  -1   1   4   49.50    1.48
  -1   1   4   51.06    1.44
   1   1  -4   52.71    1.56
   1   1  -4   52.33    1.56
  -1   1   4   52.61    1.53
   1   1  -4   51.21    1.42
  -1   1   4   50.65    1.52
   1   1  -4   50.84    1.51
   0  -1   4   42.39    1.37
   0  -1   4   40.60    1.35
   0  -1   4   40.80    1.30
   0  -1  -4   39.35    1.27
   0  -1  -4   41.00    1.30
   0  -1  -4   42.01    1.36
   0  -1  -4   40.09    1.10
   0  -1  -4   41.02    1.34
   0  -1   4   42.29    1.12
   0  -1  -4   42.25    1.21
   0  -1   4   39.87    1.28
   0   1   4   38.41    1.31
   0   1   4   40.92    1.29
   0   1  -4   39.03    1.32
   0   1  -4   40.98    1.30
   0   1   4   39.50    1.27
   0   1  -4   40.81    1.11
   0   1   4   40.88    1.35
   0   1   4   39.92    1.20
   0   1  -4   42.90    1.37
   1  -1   4   48.38    1.26
   1  -1   4   49.38    1.55
   1  -1   4   47.61    1.51
  -1  -1  -4   47.00    1.55
  -1  -1  -4   49.33    1.51
  -1  -1  -4   47.12    1.35
  -1  -1  -4   47.17    1.44
   1  -1   4   46.71    1.31
  -1  -1  -4   49.17    1.54
   1  -1   4   46.98    1.46
   1  -1   4   49.20    1.52
   1   1   4   45.65    1.35
  -1   1  -4   45.90    1.23
   1   1   4   47.26    1.53
   1   1   4   47.11    1.26
  -1   1  -4   44.89    1.48
   1   1   4   45.99    1.42
  -1   1  -4   44.96    1.44
  -1   1  -4   46.72    1.57
  -1   1  -4   46.14    1.50
   1   1   4   47.81    1.53
   2  -1   4   17.20    0.83
   2  -1   4   18.22    0.90
  -2  -1  -4   17.59    0.92
   2  -1   4   17.31    0.72
  -2  -1  -4   17.27    0.81
  -2  -1  -4   16.67    0.79
  -2  -1  -4   18.57    0.94
  -2   1  -4   16.88    0.84
   2   1   4   16.58    0.80
   2   1   4   16.46    0.79
  -2   1  -4   17.06    0.72
   2   1   4   16.55    0.90
   2   1   4   16.63    0.80
  -2   1  -4   16.87    0.87
  -2   1  -4   16.48    0.86
  -3  -1  -4    4.30    0.52
   3  -1   4    3.59    0.54
   3  -1   4    2.98    0.46
  -3  -1  -4    4.18    0.60
  -3  -1  -4    5.10    0.66
  -3   1  -4    3.76    0.51
  -3   1  -4    4.34    0.49
  -3   1  -4    5.00    0.58
   3   1   4    3.68    0.55
  -3   1  -4    4.30    0.60
   3   1   4    4.29    0.58
   4  -1   4   32.77    1.49
  -4  -1  -4   30.45    1.39
  -4  -1  -4   28.00    1.64
  -4  -1  -4   30.78    1.20
   4  -1   4   32.00    1.36
   4   1   4   31.23    1.41
  -4   1  -4   31.36    1.33
  -4   1  -4   31.04    1.28
   4   1   4   28.62    1.43
   5  -1   4    0.48    0.52
  -5  -1  -4    0.77    0.32
  -5  -1  -4    0.26    0.32
   5   1   4    0.72    0.52
  -5   1  -4    0.32    0.31
  -5   1  -4    1.15    0.42
   6  -1   4    0.99    0.68
  -6  -1  -4    1.64    0.52
   6   1   4    0.77    0.53
  -6   1  -4    1.35    0.43
   7  -2  -4    4.28    0.85
   7  -2  -4    3.31    0.72
   7  -2  -4    3.67    0.86
  -7  -2   4    3.61    0.81
  -7  -2   4    3.43    0.57
   7   2  -4    3.79    0.80
  -7   2   4    3.00    0.73
  -7   2   4    4.15    0.85
   7   2  -4    3.48    0.79
  -6  -2   4    7.29    0.67
  -6  -2   4    7.79    1.00
   6  -2  -4    5.52    0.78
   6  -2  -4    7.48    1.02
   6  -2  -4    6.83    0.85
  -6   2   4    9.12    1.04
   6   2  -4    7.72    0.95
   6   2  -4    8.12    1.02
  -6   2   4    6.54    0.45
  -6   2   4    7.53    0.92
  -5  -2   4   27.60    0.97
   5  -2  -4   26.23    1.24
  -5  -2   4   29.22    1.22
   5  -2  -4   25.81    1.39
  -5  -2   4   25.67    1.35
   5  -2  -4   26.56    1.33
  -5   2   4   27.70    0.96
  -5   2   4   27.19    1.10
  -5   2   4   27.96    1.36
   5   2  -4   25.34    1.32
   5   2  -4   25.78    1.18
  -5   2   4   28.17    1.36
   5   2  -4   25.19    1.27
  -4  -2   4  136.69    2.98
   4  -2  -4  134.52    3.38
  -4  -2   4  133.31    3.23
  -4  -2   4  140.08    3.45
   4  -2  -4  131.41    2.96
  -4  -2   4  131.75    3.26
   4  -2  -4  135.13    3.14
   4  -2  -4  126.26    3.44
  -4   2   4  136.24    3.38
   4   2  -4  133.43    3.24
   4   2  -4  133.84    3.39
  -4   2   4  131.76    3.37
  -4   2   4  137.65    2.99
  -4   2   4  132.51    2.98
   4   2  -4  134.29    3.25
   3  -2  -4   98.81    2.69
   3  -2  -4  102.82    2.40
  -3  -2   4  102.57    2.61
   3  -2  -4  105.12    2.32
  -3  -2   4  103.21    2.40
  -3  -2   4   97.63    2.61
   3  -2  -4  102.19    2.63
  -3  -2   4  101.41    2.58
  -3   2   4   99.99    2.40
   3   2  -4  101.17    2.59
  -3   2   4  102.76    2.60
   3   2  -4  102.76    2.64
  -3   2   4  103.87    2.42
  -3   2   4  104.09    2.75
  -3   2   4   97.97    2.59
  -2  -2   4  171.57    3.65
   2  -2  -4  164.82    3.73
   2  -2  -4  164.99    3.78
  -2  -2   4  170.00    3.80
   2  -2  -4  168.90    3.74
  -2  -2   4  169.93    3.78
   2  -2  -4  170.63    3.74
  -2  -2   4  167.60    3.79
   2  -2  -4  166.63    3.65
  -2  -2   4  168.75    3.63
   2  -2  -4  171.79    3.67
  -2   2   4  178.10    3.77
   2   2  -4  171.40    3.82
   2   2  -4  174.79    3.66
  -2   2   4  171.67    3.75
  -2   2   4  170.32    3.67
   2   2  -4  177.29    3.99
  -2   2   4  166.56    3.65
   2   2  -4  170.33    3.75
  -2   2   4  168.46    3.72
   2   2  -4  171.87    3.81
  -1  -2   4  150.76    3.39
  -1  -2   4  146.76    3.31
   1  -2  -4  145.34    3.23
  -1  -2   4  148.35    3.28
   1  -2  -4  145.19    3.31
  -1  -2   4  146.72    3.09
   1  -2  -4  149.80    3.27
  -1  -2   4  145.46    3.36
   1  -2  -4  146.27    3.30
   1  -2  -4  149.16    3.27
   1   2  -4  145.25    3.36
  -1   2   4  153.47    3.28
   1   2  -4  148.03    3.29
  -1   2   4  146.89    3.26
  -1   2   4  150.99    3.34
   1   2  -4  150.13    3.38
   1   2  -4  151.57    3.33
  -1   2   4  152.33    3.33
  -1   2   4  150.63    3.33
   0  -2  -4  113.24    2.79
   0  -2  -4  120.73    2.56
   0  -2  -4  115.03    2.71
   0  -2   4  117.53    2.82
   0  -2  -4  117.84    2.68
   0  -2   4  114.02    2.79
   0  -2   4  111.49    2.74
   0  -2  -4  115.08    2.73
   0  -2   4  121.00    2.78
   0  -2   4  118.09    2.45
   0  -2  -4  119.04    2.86
   0   2  -4  120.54    2.84
   0   2   4  119.27    2.83
   0   2  -4  112.72    2.73
   0   2   4  120.36    2.76
   0   2   4  121.38    2.70
   0   2   4  120.33    2.74
   0   2  -4  117.33    2.82
   0   2  -4  120.57    2.45
   0   2   4  116.08    2.81
  -1  -2  -4  122.14    3.02
   1  -2   4  120.87    2.94
  -1  -2  -4  127.81    3.07
   1  -2   4  124.67    2.97
   1  -2   4  123.90    2.57
  -1  -2  -4  121.40    2.85
  -1  -2  -4  122.94    2.88
   1  -2   4  123.75    2.97
   1  -2   4  123.20    2.79
  -1  -2  -4  123.83    2.95
   1   2   4  125.06    2.86
   1   2   4  123.23    3.05
   1   2   4  130.03    2.71
  -1   2  -4  127.27    2.58
   1   2   4  125.41    2.89
  -1   2  -4  123.95    2.98
  -1   2  -4  127.98    2.99
  -1   2  -4  125.12    2.95
  -1   2  -4  125.01    3.21
   1   2   4  123.71    3.04
  -2  -2  -4   11.40    0.77
  -2  -2  -4   13.70    0.71
  -2  -2  -4   12.14    0.78
   2  -2   4   13.76    0.78
   2  -2   4   13.18    0.74
  -2   2  -4   13.00    0.75
  -2   2  -4   12.17    0.74
  -2   2  -4   13.11    0.58
   2   2   4   12.60    0.68
  -2   2  -4   13.29    0.77
   2   2   4   12.89    0.82
   2   2   4   11.26    0.69
   2   2   4   11.79    0.69
  -3  -2  -4   23.68    0.97
   3  -2   4   22.85    1.05
  -3  -2  -4   20.16    1.08
   3  -2   4   21.69    1.11
  -3  -2  -4   21.35    1.11
   3   2   4   21.87    1.13
   3   2   4   21.86    1.07
  -3   2  -4   22.25    1.04
  -3   2  -4   20.24    1.00
  -3   2  -4   20.54    1.02
  -3   2  -4   20.59    0.85
   3   2   4   21.12    0.93
  -4  -2  -4    2.45    0.54
   4  -2   4    2.07    0.42
   4  -2   4    2.43    0.61
  -4  -2  -4    2.03    0.39
  -4  -2  -4    2.31    0.52
   4   2   4    2.27    0.50
  -4   2  -4    2.65    0.50
   4   2   4    1.64    0.50
  -4   2  -4    2.55    0.51
   5  -2   4    3.11    0.75
  -5  -2  -4    3.31    0.60
   5   2   4    3.22    0.75
  -5   2  -4    3.42    0.54
  -5   2  -4    3.93    0.62
   6  -2   4   -0.67    0.50
  -6  -2  -4   -0.04    0.30
   6   2   4   -0.08    0.52
  -6   2  -4    0.37    0.32
  -7  -3   4   13.17    0.97
   7  -3  -4   14.12    1.30
  -7  -3   4   12.99    1.39
   7  -3  -4   12.75    1.16
   7  -3  -4   14.32    1.20
   7   3  -4   11.69    1.26
  -7   3   4   14.08    1.20
  -7   3   4   14.83    1.24
   7   3  -4   12.61    1.19
  -6  -3   4    1.00    0.47
   6  -3  -4    1.33    0.52
   6  -3  -4    1.26    0.58
  -6  -3   4    1.75    0.43
   6  -3  -4    1.49    0.53
  -6   3   4    1.60    0.21
  -6   3   4    2.14    0.56
   6   3  -4    1.95    0.55
  -6   3   4    0.99    0.49
   6   3  -4    1.95    0.58
  -5  -3   4   65.81    2.11
   5  -3  -4   67.78    2.26
   5  -3  -4   68.08    2.14
   5  -3  -4   66.99    2.38
   5   3  -4   67.79    2.14
   5   3  -4   69.06    2.24
   5   3  -4   67.94    2.29
  -5   3   4   68.81    2.27
  -5   3   4   68.34    2.27
  -5   3   4   67.71    1.82
  -5   3   4   66.92    1.66
  -4  -3   4   68.70    1.74
   4  -3  -4   73.99    1.96
  -4  -3   4   69.51    2.18
   4  -3  -4   71.75    2.15
   4  -3  -4   69.43    2.24
   4  -3  -4   60.11    1.68
  -4  -3   4   69.79    2.11
  -4  -3   4   69.52    2.08
  -4   3   4   68.10    1.74
   4   3  -4   66.07    2.11
  -4   3   4   67.17    2.09
  -4   3   4   68.00    1.72
   4   3  -4   69.69    2.09
  -4   3   4   66.88    2.11
  -3  -3   4   16.62    0.87
   3  -3  -4   15.22    0.69
   3  -3  -4   15.23    0.67
  -3  -3   4   15.77    0.85
   3  -3  -4   16.30    0.85
  -3  -3   4   15.56    0.86
  -3  -3   4   14.97    0.69
   3  -3  -4   13.25    0.86
  -3   3   4   16.46    0.84
   3   3  -4   15.60    0.71
  -3   3   4   14.59    0.68
  -3   3   4   14.75    0.68
  -3   3   4   16.27    0.85
   3   3  -4   17.03    0.87
   3   3  -4   15.92    0.87
   2  -3  -4   98.88    2.37
   2  -3  -4   98.95    2.35
   2  -3  -4   97.19    2.40
  -2  -3   4   91.82    2.48
   2  -3  -4   97.99    2.42
  -2  -3   4   98.55    2.54
  -2  -3   4   97.02    2.46
  -2  -3   4  101.47    2.36
   2  -3  -4   97.76    2.51
  -2   3   4   98.64    2.36
   2   3  -4   99.88    2.45
  -2   3   4   96.18    2.35
   2   3  -4   99.10    2.54
  -2   3   4   97.69    2.40
   2   3  -4   96.27    2.34
  -2   3   4   89.00    2.40
  -2   3   4  101.93    2.71
  -1  -3   4   48.58    1.54
   1  -3  -4   49.04    1.47
   1  -3  -4   49.90    1.48
  -1  -3   4   47.69    1.53
   1  -3  -4   48.67    1.44
  -1  -3   4   48.34    1.46
  -1  -3   4   49.61    1.46
   1  -3  -4   47.56    1.48
   1  -3  -4   46.78    1.39
  -1  -3   4   48.56    1.26
   1   3  -4   46.86    1.44
  -1   3   4   47.43    1.47
   1   3  -4   47.36    1.54
  -1   3   4   47.37    1.46
  -1   3   4   47.49    1.46
   1   3  -4   49.62    1.55
  -1   3   4   47.60    1.40
   1   3  -4   47.74    1.46
  -1   3   4   47.62    1.45
   0  -3   4   31.11    1.13
   0  -3  -4   32.74    1.13
   0  -3   4   31.03    1.12
   0  -3  -4   32.46    1.20
   0  -3  -4   31.38    1.19
   0  -3   4   32.31    1.20
   0  -3  -4   33.60    1.04
   0  -3  -4   31.38    1.09
   0  -3   4   33.61    0.86
   0  -3   4   31.16    1.18
   0   3   4   31.73    1.19
   0   3  -4   31.37    1.18
   0   3   4   30.81    1.08
   0   3   4   30.14    1.11
   0   3   4   33.65    1.21
   0   3   4   32.49    1.13
   0   3  -4   31.10    1.18
   0   3  -4   31.60    1.15
  -1  -3  -4   31.34    1.15
  -1  -3  -4   32.47    1.26
  -1  -3  -4   30.95    1.25
   1  -3   4   34.57    1.24
   1  -3   4   32.09    0.83
  -1  -3  -4   35.10    1.21
  -1  -3  -4   32.76    1.14
  -1  -3  -4   33.32    0.97
   1  -3   4   33.70    1.13
   1  -3   4   34.80    1.22
   1   3   4   31.49    1.13
  -1   3  -4   32.87    0.83
  -1   3  -4   31.51    1.19
   1   3   4   30.63    1.13
   1   3   4   30.94    0.98
  -1   3  -4   29.64    1.17
  -1   3  -4   29.93    1.18
   1   3   4   29.05    1.22
  -2  -3  -4    7.56    0.67
   2  -3   4    7.74    0.60
   2  -3   4    7.53    0.61
  -2  -3  -4    8.44    0.56
  -2  -3  -4    7.52    0.53
  -2  -3  -4    8.27    0.68
   2   3   4    6.77    0.68
   2   3   4    6.40    0.52
   2   3   4    5.81    0.63
   2   3   4    6.91    0.53
  -2   3  -4    6.78    0.56
  -2   3  -4    7.09    0.59
  -2   3  -4    7.18    0.39
  -2   3  -4    7.78    0.60
   3  -3   4   56.01    1.93
  -3  -3  -4   60.94    2.03
  -3  -3  -4   59.95    1.71
   3  -3   4   61.80    1.86
  -3  -3  -4   64.42    1.83
   3   3   4   58.78    1.90
   3   3   4   57.33    1.90
  -3   3  -4   58.96    1.83
  -3   3  -4   60.56    1.90
  -3   3  -4   60.07    1.59
   3   3   4   60.59    2.04
   3   3   4   58.27    1.71
  -3   3  -4   57.79    1.83
   4  -3   4   26.70    1.19
   4  -3   4   25.18    1.35
  -4  -3  -4   26.33    1.04
  -4  -3  -4   25.26    1.33
   4   3   4   25.44    1.35
   4   3   4   25.37    1.36
  -4   3  -4   26.65    1.23
  -4   3  -4   27.34    1.19
  -5  -3  -4    2.62    0.61
   5  -3   4    1.99    0.68
   5   3   4    2.57    0.63
  -5   3  -4    2.24    0.46
  -5   3  -4    1.87    0.48
  -6  -3  -4    0.28    0.40
   6  -3   4    1.17    0.66
  -6   3  -4    0.35    0.33
   6   3   4    0.14    0.58
  -7  -4   4    3.50    0.64
   7  -4  -4    4.22    0.85
   7  -4  -4    2.68    0.78
   7  -4  -4    4.20    0.81
  -7  -4   4    2.71    0.71
  -7   4   4    5.20    0.89
  -7   4   4    3.61    0.80
   7   4  -4    3.59    0.86
   7   4  -4    4.04    0.86
  -6  -4   4   -0.54    0.31
   6  -4  -4   -0.03    0.40
  -6  -4   4    0.09    0.30
   6  -4  -4    0.36    0.43
   6  -4  -4    0.28    0.37
   6   4  -4    0.03    0.35
  -6   4   4    0.24    0.35
   6   4  -4   -0.56    0.26
  -6   4   4    0.02    0.35
   5  -4  -4    1.88    0.58
  -5  -4   4    1.44    0.41
   5  -4  -4    1.48    0.48
   5  -4  -4    0.60    0.38
  -5  -4   4    1.85    0.49
  -5   4   4    0.97    0.42
   5   4  -4    1.66    0.44
   5   4  -4    1.36    0.48
  -5   4   4    1.17    0.33
  -5   4   4    1.05    0.42
   5   4  -4    1.78    0.53
  -5   4   4    1.58    0.24
   4  -4  -4    5.48    0.60
  -4  -4   4    6.27    0.72
   4  -4  -4    5.24    0.75
  -4  -4   4    5.16    0.42
  -4  -4   4    5.73    0.70
   4  -4  -4    5.68    0.66
  -4  -4   4    7.08    0.78
  -4   4   4    4.26    0.60
  -4   4   4    5.07    0.39
   4   4  -4    7.03    0.75
  -4   4   4    6.22    0.41
  -4   4   4    5.68    0.65
   4   4  -4    5.91    0.71
  -3  -4   4    1.48    0.36
   3  -4  -4    1.62    0.36
  -3  -4   4    0.89    0.29
  -3  -4   4    1.50    0.28
  -3  -4   4    1.21    0.33
   3  -4  -4    1.11    0.24
   3  -4  -4    1.83    0.45
   3  -4  -4    1.27    0.27
  -3   4   4    1.68    0.29
  -3   4   4    1.31    0.34
  -3   4   4    1.49    0.32
   3   4  -4    1.54    0.35
   3   4  -4    1.54    0.40
  -3   4   4    1.46    0.27
   3   4  -4    1.77    0.31
   2  -4  -4   24.94    1.05
  -2  -4   4   22.34    1.04
  -2  -4   4   23.36    0.91
   2  -4  -4   22.25    0.93
  -2  -4   4   22.30    1.02
  -2  -4   4   21.50    0.96
   2  -4  -4   23.37    0.92
   2  -4  -4   22.36    0.90
   2   4  -4   23.32    0.96
   2   4  -4   21.05    1.02
  -2   4   4   21.83    0.96
  -2   4   4   22.20    0.90
  -2   4   4   23.88    0.92
   2   4  -4   22.74    0.90
  -2   4   4   22.47    0.90
   1  -4  -4  149.66    3.31
   1  -4  -4  153.17    3.46
  -1  -4   4  153.31    3.42
  -1  -4   4  155.07    3.58
  -1  -4   4  154.81    3.58
  -1  -4   4  152.07    3.13
   1  -4  -4  150.74    3.43
  -1  -4   4  154.10    3.43
  -1   4   4  158.62    3.49
  -1   4   4  151.86    3.31
   1   4  -4  151.87    3.42
  -1   4   4  155.11    3.47
   1   4  -4  150.57    3.56
   1   4  -4  152.02    3.43
  -1   4   4  152.74    3.45
   1   4  -4  156.94    3.57
   0  -4   4   83.12    2.15
   0  -4   4   83.91    1.72
   0  -4   4   79.20    2.22
   0  -4  -4   83.02    2.08
   0  -4  -4   78.71    2.06
   0  -4  -4   81.91    2.24
   0   4  -4   84.31    2.21
   0   4   4   82.13    2.08
   0   4   4   86.23    2.20
   0   4   4   87.36    2.29
   0   4   4   84.30    2.18
   0   4  -4   85.93    2.26
   0   4  -4   81.82    2.14
   0   4   4   83.39    2.24
   0   4  -4   84.65    2.26
   1  -4   4    6.66    0.57
  -1  -4  -4    7.94    0.65
   1  -4   4    6.38    0.54
  -1  -4  -4    8.04    0.57
   1  -4   4    6.97    0.53
  -1  -4  -4    7.30    0.48
   1   4   4    6.85    0.62
  -1   4  -4    7.98    0.61
  -1   4  -4    6.77    0.57
  -1   4  -4    8.09    0.60
   1   4   4    7.21    0.47
   1   4   4    6.40    0.52
  -1   4  -4    7.45    0.27
   1   4   4    7.00    0.56
   2  -4   4   28.96    1.16
  -2  -4  -4   27.32    1.25
  -2  -4  -4   27.94    0.93
   2  -4   4   28.46    1.19
  -2   4  -4   27.81    0.76
   2   4   4   27.54    1.27
  -2   4  -4   28.60    1.14
   2   4   4   27.81    1.17
  -2   4  -4   26.93    1.17
   2   4   4   28.36    1.09
  -2   4  -4   28.20    1.14
   2   4   4   26.49    1.05
  -3  -4  -4    1.38    0.28
   3  -4   4    1.21    0.39
  -3  -4  -4    0.98    0.41
   3  -4   4    1.09    0.35
   3   4   4    1.79    0.51
   3   4   4    0.53    0.37
  -3   4  -4    1.26    0.40
  -3   4  -4    1.37    0.26
  -3   4  -4    1.77    0.40
  -3   4  -4    1.18    0.34
   3   4   4    1.29    0.32
   3   4   4    1.70    0.44
   4  -4   4    7.47    0.92
  -4  -4  -4    7.30    0.93
   4   4   4    6.73    0.84
  -4   4  -4    9.03    0.70
   4   4   4    8.03    0.93
  -4   4  -4    8.13    0.86
   5  -4   4    2.90    0.71
  -5  -4  -4    2.53    0.62
  -5   4  -4    2.85    0.49
  -5   4  -4    3.10    0.61
   5   4   4    3.76    0.81
  -6  -4  -4    4.12    0.77
   6  -4   4    3.01    0.82
   6   4   4    5.91    1.06
  -6   4  -4    3.99    0.55
   7  -5  -4   10.08    1.16
   7  -5  -4    7.63    1.10
  -7  -5   4   10.52    1.30
   7  -5  -4   11.36    1.22
  -7  -5   4   11.29    1.01
   7   5  -4   11.76    1.37
  -7   5   4   13.64    1.39
   7   5  -4   10.58    1.28
  -7   5   4   12.62    1.30
   6  -5  -4   25.84    1.58
   6  -5  -4   28.63    1.46
   6  -5  -4   23.76    1.41
  -6  -5   4   23.72    1.35
  -6  -5   4   25.01    1.49
  -6   5   4   26.94    1.47
  -6   5   4   25.80    1.45
   6   5  -4   22.18    1.42
   6   5  -4   24.46    1.45
  -5  -5   4   77.81    2.48
  -5  -5   4   74.83    2.52
   5  -5  -4   75.33    2.43
   5  -5  -4   75.32    2.33
  -5   5   4   77.79    2.44
  -5   5   4   80.43    2.53
   5   5  -4   78.06    2.49
   5   5  -4   76.31    2.48
  -4  -5   4   49.74    1.82
   4  -5  -4   47.49    1.71
   4  -5  -4   43.54    1.28
  -4  -5   4   64.93    3.00
   4  -5  -4   51.16    1.94
  -4  -5   4   51.43    1.83
  -4  -5   4   50.38    1.39
   4  -5  -4   50.94    1.63
  -4   5   4   49.75    1.78
  -4   5   4   51.16    1.34
  -4   5   4   52.03    1.73
   4   5  -4   52.80    1.87
   4   5  -4   50.91    1.40
  -4   5   4   48.80    1.32
   4   5  -4   51.51    1.79
   3  -5  -4    1.58    0.31
  -3  -5   4    1.29    0.27
   3  -5  -4    1.55    0.29
  -3  -5   4    2.22    0.45
   3  -5  -4    1.92    0.43
  -3  -5   4    2.17    0.55
  -3  -5   4    1.41    0.35
   3  -5  -4    1.47    0.35
  -3   5   4    1.67    0.34
   3   5  -4    1.34    0.35
  -3   5   4    1.54    0.28
   3   5  -4    2.13    0.47
  -3   5   4    2.23    0.33
  -3   5   4    0.66    0.30
   3   5  -4    1.55    0.30
   2  -5  -4   25.52    0.97
   2  -5  -4   24.81    0.99
  -2  -5   4   24.69    0.96
  -2  -5   4   25.45    1.04
  -2  -5   4   23.12    1.09
   2  -5  -4   25.48    0.96
   2  -5  -4   21.41    1.04
  -2   5   4   23.19    0.95
   2   5  -4   25.01    0.98
  -2   5   4   25.27    1.06
  -2   5   4   24.91    0.95
   2   5  -4   25.53    1.15
  -2   5   4   23.62    0.94
   2   5  -4   24.65    1.00
   1  -5  -4  118.67    2.84
  -1  -5   4  115.70    2.48
  -1  -5   4  121.12    2.98
   1  -5  -4  113.42    2.84
  -1  -5   4  115.05    3.03
   1  -5  -4  118.14    2.67
  -1  -5   4  120.44    2.80
   1   5  -4  115.07    2.71
  -1   5   4  115.96    2.67
   1   5  -4  112.17    2.77
  -1   5   4  116.19    2.85
   1   5  -4  118.89    2.98
   1   5  -4  121.51    3.02
   1   5  -4  117.38    2.82
  -1   5   4  116.75    2.84
   0  -5  -4    1.25    0.33
   0  -5  -4    1.99    0.33
   0  -5   4    1.47    0.35
   0  -5   4    1.90    0.18
   0  -5  -4    1.39    0.32
   0  -5   4    1.32    0.30
   0   5  -4    1.68    0.36
   0   5   4    1.63    0.31
   0   5  -4    2.14    0.36
   0   5  -4    1.50    0.33
   0   5   4    2.05    0.39
   0   5   4    1.07    0.32
   0   5   4    1.40    0.33
   0   5  -4    1.46    0.33
   1  -5   4   38.55    1.36
   1  -5   4   38.28    1.39
  -1  -5  -4   37.77    1.29
  -1  -5  -4   36.96    1.22
  -1  -5  -4   40.18    1.50
   1   5   4   40.27    1.52
  -1   5  -4   38.11    1.38
   1   5   4   38.37    1.49
  -1   5  -4   39.86    1.40
   1   5   4   38.39    1.39
  -1   5  -4   39.40    1.42
  -2  -5  -4   33.21    1.12
   2  -5   4   34.10    1.12
   2  -5   4   32.07    1.27
  -2  -5  -4   31.22    1.40
   2  -5   4   33.55    1.36
  -2   5  -4   30.85    1.31
   2   5   4   32.57    1.33
   2   5   4   34.80    1.21
   2   5   4   32.92    1.23
  -2   5  -4   33.05    1.26
  -2   5  -4   31.70    1.25
   2   5   4   33.48    1.45
  -3  -5  -4   30.77    1.10
   3  -5   4   32.16    1.46
  -3  -5  -4   34.70    1.55
   3  -5   4   32.77    1.29
   3   5   4   34.00    1.44
   3   5   4   32.14    1.53
  -3   5  -4   32.84    0.93
  -3   5  -4   32.00    1.27
  -3   5  -4   31.41    1.25
   3   5   4   32.80    1.18
   3   5   4   31.75    1.37
  -3   5  -4   32.65    1.40
  -4  -5  -4   30.63    1.54
   4  -5   4   28.83    1.52
  -4   5  -4   28.64    1.22
  -4   5  -4   28.96    1.39
   4   5   4   30.60    1.57
   4   5   4   28.76    1.47
   5  -5   4    6.54    0.95
  -5  -5  -4    6.57    0.89
  -5   5  -4    8.26    0.93
   5   5   4    7.03    0.98
  -5   5  -4    8.16    0.67
   5   5   4    7.89    1.37
  -6  -5  -4    0.59    0.46
   6  -5   4    0.69    0.62
   6   5   4    1.17    0.71
   7  -6  -4    5.93    0.94
  -7  -6   4    4.86    0.81
   7  -6  -4    7.78    1.05
   7  -6  -4    7.05    1.11
  -7  -6   4    4.81    0.92
   7   6  -4    5.28    0.99
  -7   6   4    4.24    0.82
   7   6  -4    5.50    0.95
  -7   6   4    5.63    0.94
   6  -6  -4   12.32    1.04
   6  -6  -4    8.61    1.00
   6  -6  -4   10.97    1.26
  -6  -6   4    9.48    1.09
  -6  -6   4   11.25    1.18
  -6   6   4   11.80    1.23
   6   6  -4   12.15    1.24
   6   6  -4   11.23    1.26
  -6   6   4    9.77    1.08
  -5  -6   4    2.55    0.60
   5  -6  -4    2.52    0.63
  -5  -6   4    2.35    0.55
   5  -6  -4    1.50    0.47
   5  -6  -4    2.79    0.58
  -5   6   4    1.98    0.51
   5   6  -4    1.90    0.53
  -5   6   4    2.03    0.51
   5   6  -4    2.16    0.54
   4  -6  -4    7.93    0.81
  -4  -6   4    5.73    0.70
   4  -6  -4    7.18    0.43
   4  -6  -4    8.58    0.96
   4  -6  -4    6.70    0.62
  -4  -6   4    8.52    0.91
  -4  -6   4    7.43    0.49
  -4   6   4    6.38    0.40
   4   6  -4    6.03    0.81
  -4   6   4    6.26    0.76
   4   6  -4    6.68    0.75
   4   6  -4    7.81    0.50
  -4   6   4    6.37    0.69
  -4   6   4    6.82    0.43
  -3  -6   4   14.02    0.92
   3  -6  -4   13.56    0.91
  -3  -6   4   15.27    0.73
   3  -6  -4   14.70    0.74
  -3  -6   4   15.13    0.87
   3  -6  -4   14.81    0.81
   3  -6  -4   14.58    0.69
  -3   6   4   14.38    0.68
   3   6  -4   15.81    0.85
  -3   6   4   14.91    0.77
   3   6  -4   14.98    0.73
  -3   6   4   14.03    0.86
   3   6  -4   14.31    0.94
  -3   6   4   14.37    0.69
  -2  -6   4   18.46    0.85
   2  -6  -4   17.21    0.95
   2  -6  -4   17.19    0.82
   2  -6  -4   19.09    0.85
  -2  -6   4   17.52    0.88
   2  -6  -4   18.53    0.80
  -2  -6   4   17.73    1.00
  -2   6   4   19.90    0.82
   2   6  -4   18.43    1.03
  -2   6   4   18.56    0.85
   2   6  -4   18.16    0.85
   2   6  -4   17.70    0.84
  -2   6   4   17.36    0.82
  -2   6   4   16.22    0.89
  -1  -6   4   12.23    0.69
   1  -6  -4   13.74    0.78
   1  -6  -4   12.96    0.79
   1  -6  -4   12.77    0.62
  -1  -6   4   12.00    0.80
  -1   6   4   11.74    0.74
   1   6  -4   11.00    0.79
   1   6  -4   12.17    0.72
   1   6  -4   12.82    0.66
  -1   6   4   12.10    0.61
  -1   6   4   12.35    0.72
   1   6  -4   11.27    0.66
  -1   6   4   11.75    0.74
   0  -6   4   34.45    1.35
   0  -6  -4   36.56    1.29
   0  -6   4   33.67    1.19
   0  -6  -4   33.17    1.10
   0  -6  -4   33.79    1.33
   0   6   4   33.20    1.11
   0   6   4   32.26    1.26
   0   6  -4   33.10    1.28
   0   6   4   35.02    1.36
   0   6   4   35.27    1.34
   0   6  -4   31.09    1.28
   0   6  -4   32.55    1.18
   0   6  -4   32.44    1.32
   1  -6   4   15.39    0.71
  -1  -6  -4   16.27    0.97
  -1  -6  -4   15.93    0.79
  -1  -6  -4   16.71    0.81
   1  -6   4   15.42    0.87
   1  -6   4   16.40    0.89
   1   6   4   15.41    0.95
   1   6   4   16.89    0.92
  -1   6  -4   17.34    0.93
  -1   6  -4   15.59    0.86
  -1   6  -4   15.48    0.87
   2  -6   4   15.28    0.66
   2  -6   4   13.60    0.88
  -2  -6  -4   14.79    0.99
  -2  -6  -4   14.17    0.76
   2  -6   4   14.69    0.85
   2   6   4   14.73    0.92
  -2   6  -4   14.76    0.84
  -2   6  -4   14.73    0.85
  -2   6  -4   15.92    0.95
   2   6   4   14.10    1.00
  -3  -6  -4    4.21    0.53
  -3  -6  -4    3.22    0.60
   3  -6   4    3.06    0.59
   3  -6   4    4.24    0.55
  -3   6  -4    3.88    0.54
   3   6   4    3.22    0.51
  -3   6  -4    4.57    0.68
  -3   6  -4    3.95    0.78
   3   6   4    4.29    0.70
   3   6   4    2.87    0.56
   3   6   4    4.55    0.70
   4  -6   4    4.39    0.75
  -4  -6  -4    7.31    0.95
   4   6   4    5.50    0.81
  -4   6  -4    6.86    0.88
   4   6   4    7.70    0.97
  -4   6  -4    6.04    0.66
  -5  -6  -4    8.45    1.07
   5  -6   4    7.05    1.01
  -5   6  -4    9.53    1.05
   5   6   4    6.97    0.97
   5   6   4    7.40    1.07
  -5   6  -4    8.45    0.66
   6  -6   4    7.10    1.09
   6   6   4    5.71    1.00
  -6   6  -4    6.67    0.98
  -7  -7   4    6.35    1.36
   7  -7  -4    6.69    1.16
   7  -7  -4    4.51    0.91
   7  -7  -4    6.63    0.99
  -7   7   4    5.67    0.92
   7   7  -4    4.71    0.97
  -7   7   4    5.35    0.92
   7   7  -4    5.13    0.93
  -6  -7   4   14.01    1.16
   6  -7  -4   11.57    1.06
   6  -7  -4   13.82    1.07
   6  -7  -4   11.95    1.31
  -6  -7   4   12.01    1.08
   6   7  -4   13.03    1.08
  -6   7   4   12.32    1.03
  -6   7   4   13.35    1.09
  -5  -7   4   25.55    1.41
  -5  -7   4   23.80    1.37
   5  -7  -4   24.58    1.28
   5  -7  -4   24.17    1.48
   5  -7  -4   24.85    1.30
   5   7  -4   24.97    1.42
   5   7  -4   24.82    1.31
  -5   7   4   25.10    1.35
  -5   7   4   23.57    1.24
  -4  -7   4   57.43    1.99
   4  -7  -4   56.12    2.16
   4  -7  -4   56.94    1.89
  -4  -7   4   57.83    1.97
   4  -7  -4   57.12    1.86
  -4  -7   4   58.07    2.11
   4   7  -4   55.91    1.92
  -4   7   4   55.96    1.99
   4   7  -4   59.37    2.17
  -4   7   4   56.80    1.83
   4   7  -4   56.33    1.56
  -4   7   4   58.94    1.57
  -4   7   4   56.38    1.46
  -3  -7   4    6.44    0.71
   3  -7  -4    5.04    0.45
   3  -7  -4    6.36    0.69
   3  -7  -4    6.23    0.66
   3  -7  -4    6.08    0.78
  -3  -7   4    5.40    0.54
   3  -7  -4    5.78    0.53
  -3  -7   4    6.43    0.82
  -3   7   4    4.99    0.46
   3   7  -4    7.58    0.73
   3   7  -4    6.99    0.86
  -3   7   4    6.19    0.52
  -3   7   4    4.30    0.58
   3   7  -4    5.72    0.57
  -3   7   4    5.32    0.45
   2  -7  -4    2.97    0.42
  -2  -7   4    3.29    0.54
   2  -7  -4    2.89    0.42
   2  -7  -4    2.89    0.38
   2  -7  -4    2.22    0.50
  -2  -7   4    2.02    0.39
  -2   7   4    3.75    0.56
  -2   7   4    3.35    0.41
   2   7  -4    3.82    0.48
   2   7  -4    3.39    0.46
  -2   7   4    2.82    0.43
   2   7  -4    2.87    0.53
  -2   7   4    2.45    0.39
  -1  -7   4   18.90    1.04
   1  -7  -4   20.31    0.80
  -1  -7   4   19.92    0.90
   1  -7  -4   21.13    1.00
   1  -7  -4   18.81    1.01
   1   7  -4   19.05    1.05
   1   7  -4   21.83    1.07
  -1   7   4   20.41    1.00
  -1   7   4   22.58    1.04
  -1   7   4   20.29    0.80
   1   7  -4   19.49    0.95
  -1   7   4   21.92    1.01
   1   7  -4   21.69    0.86
   0  -7  -4   37.50    1.40
   0  -7  -4   36.81    1.18
   0  -7  -4   38.32    1.49
   0  -7   4   40.06    1.50
   0  -7   4   37.28    1.29
   0   7  -4   38.30    1.47
   0   7  -4   36.33    1.40
   0   7  -4   38.50    1.49
   0   7   4   38.33    1.50
   0   7  -4   38.50    1.31
   0   7   4   36.58    1.44
   0   7   4   34.98    1.39
  -1  -7  -4   11.61    0.77
  -1  -7  -4   11.99    0.69
  -1  -7  -4   13.04    0.92
   1  -7   4   12.01    0.68
   1  -7   4   12.14    0.80
  -1   7  -4   11.97    0.79
  -1   7  -4   12.84    0.83
  -1   7  -4   13.69    0.87
   1   7   4   13.75    0.95
   1   7   4   13.66    0.87
   2  -7   4   57.27    1.82
  -2  -7  -4   52.83    1.72
   2  -7   4   55.38    1.95
  -2  -7  -4   55.78    2.05
   2  -7   4   55.32    1.57
  -2   7  -4   55.08    1.79
   2   7   4   59.97    2.13
  -2   7  -4   56.23    1.83
  -2   7  -4   54.44    1.94
   2   7   4   55.61    1.95
  -3  -7  -4   17.18    1.20
  -3  -7  -4   19.17    0.97
   3  -7   4   19.62    1.24
   3  -7   4   18.86    0.99
  -3   7  -4   19.28    0.99
   3   7   4   21.05    1.32
   3   7   4   20.04    1.19
  -3   7  -4   20.76    1.20
   3   7   4   20.56    1.14
   4  -7   4   21.81    1.39
  -4  -7  -4   22.32    1.28
  -4  -7  -4   19.79    1.37
  -4   7  -4   22.32    1.31
  -4   7  -4   21.11    1.03
   4   7   4   19.57    1.29
   4   7   4   21.72    1.43
   5  -7   4    1.04    0.66
  -5  -7  -4    0.81    0.54
   5   7   4    1.52    0.58
  -5   7  -4    1.54    0.37
  -5   7  -4    1.39    0.55
   5   7   4    1.86    0.69
   6  -8  -4    3.34    0.79
   6  -8  -4    3.66    0.77
  -6  -8   4    2.20    0.64
  -6  -8   4    2.60    0.67
   6  -8  -4    4.13    0.74
   6   8  -4    2.35    0.65
  -6   8   4    2.79    0.64
  -6   8   4    3.01    0.69
  -6   8   4    4.19    0.78
  -5  -8   4    0.85    0.46
   5  -8  -4    0.58    0.39
   5  -8  -4    0.76    0.50
   5  -8  -4    0.17    0.40
  -5  -8   4    0.57    0.43
   5   8  -4    0.64    0.39
   5   8  -4    0.33    0.39
  -5   8   4    0.19    0.31
  -5   8   4    0.35    0.36
   4  -8  -4   22.32    1.12
   4  -8  -4   21.94    1.11
   4  -8  -4   20.78    1.33
  -4  -8   4   23.20    1.21
  -4  -8   4   22.43    1.31
   4   8  -4   22.58    1.14
  -4   8   4   23.08    1.23
   4   8  -4   20.98    0.87
   4   8  -4   22.06    1.34
  -4   8   4   22.63    1.06
   3  -8  -4    4.07    0.47
   3  -8  -4    3.81    0.53
  -3  -8   4    3.74    0.63
  -3  -8   4    4.67    0.60
   3  -8  -4    3.68    0.48
   3  -8  -4    3.34    0.60
   3  -8  -4    4.75    0.57
  -3   8   4    3.73    0.48
   3   8  -4    3.78    0.66
  -3   8   4    3.37    0.43
  -3   8   4    3.95    0.48
   3   8  -4    2.84    0.43
   3   8  -4    3.78    0.53
  -3   8   4    2.71    0.51
  -2  -8   4   19.21    0.84
   2  -8  -4   18.70    0.79
  -2  -8   4   18.76    1.10
  -2  -8   4   18.67    0.92
   2  -8  -4   20.77    1.12
   2  -8  -4   17.64    0.90
   2  -8  -4   19.83    0.88
  -2   8   4   16.50    0.96
   2   8  -4   20.14    1.15
  -2   8   4   19.68    0.80
  -2   8   4   19.66    0.96
   2   8  -4   19.89    0.95
   2   8  -4   19.90    0.89
  -2   8   4   19.37    0.92
  -1  -8   4   58.67    1.47
   1  -8  -4   59.55    1.57
  -1  -8   4   57.68    2.01
   1  -8  -4   59.82    1.91
   1  -8  -4   59.36    1.67
   1  -8  -4   59.39    1.99
  -1  -8   4   64.82    1.78
   1   8  -4   58.22    1.87
  -1   8   4   59.44    1.57
  -1   8   4   59.35    1.93
   1   8  -4   63.32    2.10
  -1   8   4   58.37    1.88
  -1   8   4   57.41    1.91
   1   8  -4   60.69    1.66
   0  -8   4  102.08    2.82
   0  -8  -4   99.17    2.37
   0  -8   4  103.33    2.54
   0  -8  -4   98.00    2.73
   0  -8  -4   98.67    2.81
   0   8   4  100.30    2.77
   0   8  -4  102.01    2.77
   0   8   4  103.74    2.88
   0   8  -4  101.24    2.83
   0   8  -4  105.84    2.81
  -1  -8  -4   17.97    1.11
   1  -8   4   18.03    1.00
   1  -8   4   17.68    0.89
  -1  -8  -4   17.11    0.96
  -1  -8  -4   17.75    0.84
   1   8   4   19.23    1.14
  -1   8  -4   17.99    0.99
   1   8   4   16.87    1.01
  -1   8  -4   17.77    1.04
  -1   8  -4   17.87    1.01
   2  -8   4    1.81    0.38
   2  -8   4    2.61    0.47
  -2  -8  -4    1.54    0.43
  -2  -8  -4    1.79    0.54
   2  -8   4    1.42    0.43
  -2   8  -4    1.62    0.39
  -2   8  -4    1.26    0.43
   2   8   4    2.03    0.58
   2   8   4    1.01    0.40
  -2   8  -4    1.39    0.37
  -3  -8  -4   18.96    1.03
  -3  -8  -4   18.04    1.27
   3  -8   4   20.54    1.29
  -3   8  -4   20.73    1.05
  -3   8  -4   20.07    1.23
   3   8   4   20.39    1.34
   3   8   4   18.56    1.19
  -4  -8  -4   10.67    0.85
   4  -8   4    9.27    1.10
  -4  -8  -4    9.53    1.06
  -4   8  -4    9.97    0.75
   4   8   4   11.15    1.16
   4   8   4   10.15    1.17
  -4   8  -4   12.65    1.05
  -5  -8  -4    7.70    1.05
   5  -8   4    9.32    1.18
  -5   8  -4   12.72    1.31
  -5   8  -4   10.24    0.71
   5   8   4   12.69    1.41
  -6  -9   4   17.63    1.37
   6  -9  -4   16.49    1.38
  -6  -9   4   16.00    1.30
   6  -9  -4   15.01    1.12
   6  -9  -4   16.39    1.30
   6   9  -4   16.90    1.24
  -6   9   4   16.79    1.27
  -6   9   4   18.73    1.21
  -6   9   4   16.66    1.26
  -5  -9   4    8.42    1.01
  -5  -9   4    9.81    1.09
   5  -9  -4    9.20    0.94
   5  -9  -4    8.71    0.96
   5  -9  -4    8.66    1.11
  -5   9   4    9.47    0.80
   5   9  -4    9.08    0.99
   5   9  -4    7.61    1.05
  -5   9   4   11.05    1.15
   4  -9  -4   20.36    1.11
  -4  -9   4   20.28    1.31
   4  -9  -4   19.81    1.35
   4  -9  -4   19.93    1.05
  -4  -9   4   20.59    1.16
   4   9  -4   18.19    1.30
   4   9  -4   18.91    0.86
   4   9  -4   19.00    1.05
  -4   9   4   18.50    1.14
  -4   9   4   20.68    1.00
  -3  -9   4   16.29    0.94
   3  -9  -4   16.24    0.86
  -3  -9   4   16.46    1.12
   3  -9  -4   15.04    1.11
   3   9  -4   15.72    0.85
   3   9  -4   15.28    0.86
  -3   9   4   16.92    1.03
   3   9  -4   14.94    1.13
  -3   9   4   17.13    0.81
  -3   9   4   16.25    0.83
  -2  -9   4    3.54    0.44
   2  -9  -4    3.30    0.39
  -2  -9   4    2.77    0.45
   2  -9  -4    3.07    0.48
   2  -9  -4    2.03    0.49
   2  -9  -4    3.87    0.50
  -2  -9   4    3.53    0.60
   2   9  -4    4.66    0.62
  -2   9   4    4.38    0.45
  -2   9   4    4.19    0.58
   2   9  -4    3.82    0.49
   2   9  -4    4.48    0.69
  -2   9   4    3.51    0.56
  -2   9   4    3.16    0.48
   1  -9  -4    5.82    0.50
  -1  -9   4    6.65    0.42
   1  -9  -4    6.66    0.78
   1  -9  -4    6.31    0.74
  -1  -9   4    6.82    0.80
  -1  -9   4    6.42    0.55
   1  -9  -4    6.90    0.45
  -1   9   4    5.70    0.42
  -1   9   4    7.68    0.79
   1   9  -4    6.46    0.51
  -1   9   4    7.38    0.78
  -1   9   4    6.29    0.68
   1   9  -4    5.87    0.75
   1   9  -4    6.69    0.71
   0  -9   4    0.78    0.29
   0  -9   4    0.98    0.39
   0  -9  -4    0.68    0.37
   0  -9  -4    1.03    0.40
   0  -9  -4    0.89    0.25
   0   9   4    0.80    0.36
   0   9  -4    1.02    0.42
   0   9   4    0.72    0.34
   0   9  -4    1.27    0.40
   1  -9   4   14.61    0.95
  -1  -9  -4   16.07    1.09
  -1  -9  -4   14.62    0.74
  -1  -9  -4   14.88    0.96
   1  -9   4   15.68    0.89
  -1   9  -4   16.68    0.99
  -1   9  -4   16.55    1.04
  -1   9  -4   15.48    0.99
   1   9   4   15.32    1.01
   1   9   4   16.89    1.13
  -2  -9  -4   13.58    1.10
  -2  -9  -4   14.84    0.97
   2  -9   4   15.13    0.95
   2  -9   4   14.73    0.86
   2  -9   4   13.56    1.06
  -2   9  -4   15.98    0.97
  -2   9  -4   16.89    1.11
   2   9   4   15.25    1.05
   2   9   4   15.67    1.17
  -3  -9  -4    7.75    1.08
   3  -9   4    4.58    0.75
  -3  -9  -4    5.02    0.68
   3   9   4    5.54    0.83
   3   9   4    6.49    0.99
  -3   9  -4    7.03    0.91
  -3   9  -4    7.37    0.76
  -4  -9  -4    7.26    1.07
   4  -9   4    6.44    1.00
  -4  -9  -4    4.83    0.75
  -4   9  -4    5.97    0.86
   4   9   4    4.46    0.83
   4   9   4    7.76    1.15
  -4   9  -4    6.91    0.72
   5  -9   4    3.56    0.90
  -5  -9  -4    3.40    0.78
  -5   9  -4    4.65    0.88
   5   9   4    3.31    0.84
   6 -10  -4    2.95    0.67
   6 -10  -4    2.17    0.66
   6 -10  -4    2.53    0.77
  -6 -10   4    3.94    0.81
  -6  10   4    3.03    0.73
   6  10  -4    3.98    0.75
  -6  10   4    3.15    0.77
  -5 -10   4    0.91    0.45
   5 -10  -4    1.54    0.56
   5 -10  -4    1.70    0.50
  -5 -10   4    2.02    0.64
   5 -10  -4    1.14    0.61
  -5  10   4    1.77    0.56
   5  10  -4    1.60    0.63
   5  10  -4    1.77    0.52
   4 -10  -4   38.71    1.91
  -4 -10   4   41.42    1.94
   4 -10  -4   38.63    1.62
   4 -10  -4   40.37    1.52
  -4 -10   4   40.31    1.65
   4  10  -4   41.38    1.58
   4  10  -4   43.20    2.02
  -4  10   4   39.06    1.21
  -4  10   4   39.44    1.42
  -4  10   4   40.66    1.75
  -3 -10   4   52.83    1.81
  -3 -10   4   53.36    2.14
   3 -10  -4   53.95    1.67
   3 -10  -4   52.39    2.13
   3  10  -4   54.45    1.74
  -3  10   4   53.31    1.54
   3  10  -4   58.04    2.27
  -3  10   4   54.36    1.97
   3  10  -4   48.73    1.67
   2 -10  -4   18.95    1.24
  -2 -10   4   24.40    1.36
  -2 -10   4   20.54    0.99
   2 -10  -4   20.97    1.06
   2 -10  -4   20.38    0.89
  -2  10   4   22.04    0.81
   2  10  -4   21.84    1.09
  -2  10   4   20.98    1.09
   2  10  -4   22.03    1.34
   2  10  -4   22.61    0.95
  -2  10   4   21.18    1.16
   1 -10  -4   79.44    2.63
  -1 -10   4   93.05    2.79
  -1 -10   4   86.79    2.05
   1 -10  -4   85.47    2.20
   1 -10  -4   88.08    2.58
   1 -10  -4   85.52    2.13
  -1 -10   4   87.58    2.28
   1  10  -4   86.46    2.14
  -1  10   4   86.62    2.59
   1  10  -4   82.97    2.51
  -1  10   4   81.43    2.51
  -1  10   4   85.38    2.58
   1  10  -4   87.40    2.77
   0 -10   4   76.13    2.41
   0 -10   4   71.01    1.96
   0 -10  -4   70.85    2.33
   0 -10  -4   67.81    1.82
   0 -10  -4   73.95    2.39
   0  10  -4   69.67    2.36
   0  10   4   63.43    2.22
   0  10  -4   69.70    1.81
   0  10   4   72.82    2.41
   0  10  -4   70.09    2.30
   1 -10   4    8.78    0.80
   1 -10   4   10.88    0.83
  -1 -10  -4   10.20    1.09
  -1 -10  -4    9.48    0.85
   1  10   4   10.92    0.90
  -1  10  -4   10.39    0.90
  -1  10  -4   10.93    0.88
  -1  10  -4    9.92    0.90
   1  10   4   10.88    1.11
  -2 -10  -4   12.33    1.28
   2 -10   4   11.53    0.92
  -2 -10  -4   10.30    0.89
   2 -10   4   10.42    0.81
   2  10   4   12.91    1.30
   2  10   4   10.60    1.13
  -2  10  -4   11.71    1.00
  -2  10  -4   11.34    0.87
  -3 -10  -4    0.44    0.39
  -3 -10  -4    0.30    0.43
   3 -10   4    0.09    0.46
  -3  10  -4    0.71    0.35
   3  10   4    0.32    0.45
   3  10   4    1.20    0.59
  -3  10  -4    0.38    0.40
   4 -10   4    4.06    0.82
  -4 -10  -4    5.36    0.89
  -4 -10  -4    6.64    0.90
   4  10   4    4.97    0.94
  -4  10  -4    5.52    0.65
  -4  10  -4    5.73    0.90
   5 -10   4    0.17    0.51
   5  10   4    0.82    0.66
  -5  10  -4    0.69    0.52
   5  10   4   -0.28    0.47
  -6 -11   4   -0.19    0.40
   6 -11  -4    0.11    0.52
   6 -11  -4    0.63    0.66
  -6  11   4    0.68    0.47
  -6  11   4    0.32    0.56
   5 -11  -4    7.06    0.95
  -5 -11   4    7.65    0.99
  -5 -11   4    6.87    1.00
   5 -11  -4    6.42    1.11
   5 -11  -4    6.31    1.08
   5  11  -4    6.10    0.97
  -5  11   4    8.06    1.01
   5  11  -4    9.99    1.03
   4 -11  -4    1.14    0.56
  -4 -11   4    0.92    0.48
  -4 -11   4    0.70    0.37
   4  11  -4    1.39    0.57
  -4  11   4    0.58    0.40
   4  11  -4    1.22    0.40
  -4  11   4    1.07    0.29
   3 -11  -4    9.86    1.17
  -3 -11   4    9.91    1.12
  -3 -11   4    9.03    0.74
   3  11  -4    8.48    0.67
  -3  11   4    7.81    0.89
   3  11  -4    7.99    0.68
  -3  11   4    8.83    0.71
   3  11  -4    9.86    1.20
   2 -11  -4    3.54    0.74
  -2 -11   4    4.23    0.56
   2 -11  -4    4.15    0.89
  -2 -11   4    3.44    0.67
  -2  11   4    3.42    0.62
   2  11  -4    2.76    0.65
   2  11  -4    4.18    0.72
   2  11  -4    3.43    0.58
  -1 -11   4    0.67    0.28
   1 -11  -4   -0.07    0.26
   1 -11  -4    0.06    0.38
  -1 -11   4    0.58    0.40
   1  11  -4    0.20    0.31
  -1  11   4    0.47    0.36
  -1  11   4    0.52    0.36
   1  11  -4    0.32    0.40
   0 -11   4   18.71    0.88
   0 -11  -4   19.28    1.21
   0 -11   4   18.30    1.12
   0 -11   4   19.48    1.20
   0 -11  -4   20.21    1.22
   0  11   4   18.47    1.14
   0  11  -4   18.38    1.15
   0  11   4   19.11    1.23
   0  11  -4   18.36    1.19
  -1 -11  -4   12.30    1.00
  -1 -11  -4   12.92    1.08
   1 -11   4   11.76    0.90
   1 -11   4   12.04    0.96
   1  11   4   12.83    1.01
  -1  11  -4   12.48    1.01
   1  11   4   12.09    1.09
  -1  11  -4   13.11    1.00
   2 -11   4    7.82    0.87
  -2 -11  -4    6.95    0.90
  -2 -11  -4    8.44    1.05
  -2  11  -4    8.39    1.06
   2  11   4    8.90    1.07
   2  11   4    8.52    1.06
  -2  11  -4    8.44    0.90
   3 -11   4    8.46    1.07
  -3 -11  -4   10.54    1.10
  -3 -11  -4   11.02    1.28
  -3  11  -4   11.29    1.26
   3  11   4    8.86    1.04
  -3  11  -4   10.81    0.86
  -4 -11  -4    2.69    0.69
  -4 -11  -4    2.16    0.73
   4 -11   4    2.09    0.74
  -4  11  -4    2.36    0.70
  -4  11  -4    2.34    0.50
  -5 -12   4    6.93    0.90
  -5 -12   4    7.96    1.12
   5 -12  -4    8.34    1.23
   5  12  -4    8.09    1.16
   5  12  -4    8.06    0.93
  -5  12   4    7.26    0.98
  -5  12   4    9.48    1.24
   4 -12  -4    6.18    1.05
  -4 -12   4    7.20    0.85
  -4 -12   4    7.18    1.04
  -4  12   4    5.46    0.83
  -4  12   4    6.61    0.55
   4  12  -4    7.04    1.04
   3 -12  -4   13.31    1.39
  -3 -12   4   13.32    0.88
  -3 -12   4   12.79    1.15
   3  12  -4   12.60    0.87
  -3  12   4   12.61    1.03
   3  12  -4   13.48    1.41
  -3  12   4   12.19    0.85
   2 -12  -4   12.30    1.11
  -2 -12   4   10.66    1.17
  -2 -12   4   12.10    0.76
   2  12  -4   12.34    1.26
  -2  12   4   10.70    0.93
   2  12  -4   10.24    0.86
  -1 -12   4    6.41    0.94
   1 -12  -4    5.35    0.76
  -1 -12   4    5.73    0.58
   1 -12  -4    4.95    0.83
  -1  12   4    4.23    0.71
   1  12  -4    5.26    0.73
   1  12  -4    4.64    0.79
   0 -12  -4    3.34    0.71
   0 -12   4    4.11    0.73
   0 -12  -4    2.38    0.57
   0 -12   4    3.16    0.64
   0  12   4    3.72    0.69
   0  12  -4    3.60    0.70
   0  12  -4    2.21    0.56
   0  12   4    3.47    0.70
   1 -12   4    9.65    0.91
  -1 -12  -4   10.05    1.14
   1 -12   4    9.23    0.98
  -1 -12  -4   11.13    1.04
   1  12   4   11.37    1.20
   1  12   4    9.48    1.04
  -1  12  -4   11.95    1.20
  -1  12  -4   10.00    0.94
  -2 -12  -4    0.39    0.44
   2 -12   4    0.86    0.47
  -2 -12  -4    0.13    0.37
  -2  12  -4    0.28    0.34
   2  12   4    0.23    0.45
  -2  12  -4    0.30    0.41
  -3 -12  -4    2.02    0.64
  -3 -12  -4    1.89    0.63
  -3  12  -4    1.92    0.63
  -3  12  -4    2.16    0.51
   3  12   4    2.68    0.69
  -4 -12  -4    1.75    0.67
   4 -12   4    1.11    0.72
  -4 -12  -4    1.11    0.61
  -4  12  -4    1.63    0.46
   4  12   4    1.49    0.67
  -4  12  -4    0.96    0.61
   5 -13  -4    6.78    1.20
   5  13  -4    5.55    1.08
  -5  13   4    6.19    0.92
   4 -13  -4    7.12    1.13
  -4 -13   4    8.94    1.22
  -4  13   4    5.23    0.85
   4  13  -4    9.04    1.32
  -3 -13   4    0.78    0.54
   3 -13  -4    1.02    0.58
  -3  13   4    0.87    0.47
   3  13  -4    1.34    0.63
  -3  13   4    0.78    0.39
   3  13  -4    0.13    0.30
   2 -13  -4    0.17    0.40
  -2 -13   4   -0.08    0.38
   2  13  -4   -0.11    0.42
   2  13  -4    0.82    0.39
  -2  13   4    0.11    0.38
  -2  13   4    0.58    0.44
   1 -13  -4    6.04    0.97
  -1 -13   4    5.38    0.88
   1  13  -4    4.13    0.75
  -1  13   4    5.96    0.87
   1  13  -4    4.67    0.84
  -1  13   4    4.08    0.72
   0 -13   4    5.02    0.82
   0 -13  -4    6.39    0.98
   0 -13  -4    3.80    0.72
   0 -13   4    4.63    0.77
   0  13  -4    5.22    0.83
   0  13   4    6.85    0.92
   0  13  -4    6.07    0.87
  -1 -13  -4    7.71    1.04
   1 -13   4    7.40    0.91
  -1 -13  -4    6.62    0.92
   1  13   4    7.44    0.96
  -1  13  -4    6.34    0.93
  -1  13  -4    9.56    1.08
  -2 -13  -4    5.35    0.90
  -2 -13  -4    4.08    0.80
   2 -13   4    6.12    0.90
  -2  13  -4    5.58    0.90
   2  13   4    5.92    0.92
  -2  13  -4    6.23    0.82
  -3 -13  -4    5.12    0.94
  -3 -13  -4    8.21    1.09
   3  13   4    7.77    1.11
  -3  13  -4    6.99    0.86
  -3  13  -4    9.14    1.24
   3  13   4    7.78    1.12
   4 -14  -4    3.80    0.90
  -4 -14   4    5.94    1.06
  -4  14   4    5.12    0.87
   4  14  -4    4.67    1.01
  -3 -14   4   10.66    1.32
   3 -14  -4   10.98    1.29
  -3  14   4   13.94    1.13
  -3  14   4   13.64    0.98
   3  14  -4   12.98    1.44
   2 -14  -4   14.18    1.31
  -2 -14   4   13.85    1.29
   2  14  -4   15.63    1.12
   2  14  -4   14.32    1.46
  -2  14   4   13.99    1.14
  -2  14   4   16.10    1.16
   1 -14  -4    9.52    1.24
  -1 -14   4    6.92    1.01
  -1 -14   4    7.67    1.12
  -1  14   4    7.33    0.97
  -1  14   4    9.39    1.10
   1  14  -4    8.58    1.13
   1  14  -4    9.31    1.06
   0 -14   4    7.25    1.15
   0 -14  -4    5.62    0.89
   0 -14   4    6.03    0.93
   0 -14  -4    5.54    0.92
   0  14   4    6.27    0.94
   0  14  -4    6.13    0.94
   0  14  -4    7.91    1.02
   0  14   4    5.57    0.85
  -1 -14  -4    2.50    0.68
  -1 -14  -4    2.01    0.66
   1 -14   4    1.31    0.59
  -1  14  -4    3.02    0.68
  -1  14  -4    2.53    0.65
   1  14   4    3.26    0.75
   1  14   4    2.60    0.75
   2 -14   4    4.97    0.90
  -2 -14  -4    4.71    0.92
  -2 -14  -4    4.32    0.89
   2  14   4    3.50    0.84
  -2  14  -4    2.81    0.78
   2  14   4    4.82    0.87
  -2  14  -4    4.21    0.75
  -3 -14  -4    3.24    0.89
  -3 -14  -4    3.11    0.80
  -3  14  -4    2.58    0.58
   3  14   4    1.43    0.78
   3 -15  -4    1.87    0.73
  -3 -15   4    3.13    0.84
  -3  15   4    2.42    0.67
  -3  15   4    2.56    0.57
   3  15  -4    3.09    0.95
  -2 -15   4    2.44    0.77
   2 -15  -4    1.31    0.69
  -2  15   4    0.79    0.49
   2  15  -4    0.95    0.47
  -2  15   4    1.26    0.55
   2  15  -4    1.04    0.64
   1 -15  -4    3.44    0.81
  -1 -15   4    4.31    0.86
  -1 -15   4    4.46    0.92
   1  15  -4    4.05    0.87
  -1  15   4    5.39    0.87
  -1  15   4    3.17    0.71
   1  15  -4    4.55    0.83
   0 -15   4    1.12    0.62
   0  15  -4    3.25    0.78
   0  15   4    2.99    0.75
   0  15  -4    1.72    0.58
   0  15   4    2.25    0.64
  -1 -15  -4    4.69    0.97
   1 -15   4    6.20    1.00
  -1 -15  -4    4.37    0.91
  -1  15  -4    4.32    0.90
   1  15   4    6.73    1.11
   1  15   4    5.35    0.95
  -1  15  -4    3.99    0.81
   2 -15   4   12.50    1.34
  -2 -15  -4   11.57    1.37
  -2 -15  -4   11.23    1.40
  -2  15  -4   12.05    1.13
   2  15   4   14.05    2.20
  -2 -16   4    8.37    1.24
   2 -16  -4    6.43    1.10
  -2 -16   4    6.96    1.08
   2  16  -4    8.10    1.00
  -2  16   4    6.96    1.01
  -2  16   4    7.14    0.97
  -1 -16   4    2.17    0.70
   1 -16  -4    2.21    0.80
  -1  16   4    2.84    0.79
   1  16  -4    2.09    0.66
  -1  16   4    2.19    0.70
   0 -16   4    5.83    0.99
   0 -16  -4    5.28    1.05
   0  16   4    6.04    0.99
   0  16  -4    2.82    0.72
  -1 -16  -4    1.59    0.73
   1 -16   4    1.58    0.68
   1  16   4    3.06    0.96
  -7   0   5   10.06    1.23
   7   0  -5    9.29    1.18
   7   0  -5   12.12    1.29
  -7   0   5    8.82    1.11
  -7   0   5    8.56    0.68
  -6   0   5    0.81    0.43
   6   0  -5    1.20    0.47
   6   0  -5    0.49    0.42
  -6   0   5    1.29    0.35
  -6   0   5    0.93    0.48
   5   0  -5   47.59    1.89
   5   0  -5   47.66    1.90
   5   0  -5   46.07    1.95
  -5   0   5   46.36    1.85
   5   0  -5   47.89    1.71
  -5   0   5   48.20    1.90
  -5   0   5   44.76    1.58
   4   0  -5    8.89    0.94
  -4   0   5    8.87    0.66
  -4   0   5    8.79    0.75
   4   0  -5    8.02    0.66
  -4   0   5    9.40    0.78
  -4   0   5    8.15    0.64
   4   0  -5    8.33    0.75
   4   0  -5    7.46    0.60
  -3   0   5   13.75    0.81
   3   0  -5   13.85    0.89
   3   0  -5   13.36    0.80
   3   0  -5   13.91    0.63
  -3   0   5   13.81    0.85
   3   0  -5   12.21    0.82
  -3   0   5   12.28    0.76
  -3   0   5   12.47    0.76
   2   0  -5    0.04    0.19
  -2   0   5    0.34    0.22
   2   0  -5   -0.15    0.15
   2   0  -5    0.27    0.23
  -2   0   5   -0.25    0.15
  -2   0   5    0.02    0.17
  -2   0   5    0.10    0.19
   2   0  -5   -0.27    0.18
   1   0  -5   24.50    1.05
  -1   0   5   25.13    0.96
   1   0  -5   25.60    1.10
  -1   0   5   26.33    1.12
   1   0  -5   24.23    0.96
  -1   0   5   24.85    1.05
   1   0  -5   25.63    0.97
  -1   0   5   25.41    1.10
   0   0  -5   50.13    1.60
   0   0   5   50.49    1.65
   0   0  -5   49.93    1.30
   0   0   5   49.53    1.60
   0   0   5   48.78    1.42
   0   0  -5   45.12    1.60
   0   0  -5   48.84    1.41
   1   0   5  175.51    4.08
  -1   0  -5  184.33    4.23
  -1   0  -5  177.43    3.80
   1   0   5  172.38    3.69
  -1   0  -5  179.69    4.04
  -1   0  -5  172.90    4.11
   1   0   5  179.45    3.80
   1   0   5  184.31    4.18
  -2   0  -5   19.04    0.88
  -2   0  -5   22.17    1.04
   2   0   5   19.95    0.94
  -2   0  -5   19.80    1.08
   2   0   5   22.03    1.11
  -2   0  -5   21.04    1.08
   2   0   5   20.58    0.90
  -3   0  -5   83.44    2.39
  -3   0  -5   82.78    2.53
  -3   0  -5   85.02    2.60
   3   0   5   85.91    2.57
   3   0   5   80.30    2.41
  -4   0  -5   17.98    1.03
   4   0   5   16.48    1.10
   4   0   5   18.42    1.18
  -4   0  -5   17.50    1.12
   5   0   5    2.23    0.72
  -5   0  -5    1.38    0.48
  -5   0  -5    1.68    0.46
  -6   0  -5    2.40    0.61
   6   0   5    2.60    0.77
   7  -1  -5    1.01    0.52
  -7  -1   5    0.32    0.47
   7  -1  -5    1.05    0.55
  -7  -1   5    0.34    0.42
  -7  -1   5    0.60    0.32
   7   1  -5    0.78    0.50
  -7   1   5    0.48    0.48
  -7   1   5    0.51    0.43
   7   1  -5    0.51    0.51
  -7   1   5   -0.03    0.40
   6  -1  -5    0.35    0.39
  -6  -1   5    0.46    0.29
  -6  -1   5    0.78    0.46
   6  -1  -5    0.22    0.39
   6  -1  -5   -0.31    0.41
  -6  -1   5    0.74    0.47
  -6   1   5    0.46    0.26
   6   1  -5    0.72    0.43
   6   1  -5    0.49    0.42
  -6   1   5    1.33    0.53
  -6   1   5    0.57    0.41
   5  -1  -5   28.40    1.25
   5  -1  -5   25.46    1.37
  -5  -1   5   27.54    1.42
   5  -1  -5   25.87    1.43
  -5  -1   5   28.12    1.39
  -5  -1   5   26.35    1.20
  -5   1   5   28.09    1.13
   5   1  -5   27.39    1.29
  -5   1   5   26.82    1.39
  -5   1   5   28.43    1.42
   5   1  -5   26.98    1.39
   5   1  -5   26.23    1.21
   4  -1  -5   46.58    1.81
  -4  -1   5   45.94    1.74
  -4  -1   5   47.81    1.64
   4  -1  -5   46.22    1.74
   4  -1  -5   48.42    1.56
  -4  -1   5   48.26    1.63
  -4  -1   5   45.18    1.68
   4  -1  -5   46.94    1.46
  -4   1   5   44.60    1.52
  -4   1   5   44.85    1.51
   4   1  -5   45.81    1.73
   4   1  -5   46.92    1.52
  -4   1   5   46.98    1.74
  -4   1   5   43.34    1.67
   4   1  -5   46.56    1.63
  -3  -1   5  129.64    3.22
  -3  -1   5  125.83    3.25
   3  -1  -5  133.40    3.15
   3  -1  -5  131.34    2.94
   3  -1  -5  132.14    3.34
  -3  -1   5  130.68    3.19
   3  -1  -5  128.20    3.27
  -3  -1   5  132.18    3.22
  -3   1   5  133.81    3.15
   3   1  -5  130.42    3.31
   3   1  -5  132.61    2.89
  -3   1   5  125.85    3.11
  -3   1   5  132.45    3.27
   3   1  -5  132.85    3.22
   3   1  -5  128.38    3.28
  -3   1   5  133.32    3.24
   2  -1  -5   22.44    1.02
  -2  -1   5   23.61    0.96
   2  -1  -5   22.79    1.02
  -2  -1   5   23.05    1.03
   2  -1  -5   22.20    1.01
  -2  -1   5   21.98    1.02
  -2  -1   5   23.36    1.04
   2   1  -5   21.30    0.96
   2   1  -5   21.15    0.98
  -2   1   5   21.66    0.95
  -2   1   5   22.78    1.00
   2   1  -5   21.66    1.00
   2   1  -5   22.95    1.05
  -2   1   5   22.71    1.02
  -2   1   5   22.18    1.00
   1  -1  -5   84.30    2.25
  -1  -1   5   83.68    2.07
  -1  -1   5   85.18    2.32
   1  -1  -5   83.96    2.14
  -1  -1   5   82.76    2.25
  -1  -1   5   82.90    2.31
   1  -1  -5   85.39    2.30
   1  -1  -5   82.59    2.14
   1   1  -5   82.13    2.24
   1   1  -5   83.74    2.07
   1   1  -5   87.46    2.35
  -1   1   5   84.18    2.29
  -1   1   5   83.22    2.23
  -1   1   5   81.99    2.27
  -1   1   5   85.15    2.17
   0  -1  -5   14.95    0.84
   0  -1   5   16.64    0.71
   0  -1   5   16.64    0.90
   0  -1  -5   15.46    0.88
   0  -1  -5   15.46    0.74
   0  -1   5   15.25    0.84
   0  -1  -5   16.50    0.68
   0   1  -5   16.53    0.90
   0   1  -5   15.75    0.84
   0   1   5   17.91    0.93
   0   1   5   16.75    0.86
   0   1   5   17.25    0.78
   0   1  -5   17.16    1.08
   0   1  -5   16.20    0.69
   1  -1   5    8.52    0.70
   1  -1   5    9.26    0.56
  -1  -1  -5    8.02    0.63
   1  -1   5    8.93    0.53
  -1  -1  -5    8.89    0.59
  -1  -1  -5    8.06    0.69
   1  -1   5    7.60    0.64
  -1   1  -5    8.22    0.51
   1   1   5    7.56    0.50
   1   1   5    8.58    0.58
  -1   1  -5    8.58    0.69
   1   1   5    7.80    0.69
  -1   1  -5    8.69    0.67
  -1   1  -5    8.75    0.71
   2  -1   5    4.92    0.56
  -2  -1  -5    4.10    0.54
   2  -1   5    5.23    0.46
  -2  -1  -5    4.31    0.62
   2  -1   5    5.91    0.70
  -2   1  -5    4.07    0.55
  -2   1  -5    4.35    0.59
  -2   1  -5    4.77    0.61
   2   1   5    3.54    0.51
   2   1   5    4.64    0.56
   2   1   5    4.64    0.53
  -2   1  -5    5.12    0.52
   3  -1   5    8.58    0.77
   3  -1   5    8.90    0.78
  -3  -1  -5    7.46    0.79
  -3  -1  -5    8.52    0.69
  -3   1  -5    8.11    0.75
   3   1   5    8.88    0.80
  -3   1  -5    6.89    0.76
   3   1   5    8.14    0.74
  -3   1  -5    8.56    0.84
  -4  -1  -5    4.17    0.69
   4  -1   5    2.23    0.60
   4  -1   5    4.25    0.65
  -4  -1  -5    3.37    0.54
   4   1   5    5.40    0.78
   4   1   5    4.96    0.74
  -4   1  -5    4.26    0.63
  -4   1  -5    4.13    0.67
   5  -1   5    7.95    1.07
  -5  -1  -5    8.76    1.00
  -5   1  -5    7.89    0.87
  -5   1  -5    7.89    0.91
   5   1   5    7.52    1.03
   6  -1   5    2.12    0.82
  -6  -1  -5    1.83    0.55
   6   1   5    2.00    0.72
  -6   1  -5    1.68    0.54
   7  -2  -5    7.98    1.03
   7  -2  -5    9.70    1.30
  -7  -2   5    8.90    0.81
  -7  -2   5   10.69    1.28
   7  -2  -5    7.11    1.02
   7   2  -5    9.12    1.16
  -7   2   5   10.74    1.30
   7   2  -5    9.78    1.25
  -7   2   5   11.13    1.32
   6  -2  -5    8.92    0.96
   6  -2  -5    8.53    1.06
   6  -2  -5    8.41    1.10
  -6  -2   5    7.20    0.79
  -6  -2   5    8.85    1.10
  -6   2   5    9.09    1.08
  -6   2   5    6.68    0.54
  -6   2   5    6.38    0.88
   6   2  -5    7.72    0.95
   6   2  -5    6.03    0.84
   5  -2  -5   69.26    2.36
   5  -2  -5   69.46    2.09
   5  -2  -5   63.36    2.39
  -5  -2   5   69.53    2.18
  -5  -2   5   69.25    2.38
  -5   2   5   66.42    2.31
  -5   2   5   70.34    2.35
  -5   2   5   68.37    1.92
   5   2  -5   67.18    2.17
   5   2  -5   64.13    2.31
   5   2  -5   70.19    2.19
   4  -2  -5   26.76    1.05
   4  -2  -5   27.91    1.10
  -4  -2   5   28.61    1.27
   4  -2  -5   26.56    1.28
  -4  -2   5   28.79    1.27
  -4  -2   5   28.07    1.33
   4  -2  -5   27.12    1.39
  -4  -2   5   27.67    1.23
  -4   2   5   27.34    1.28
   4   2  -5   26.96    1.24
  -4   2   5   26.49    1.09
   4   2  -5   25.33    1.11
  -4   2   5   28.46    1.11
  -4   2   5   23.93    1.22
   4   2  -5   28.58    1.33
  -3  -2   5    7.31    0.65
   3  -2  -5    7.62    0.65
  -3  -2   5    7.08    0.63
   3  -2  -5    7.00    0.57
  -3  -2   5    7.60    0.61
  -3  -2   5    7.21    0.63
   3  -2  -5    7.70    0.81
   3   2  -5    7.45    0.56
  -3   2   5    7.74    0.58
   3   2  -5    6.79    0.74
  -3   2   5    6.77    0.56
  -3   2   5    7.47    0.62
   3   2  -5    7.48    0.66
  -3   2   5    8.00    0.66
   2  -2  -5   13.14    0.78
  -2  -2   5   14.62    0.83
   2  -2  -5   13.59    0.79
  -2  -2   5   14.54    0.84
  -2  -2   5   14.08    0.83
  -2  -2   5   13.93    0.73
   2  -2  -5   13.66    0.80
  -2   2   5   14.85    0.80
  -2   2   5   12.95    0.77
  -2   2   5   14.38    0.78
   2   2  -5   14.75    0.79
   2   2  -5   15.28    0.87
  -2   2   5   14.76    0.80
   2   2  -5   12.70    0.76
  -1  -2   5    9.18    0.53
  -1  -2   5   10.13    0.67
  -1  -2   5    8.68    0.67
   1  -2  -5    8.39    0.65
  -1  -2   5    8.31    0.65
   1  -2  -5    9.73    0.61
  -1   2   5    9.99    0.65
  -1   2   5    9.10    0.65
  -1   2   5    8.74    0.60
   1   2  -5    9.49    0.66
  -1   2   5    9.16    0.65
   1   2  -5    7.86    0.66
   0  -2  -5  122.83    2.69
   0  -2   5  117.70    2.95
   0  -2  -5  115.69    2.92
   0  -2   5  119.64    2.61
   0  -2   5  119.88    3.04
   0  -2  -5  125.61    3.06
   0   2   5  118.50    3.03
   0   2  -5  122.19    3.05
   0   2  -5  124.21    3.21
   0   2  -5  119.33    2.60
   0   2   5  117.35    2.84
   0   2  -5  122.07    2.99
   0   2   5  114.73    2.91
   1  -2   5   42.05    1.51
  -1  -2  -5   42.80    1.33
  -1  -2  -5   41.00    1.54
   1  -2   5   41.54    1.16
   1  -2   5   42.11    1.31
  -1  -2  -5   40.19    1.42
   1  -2   5   41.97    1.52
  -1   2  -5   38.42    1.48
   1   2   5   39.11    1.52
   1   2   5   39.98    1.17
  -1   2  -5   41.63    1.51
  -1   2  -5   40.12    1.14
   1   2   5   40.61    1.37
  -1   2  -5   37.68    1.42
  -2  -2  -5   33.58    1.45
   2  -2   5   35.43    1.42
  -2  -2  -5   33.34    1.31
   2  -2   5   34.28    1.08
   2  -2   5   32.85    1.28
  -2   2  -5   34.56    1.41
   2   2   5   34.12    1.22
  -2   2  -5   33.46    1.39
  -2   2  -5   31.39    1.33
  -2   2  -5   34.32    1.08
   2   2   5   31.60    1.26
   2   2   5   34.19    1.46
   3  -2   5   15.10    0.97
  -3  -2  -5   16.78    1.08
  -3  -2  -5   14.33    0.87
   3  -2   5   12.80    0.88
   3   2   5   14.89    0.93
   3   2   5   14.98    0.95
  -3   2  -5   13.48    0.94
  -3   2  -5   15.38    0.97
  -3   2  -5   15.57    0.96
  -3   2  -5   16.56    0.79
   3   2   5   13.24    0.99
  -4  -2  -5    4.28    0.59
  -4  -2  -5    3.86    0.65
   4  -2   5    4.73    0.80
  -4   2  -5    4.56    0.65
  -4   2  -5    4.13    0.65
   4   2   5    3.98    0.68
   4   2   5    4.02    0.71
  -5  -2  -5    1.08    0.51
   5  -2   5   -0.09    0.47
  -5   2  -5    1.31    0.44
  -5   2  -5    0.55    0.43
   5   2   5    0.72    0.54
   6  -2   5    0.53    0.71
  -6  -2  -5    0.92    0.53
   6   2   5    0.90    0.70
  -6   2  -5    1.19    0.45
   7  -3  -5   -0.04    0.53
   7  -3  -5    1.46    0.62
   7  -3  -5    0.56    0.53
  -7  -3   5    0.28    0.34
  -7  -3   5    2.07    0.70
  -7   3   5    0.10    0.46
   7   3  -5    0.09    0.41
  -7   3   5    0.64    0.52
   7   3  -5    0.81    0.58
   6  -3  -5    6.23    0.92
   6  -3  -5    7.17    0.94
   6  -3  -5    8.51    0.96
  -6  -3   5    7.75    0.89
  -6  -3   5    6.01    0.88
   6   3  -5    6.43    0.93
  -6   3   5    6.90    0.92
  -6   3   5    7.30    0.50
   6   3  -5    6.95    0.91
  -6   3   5    9.19    1.10
  -5  -3   5    9.34    0.81
  -5  -3   5   12.31    0.98
   5  -3  -5    9.53    1.09
   5  -3  -5   10.16    0.79
   5  -3  -5   11.79    0.94
   5   3  -5   10.38    0.87
   5   3  -5   11.19    0.94
  -5   3   5   10.27    0.63
   5   3  -5   12.26    0.91
  -5   3   5   10.14    0.89
  -5   3   5   12.82    0.96
   4  -3  -5   68.70    2.22
  -4  -3   5   68.09    2.18
   4  -3  -5   68.07    2.34
   4  -3  -5   69.66    1.92
  -4  -3   5   71.92    2.25
  -4  -3   5   69.42    2.26
   4  -3  -5   71.83    1.91
   4   3  -5   73.67    2.25
  -4   3   5   66.01    2.19
  -4   3   5   66.27    1.90
   4   3  -5   68.06    2.24
  -4   3   5   72.30    1.94
  -4   3   5   65.18    2.16
  -3  -3   5   21.83    1.09
   3  -3  -5   22.41    1.14
  -3  -3   5   20.44    0.98
   3  -3  -5   23.35    1.10
   3  -3  -5   22.11    0.96
  -3  -3   5   21.02    1.07
  -3  -3   5   22.15    1.09
  -3   3   5   21.08    1.03
   3   3  -5   20.53    1.07
   3   3  -5   21.38    0.95
  -3   3   5   20.11    1.03
  -3   3   5   21.57    0.95
   3   3  -5   21.90    1.07
  -3   3   5   21.55    0.95
  -2  -3   5   46.99    1.66
  -2  -3   5   47.53    1.45
  -2  -3   5   46.28    1.64
   2  -3  -5   47.07    1.57
   2  -3  -5   46.77    1.61
   2  -3  -5   46.85    1.54
  -2  -3   5   46.76    1.61
   2   3  -5   46.86    1.52
   2   3  -5   49.31    1.69
  -2   3   5   49.40    1.60
  -2   3   5   50.48    1.59
  -2   3   5   48.95    1.57
  -2   3   5   49.23    1.56
   1  -3  -5   12.93    0.72
  -1  -3   5   13.72    0.84
   1  -3  -5   13.16    0.80
  -1  -3   5   12.95    0.61
  -1  -3   5   13.34    0.77
  -1   3   5   13.72    0.76
   1   3  -5   14.24    0.78
   1   3  -5   13.14    0.83
  -1   3   5   13.75    0.81
  -1   3   5   13.92    0.76
  -1   3   5   13.53    0.79
   0  -3  -5  121.08    2.74
   0  -3   5  121.46    2.99
   0  -3  -5  118.24    3.05
   0  -3   5  121.43    2.55
   0  -3   5  117.89    3.04
   0   3   5  117.44    2.92
   0   3  -5  120.29    3.07
   0   3  -5  118.03    2.53
   0   3   5  120.31    2.92
   0   3   5  118.68    3.06
   0   3  -5  124.43    3.42
  -1  -3  -5    5.00    0.59
   1  -3   5    3.64    0.46
   1  -3   5    4.05    0.58
   1  -3   5    3.64    0.53
  -1  -3  -5    4.06    0.37
   1  -3   5    3.92    0.32
  -1  -3  -5    4.76    0.66
  -1   3  -5    3.24    0.50
   1   3   5    3.70    0.49
  -1   3  -5    3.46    0.30
  -1   3  -5    3.92    0.53
  -1   3  -5    4.29    0.54
   1   3   5    4.16    0.42
   1   3   5    3.99    0.59
  -2  -3  -5    4.79    0.58
  -2  -3  -5    4.62    0.66
   2  -3   5    3.61    0.53
   2  -3   5    3.88    0.54
  -2   3  -5    4.65    0.64
   2   3   5    5.29    0.57
  -2   3  -5    4.18    0.57
   2   3   5    3.35    0.54
  -2   3  -5    5.33    0.69
   2   3   5    4.77    0.66
  -2   3  -5    4.52    0.37
  -3  -3  -5    5.03    0.61
  -3  -3  -5    6.05    0.82
   3  -3   5    5.43    0.70
   3  -3   5    5.44    0.69
   3   3   5    4.46    0.72
   3   3   5    8.26    0.87
  -3   3  -5    5.00    0.67
  -3   3  -5    5.52    0.46
   3   3   5    6.33    0.74
  -3   3  -5    5.92    0.71
  -3   3  -5    4.75    0.64
  -4  -3  -5   18.26    0.98
  -4  -3  -5   18.22    1.25
   4  -3   5   19.47    1.24
  -4   3  -5   18.79    1.13
   4   3   5   16.93    1.12
   4   3   5   20.22    1.30
  -4   3  -5   19.78    1.12
  -5  -3  -5   10.66    1.20
   5  -3   5   11.32    1.25
  -5   3  -5   11.95    1.00
   5   3   5   13.93    1.22
  -5   3  -5   11.86    0.92
   6  -3   5    1.43    0.67
   6   3   5    3.63    0.91
  -6   3  -5    2.56    0.57
  -7  -4   5   10.46    0.97
   7  -4  -5    7.30    1.11
  -7  -4   5   11.83    1.39
   7  -4  -5    7.16    1.02
   7  -4  -5   12.73    1.16
   7   4  -5   10.84    1.31
  -7   4   5   10.80    1.27
   7   4  -5   11.47    1.30
  -7   4   5   11.94    1.36
   6  -4  -5   35.91    1.62
   6  -4  -5   33.73    1.83
   6  -4  -5   34.76    1.71
  -6  -4   5   32.72    1.56
  -6  -4   5   34.20    1.76
  -6   4   5   35.76    1.72
  -6   4   5   32.69    1.69
   6   4  -5   30.97    1.66
  -6   4   5   35.51    1.39
   6   4  -5   31.72    1.62
   5  -4  -5   14.46    0.91
  -5  -4   5   13.82    1.05
   5  -4  -5   14.70    1.03
   5  -4  -5   12.33    1.06
  -5  -4   5   15.29    1.02
  -5   4   5   13.86    1.00
  -5   4   5   13.41    0.68
   5   4  -5   11.49    0.91
   5   4  -5   13.35    0.98
   5   4  -5   14.33    1.04
  -5   4   5   13.12    1.00
   4  -4  -5   40.32    1.34
  -4  -4   5   39.86    1.62
  -4  -4   5   41.08    1.66
   4  -4  -5   40.03    1.73
   4  -4  -5   40.71    1.33
   4  -4  -5   39.49    1.60
  -4   4   5   41.15    1.58
  -4   4   5   38.55    1.31
   4   4  -5   40.65    1.63
  -4   4   5   37.35    1.58
  -4   4   5   39.78    1.32
   4   4  -5   42.45    1.67
   3  -4  -5    8.31    0.60
   3  -4  -5    8.67    0.77
   3  -4  -5    9.53    0.57
  -3  -4   5    8.71    0.73
   3  -4  -5    8.67    0.69
  -3  -4   5    8.99    0.72
  -3   4   5    8.53    0.67
   3   4  -5    8.09    0.73
  -3   4   5    8.42    0.70
   3   4  -5    7.37    0.58
  -3   4   5    9.19    0.61
   3   4  -5    8.30    0.69
  -3   4   5    9.31    0.63
  -2  -4   5   32.13    1.28
  -2  -4   5   31.56    1.34
   2  -4  -5   30.81    1.29
   2  -4  -5   29.74    1.20
  -2  -4   5   30.96    1.10
   2  -4  -5   31.80    1.21
  -2   4   5   30.04    1.24
  -2   4   5   30.81    1.19
   2   4  -5   29.93    1.19
   2   4  -5   29.84    1.31
  -2   4   5   29.71    1.19
   2   4  -5   31.67    1.23
  -2   4   5   32.96    1.23
   1  -4  -5   11.03    0.75
   1  -4  -5   11.78    0.72
  -1  -4   5   12.41    0.57
  -1  -4   5   12.38    0.82
  -1  -4   5   11.47    0.73
  -1   4   5   12.02    0.75
   1   4  -5   13.36    0.85
  -1   4   5   11.21    0.68
  -1   4   5   11.19    0.74
  -1   4   5   10.39    0.74
   1   4  -5   11.53    0.72
   0  -4  -5   59.44    1.93
   0  -4   5   62.48    1.96
   0  -4   5   60.38    1.85
   0  -4  -5   59.60    1.69
   0  -4   5   61.60    1.42
   0   4   5   62.14    1.81
   0   4   5   58.35    1.93
   0   4  -5   58.04    1.92
   0   4   5   60.37    1.85
   0   4  -5   57.89    1.86
   1  -4   5    7.20    0.66
  -1  -4  -5    9.08    0.75
   1  -4   5    8.03    0.71
   1  -4   5    7.82    0.37
  -1  -4  -5    8.48    0.54
   1  -4   5    7.51    0.59
   1   4   5    8.45    0.52
  -1   4  -5    8.42    0.37
  -1   4  -5    9.25    0.72
  -1   4  -5    8.44    0.70
   1   4   5    8.84    0.76
   1   4   5    7.86    0.65
  -1   4  -5    8.16    0.71
  -2  -4  -5    2.09    0.34
  -2  -4  -5    2.06    0.48
   2  -4   5    2.50    0.47
   2  -4   5    1.35    0.40
   2   4   5    1.89    0.43
  -2   4  -5    1.76    0.45
   2   4   5    1.86    0.50
  -2   4  -5    1.90    0.43
  -2   4  -5    2.00    0.25
   2   4   5    2.73    0.45
  -2   4  -5    2.46    0.50
   3  -4   5    7.05    0.80
   3  -4   5    7.43    0.88
  -3  -4  -5    7.66    0.92
   3   4   5    8.06    0.84
   3   4   5    6.67    0.83
  -3   4  -5    6.76    0.74
  -3   4  -5    8.23    0.85
   3   4   5    9.07    0.93
  -4  -4  -5   20.60    1.35
   4  -4   5   17.44    1.22
   4   4   5   17.93    1.31
   4   4   5   17.78    1.19
  -4   4  -5   20.58    1.21
  -4   4  -5   20.04    1.12
   5  -4   5    2.93    0.78
  -5  -4  -5    2.06    0.62
   5   4   5    2.03    0.66
  -5   4  -5    2.08    0.59
  -5   4  -5    2.54    0.54
  -7  -5   5    0.05    0.72
  -7  -5   5   -0.13    0.31
   7  -5  -5    0.05    0.43
   7  -5  -5    0.08    0.59
   7  -5  -5    0.48    0.52
  -7   5   5   -0.57    0.36
   7   5  -5   -0.18    0.48
  -7   5   5   -0.46    0.36
   7   5  -5    0.03    0.45
   6  -5  -5    6.25    0.83
  -6  -5   5    6.95    1.01
   6  -5  -5    6.33    0.94
  -6  -5   5    6.10    0.83
   6  -5  -5    6.80    1.06
   6   5  -5    6.91    0.98
   6   5  -5    4.96    0.81
  -6   5   5    7.65    1.03
  -6   5   5    7.07    0.95
   5  -5  -5    0.58    0.51
   5  -5  -5   -0.07    0.32
  -5  -5   5    0.63    0.35
  -5  -5   5    0.27    0.38
   5  -5  -5    0.30    0.31
  -5   5   5    0.27    0.19
   5   5  -5    0.32    0.30
  -5   5   5    0.32    0.34
  -5   5   5    0.44    0.35
   5   5  -5    0.04    0.33
  -4  -5   5   82.69    2.54
   4  -5  -5   78.77    2.44
  -4  -5   5   79.24    2.53
   4  -5  -5   82.91    2.16
   4  -5  -5   82.03    2.67
   4  -5  -5   80.90    2.15
  -4   5   5   79.79    2.40
  -4   5   5   74.66    2.44
   4   5  -5   76.11    2.43
   4   5  -5   83.63    2.14
   4   5  -5   85.28    2.61
  -4   5   5   81.48    2.10
  -3  -5   5    9.35    0.77
  -3  -5   5    8.35    0.72
   3  -5  -5    9.06    0.70
   3  -5  -5    8.66    0.90
   3  -5  -5    8.20    0.49
   3  -5  -5    7.90    0.60
  -3   5   5    8.21    0.66
   3   5  -5    7.75    0.67
   3   5  -5    8.22    0.76
   3   5  -5    7.82    0.59
  -3   5   5    8.07    0.84
  -3   5   5    7.41    0.59
  -3   5   5    8.30    0.60
  -2  -5   5   20.68    1.11
   2  -5  -5   20.73    1.06
  -2  -5   5   21.17    0.88
   2  -5  -5   23.48    1.04
  -2  -5   5   23.65    1.09
   2  -5  -5   21.31    1.00
  -2   5   5   23.30    1.00
   2   5  -5   23.46    1.03
  -2   5   5   21.57    1.01
   2   5  -5   21.31    0.99
   2   5  -5   21.24    1.14
  -2   5   5   22.68    1.02
  -2   5   5   19.61    1.02
  -1  -5   5   28.12    0.89
   1  -5  -5   28.20    1.16
  -1  -5   5   27.98    1.27
   1  -5  -5   27.46    1.19
  -1  -5   5   26.27    1.12
   1   5  -5   27.61    1.28
  -1   5   5   26.95    1.20
  -1   5   5   26.50    1.16
  -1   5   5   25.77    1.16
   1   5  -5   26.74    1.16
  -1   5   5   29.34    1.11
   0  -5   5   32.22    1.39
   0  -5  -5   34.97    1.26
   0  -5   5   34.64    1.33
   0  -5  -5   36.31    1.45
   0  -5   5   34.36    0.88
   0   5   5   37.18    1.40
   0   5   5   34.43    1.26
   0   5  -5   35.05    1.39
   0   5  -5   35.26    1.44
   0   5   5   33.23    1.41
  -1  -5  -5   36.04    1.52
   1  -5   5   34.28    1.38
   1  -5   5   37.05    1.46
   1  -5   5   34.58    1.33
  -1  -5  -5   36.57    1.23
   1   5   5   35.04    1.40
  -1   5  -5   34.85    1.44
   1   5   5   34.43    1.13
  -1   5  -5   35.71    1.43
  -1   5  -5   33.01    1.39
   1   5   5   36.69    1.55
   2  -5   5    1.02    0.35
   2  -5   5    1.26    0.42
  -2  -5  -5    1.65    0.45
  -2  -5  -5    1.03    0.31
   2   5   5    1.64    0.39
  -2   5  -5    1.12    0.35
   2   5   5    1.18    0.42
  -2   5  -5    1.03    0.34
  -2   5  -5    1.35    0.41
   2   5   5    1.75    0.47
   3  -5   5    7.63    0.88
   3  -5   5    8.36    0.85
  -3  -5  -5    9.42    0.99
  -3   5  -5    7.97    0.87
   3   5   5    8.31    0.92
  -3   5  -5    8.32    0.76
   3   5   5    7.75    0.81
   3   5   5    9.61    1.02
  -4  -5  -5   32.92    1.74
   4  -5   5   33.46    1.70
  -4   5  -5   34.80    1.49
   4   5   5   34.98    1.80
   4   5   5   34.27    1.65
  -4   5  -5   35.65    1.64
   5  -5   5    6.25    0.98
  -5  -5  -5   10.70    1.26
  -5   5  -5    7.36    0.80
  -5   5  -5    8.60    1.02
   5   5   5    9.62    1.15
  -7  -6   5    8.50    1.15
   7  -6  -5    8.14    1.23
   7  -6  -5    9.98    1.18
   7  -6  -5    6.30    0.99
   7   6  -5    6.17    0.99
  -7   6   5    7.46    1.03
  -7   6   5    8.74    1.56
   7   6  -5    7.98    1.18
  -6  -6   5    5.10    0.77
  -6  -6   5    8.11    1.11
   6  -6  -5    6.31    1.06
   6  -6  -5    6.90    0.91
   6  -6  -5    6.82    0.97
   6   6  -5    6.05    0.90
   6   6  -5    5.51    0.93
  -6   6   5    4.55    0.76
  -6   6   5    5.50    0.85
  -5  -6   5    4.88    0.77
   5  -6  -5    4.82    0.67
  -5  -6   5    5.99    0.84
   5  -6  -5    6.31    0.95
   5  -6  -5    4.45    0.72
  -5   6   5    5.19    0.76
  -5   6   5    5.41    0.76
  -5   6   5    5.26    0.41
   5   6  -5    4.63    0.72
   5   6  -5    5.91    0.85
  -4  -6   5    6.63    0.79
   4  -6  -5    7.51    0.65
   4  -6  -5    6.80    0.80
  -4  -6   5    8.03    0.87
   4  -6  -5    7.61    0.94
  -4   6   5    8.33    0.74
  -4   6   5    9.49    0.99
   4   6  -5    8.77    0.90
   4   6  -5    8.56    0.92
   4   6  -5    8.49    0.62
  -4   6   5    7.52    0.57
   3  -6  -5   15.62    0.72
   3  -6  -5   14.14    1.01
   3  -6  -5   15.12    0.81
  -3  -6   5   14.35    1.00
  -3  -6   5   16.42    0.97
   3  -6  -5   15.78    0.91
   3   6  -5   16.74    1.07
  -3   6   5   14.84    0.80
   3   6  -5   15.72    0.92
  -3   6   5   15.02    0.95
   3   6  -5   14.23    0.81
  -3   6   5   15.27    0.82
  -3   6   5   15.72    0.88
   2  -6  -5    0.76    0.28
   2  -6  -5    0.55    0.27
  -2  -6   5    0.47    0.28
   2  -6  -5    0.47    0.30
  -2  -6   5    0.49    0.31
   2   6  -5    0.75    0.33
  -2   6   5    0.54    0.29
  -2   6   5    0.63    0.27
  -2   6   5    0.81    0.28
  -2   6   5    0.99    0.29
   2   6  -5    0.53    0.27
   2   6  -5    0.86    0.31
   1  -6  -5   19.09    1.01
  -1  -6   5   17.53    0.67
  -1  -6   5   17.32    1.04
   1  -6  -5   17.39    0.96
  -1  -6   5   17.21    0.91
   1  -6  -5   15.39    0.91
   1   6  -5   16.71    1.02
  -1   6   5   18.44    0.86
  -1   6   5   17.98    0.97
  -1   6   5   18.19    1.00
   1   6  -5   17.17    0.87
  -1   6   5   18.10    0.99
   1   6  -5   18.44    0.98
   0  -6   5   85.30    1.73
   0  -6   5   85.12    2.53
   0  -6   5   86.38    2.39
   0  -6  -5   85.54    2.36
   0  -6  -5   89.48    2.57
   0   6   5   86.43    2.29
   0   6  -5   85.75    2.56
   0   6  -5   88.17    2.50
   0   6   5   86.95    2.48
   0   6   5   88.78    2.59
  -1  -6  -5   46.05    1.52
   1  -6   5   46.11    1.63
   1  -6   5   48.66    1.74
  -1  -6  -5   47.79    1.83
   1   6   5   42.29    1.64
  -1   6  -5   45.17    1.68
   1   6   5   45.43    1.80
  -1   6  -5   48.77    1.75
  -1   6  -5   46.62    1.72
  -2  -6  -5    3.70    0.51
  -2  -6  -5    2.82    0.57
   2  -6   5    3.44    0.55
   2  -6   5    2.26    0.51
  -2   6  -5    2.06    0.45
   2   6   5    1.87    0.50
   2   6   5    2.31    0.45
  -2   6  -5    2.01    0.50
  -2   6  -5    2.89    0.51
   2   6   5    2.63    0.54
   3  -6   5    3.90    0.67
   3  -6   5    4.21    0.61
  -3  -6  -5    5.19    0.82
   3   6   5    4.22    0.68
  -3   6  -5    4.59    0.70
   3   6   5    4.44    0.77
  -3   6  -5    4.56    0.68
   3   6   5    4.81    0.75
  -4  -6  -5   14.59    1.23
   4  -6   5   11.74    1.09
   4   6   5   13.14    1.20
  -4   6  -5   11.62    1.02
  -4   6  -5   13.14    0.94
   4   6   5   11.60    1.04
  -5  -6  -5    3.62    0.77
   5  -6   5    5.46    1.00
  -5   6  -5    5.42    0.87
   5   6   5    3.79    0.87
  -5   6  -5    4.75    0.68
  -6  -7   5    1.01    0.48
   6  -7  -5    0.82    0.61
  -6  -7   5    1.11    0.54
   6  -7  -5    0.17    0.44
   6  -7  -5    1.15    0.53
   6   7  -5    1.44    0.55
  -6   7   5    1.54    0.55
  -6   7   5    1.15    0.50
   5  -7  -5    5.14    0.89
  -5  -7   5    5.20    0.79
  -5  -7   5    5.55    0.84
   5  -7  -5    6.08    0.84
   5  -7  -5    3.91    0.64
  -5   7   5    5.75    0.77
   5   7  -5    4.39    0.72
  -5   7   5    4.62    0.38
   5   7  -5    5.53    0.84
  -5   7   5    5.95    0.86
   4  -7  -5   33.81    1.45
   4  -7  -5   33.77    1.29
  -4  -7   5   35.62    1.67
  -4  -7   5   36.22    1.57
   4  -7  -5   28.55    1.55
  -4   7   5   31.94    1.51
  -4   7   5   35.07    1.42
   4   7  -5   33.89    1.48
   4   7  -5   34.61    1.25
  -4   7   5   33.23    1.18
   4   7  -5   34.00    1.66
   3  -7  -5   59.85    2.19
  -3  -7   5   64.39    2.25
   3  -7  -5   61.99    1.84
   3  -7  -5   60.14    1.94
  -3  -7   5   64.80    2.07
   3   7  -5   60.40    1.87
   3   7  -5   58.61    1.94
  -3   7   5   60.93    2.09
  -3   7   5   58.68    1.85
   3   7  -5   60.82    2.22
  -3   7   5   64.92    1.89
  -3   7   5   61.13    1.90
  -2  -7   5    1.18    0.34
  -2  -7   5    1.09    0.43
   2  -7  -5    1.62    0.37
   2  -7  -5    1.16    0.43
   2  -7  -5    1.53    0.39
  -2   7   5    1.70    0.35
  -2   7   5    1.74    0.38
   2   7  -5    1.82    0.42
   2   7  -5    2.05    0.54
  -2   7   5    1.33    0.38
   2   7  -5    1.32    0.36
  -2   7   5    1.11    0.38
  -1  -7   5   29.48    1.40
   1  -7  -5   32.58    1.36
  -1  -7   5   29.39    1.23
   1  -7  -5   29.67    1.13
  -1  -7   5   30.27    0.91
   1  -7  -5   29.54    1.32
   1   7  -5   28.62    1.40
  -1   7   5   28.89    1.32
  -1   7   5   29.54    1.31
   1   7  -5   27.58    1.26
  -1   7   5   30.91    1.14
   1   7  -5   28.89    1.16
   0  -7  -5   44.89    1.72
   0  -7   5   42.89    1.69
   0  -7  -5   41.90    1.54
   0  -7   5   42.45    1.52
   0   7  -5   38.33    1.57
   0   7   5   41.17    1.60
   0   7  -5   41.09    1.68
   0   7   5   43.18    1.71
  -1  -7  -5    6.10    0.69
   1  -7   5    5.66    0.52
   1  -7   5    5.93    0.73
  -1  -7  -5    6.66    0.81
   1   7   5    4.54    0.68
  -1   7  -5    6.44    0.87
  -1   7  -5    4.54    0.63
  -1   7  -5    5.30    0.73
   1   7   5    3.86    0.61
   2  -7   5   11.43    0.91
  -2  -7  -5   11.05    0.75
  -2  -7  -5   11.53    1.02
   2  -7   5   12.03    0.90
  -2   7  -5   10.57    0.91
   2   7   5   11.65    1.03
   2   7   5    9.92    0.87
  -2   7  -5   10.63    1.45
  -2   7  -5   12.08    0.89
   2   7   5   12.79    0.84
  -3  -7  -5    7.25    0.86
   3  -7   5    7.64    0.91
  -3  -7  -5   10.02    1.20
   3   7   5    9.94    1.16
  -3   7  -5    8.37    0.78
  -3   7  -5    6.86    0.91
   3   7   5    6.72    0.83
   3   7   5    7.05    0.93
   4  -7   5   15.08    1.29
  -4  -7  -5   15.40    1.28
  -4   7  -5   14.57    0.98
  -4   7  -5   13.19    1.11
   4   7   5   14.37    1.16
   4   7   5   14.43    1.29
   5  -7   5    8.80    1.17
  -5  -7  -5    9.37    1.34
  -5   7  -5   11.56    1.21
   5   7   5   11.72    1.32
  -5   7  -5   10.31    0.84
   6  -8  -5    3.34    0.87
  -6  -8   5    3.78    0.80
   6  -8  -5    4.26    0.80
   6  -8  -5    4.09    0.80
  -6  -8   5    4.11    0.86
   6   8  -5    3.93    0.80
  -6   8   5    3.55    0.70
  -6   8   5    4.25    0.82
   5  -8  -5   16.01    1.28
   5  -8  -5   15.37    1.02
  -5  -8   5   13.25    1.09
   5  -8  -5   15.24    1.08
  -5  -8   5   15.58    1.24
   5   8  -5   14.83    1.08
   5   8  -5   16.52    1.28
  -5   8   5   15.73    1.15
  -5   8   5   15.93    1.04
   4  -8  -5    4.54    0.61
  -4  -8   5    4.41    0.79
  -4  -8   5    3.30    0.61
   4  -8  -5    3.06    0.59
   4  -8  -5    4.17    0.83
  -4   8   5    3.38    0.56
   4   8  -5    4.57    0.81
   4   8  -5    4.10    0.64
  -4   8   5    3.92    0.49
  -4   8   5    4.15    0.68
   4   8  -5    4.46    0.57
  -3  -8   5   11.52    0.98
   3  -8  -5   10.60    0.77
   3  -8  -5   11.39    0.99
   3  -8  -5   12.67    0.83
  -3  -8   5   10.99    0.83
  -3   8   5   11.25    0.74
   3   8  -5   11.17    0.79
  -3   8   5   11.88    0.93
   3   8  -5   11.00    0.76
  -3   8   5    9.96    0.73
   3   8  -5   12.34    1.04
   2  -8  -5    5.22    0.62
  -2  -8   5    5.91    0.69
   2  -8  -5    4.49    0.69
   2  -8  -5    5.74    0.65
   2  -8  -5    6.30    0.68
  -2  -8   5    5.87    0.82
   2   8  -5    5.59    0.68
  -2   8   5    5.74    0.52
  -2   8   5    4.91    0.67
  -2   8   5    6.59    0.73
  -2   8   5    6.34    0.69
   2   8  -5    5.76    0.65
   2   8  -5    5.63    0.79
   1  -8  -5   25.96    1.28
  -1  -8   5   26.42    0.85
  -1  -8   5   28.20    1.40
  -1  -8   5   27.67    1.20
   1  -8  -5   27.45    1.06
  -1  -8   5   28.20    0.86
   1  -8  -5   27.11    1.30
  -1   8   5   27.07    1.32
   1   8  -5   25.74    1.08
   1   8  -5   25.23    1.35
  -1   8   5   27.52    1.32
   1   8  -5   29.39    1.30
  -1   8   5   26.03    1.26
  -1   8   5   27.34    1.06
   0  -8   5   10.92    0.90
   0  -8  -5   10.16    0.81
   0  -8  -5   10.19    0.89
   0  -8   5   10.54    0.76
   0   8   5   10.21    0.83
   0   8   5   10.03    1.02
   0   8  -5    9.30    0.81
   0   8  -5   10.85    1.06
  -1  -8  -5   43.28    1.82
   1  -8   5   39.33    1.65
   1  -8   5   40.70    1.40
  -1  -8  -5   39.71    1.53
  -1   8  -5   39.86    1.66
   1   8   5   40.92    1.81
   1   8   5   40.13    1.68
  -1   8  -5   36.39    1.61
  -2  -8  -5    0.85    0.47
   2  -8   5    0.67    0.34
  -2  -8  -5    0.88    0.38
   2  -8   5    0.87    0.44
   2   8   5    0.53    0.41
   2   8   5    0.54    0.48
  -2   8  -5    0.54    0.40
  -2   8  -5    0.76    0.37
   3  -8   5    0.34    0.48
  -3  -8  -5    0.53    0.43
  -3  -8  -5    0.25    0.34
  -3   8  -5    0.36    0.42
  -3   8  -5    0.72    0.38
   3   8   5    0.48    0.40
   3   8   5    0.46    0.50
   3   8   5    0.12    0.43
   4  -8   5    2.11    0.66
  -4  -8  -5    1.49    0.63
  -4   8  -5    1.19    0.42
   4   8   5    0.74    0.55
   4   8   5    1.51    0.62
  -4   8  -5    1.48    0.60
   5  -8   5    2.14    0.79
   5   8   5    1.08    0.66
  -5   8  -5    1.31    0.61
  -5   8  -5    1.76    0.45
  -6  -9   5    7.47    1.01
   6  -9  -5    8.55    1.06
   6  -9  -5    7.67    0.97
  -6  -9   5    9.55    1.61
   6  -9  -5    8.04    1.19
  -6   9   5    9.25    1.14
  -6   9   5    4.87    1.22
   6   9  -5    9.11    1.15
   5  -9  -5    6.67    1.04
   5  -9  -5    9.12    0.95
  -5  -9   5    7.09    0.98
  -5  -9   5    8.02    1.01
   5  -9  -5    7.79    0.92
   5   9  -5    7.75    0.96
   5   9  -5   10.48    1.23
  -5   9   5    8.00    0.99
  -5   9   5    7.72    0.85
   4  -9  -5   15.64    0.99
  -4  -9   5   16.46    1.25
   4  -9  -5   14.99    1.23
  -4  -9   5   17.08    1.11
  -4   9   5   14.37    0.91
  -4   9   5   13.69    1.08
   4   9  -5   17.11    1.29
  -4   9   5   15.25    0.80
   4   9  -5   13.46    0.82
   4   9  -5   14.31    0.97
   3  -9  -5   41.25    1.87
  -3  -9   5   42.57    1.92
   3  -9  -5   44.17    1.57
  -3  -9   5   43.01    1.66
   3   9  -5   43.92    1.97
   3   9  -5   39.09    1.53
   3   9  -5   44.89    1.60
  -3   9   5   41.74    1.45
  -3   9   5   40.61    1.74
  -3   9   5   41.19    1.53
   2  -9  -5   24.63    1.37
   2  -9  -5   23.09    1.28
   2  -9  -5   24.72    1.10
  -2  -9   5   24.48    1.16
   2  -9  -5   24.16    1.18
  -2  -9   5   24.73    1.38
  -2   9   5   24.55    1.00
  -2   9   5   22.54    1.26
   2   9  -5   23.59    1.08
   2   9  -5   23.39    1.17
  -2   9   5   23.64    1.21
   2   9  -5   24.81    1.40
  -1  -9   5   92.19    2.05
   1  -9  -5   89.22    2.29
   1  -9  -5   92.55    2.45
  -1  -9   5   94.61    2.90
  -1  -9   5   94.58    2.55
   1  -9  -5   85.92    2.74
   1  -9  -5   93.57    2.75
  -1   9   5   91.59    2.31
   1   9  -5   92.59    2.91
   1   9  -5   91.46    2.39
   1   9  -5   95.34    2.73
  -1   9   5   95.24    2.81
  -1   9   5   90.57    2.75
   0  -9  -5   12.54    0.86
   0  -9   5   12.14    0.98
   0  -9   5   13.07    0.84
   0  -9  -5   13.58    1.04
   0  -9  -5   14.37    0.99
   0   9   5   13.05    0.97
   0   9  -5   12.17    0.98
   0   9  -5   11.83    0.94
   0   9   5   12.70    1.03
  -1  -9  -5    3.39    0.66
  -1  -9  -5    3.01    0.57
   1  -9   5    3.41    0.51
   1  -9   5    3.49    0.62
  -1   9  -5    3.65    0.67
   1   9   5    2.52    0.59
   1   9   5    3.61    0.68
  -1   9  -5    3.00    0.58
  -2  -9  -5    1.47    0.46
   2  -9   5    1.23    0.43
  -2  -9  -5    1.25    0.51
   2  -9   5    1.08    0.50
  -2   9  -5    2.47    0.62
   2   9   5    1.53    0.57
  -2   9  -5    2.24    0.52
   2   9   5    3.15    0.69
   3  -9   5    1.72    0.59
  -3  -9  -5    1.94    0.54
  -3  -9  -5    1.21    0.51
   3   9   5    1.39    0.53
   3   9   5    1.49    0.62
  -3   9  -5    1.81    0.48
   3   9   5    1.50    0.59
  -3   9  -5    2.01    0.60
  -4  -9  -5    2.76    0.72
   4  -9   5    2.98    0.77
  -4   9  -5    3.32    0.62
  -4   9  -5    2.75    0.72
   4   9   5    2.65    0.75
   4   9   5    3.54    0.81
   6 -10  -5    7.95    1.27
   6 -10  -5    8.42    1.06
  -6 -10   5    7.77    1.05
   6 -10  -5   11.46    1.42
  -6  10   5    7.69    1.13
   6  10  -5   10.01    1.16
   5 -10  -5    3.71    0.70
  -5 -10   5    4.21    0.77
  -5 -10   5    3.16    0.72
   5 -10  -5    4.30    0.72
   5 -10  -5    4.21    0.87
  -5  10   5    3.97    0.78
   5  10  -5    4.03    0.72
   5  10  -5    2.81    0.73
  -4 -10   5   14.31    1.04
  -4 -10   5   15.96    1.29
   4 -10  -5   17.84    1.37
   4 -10  -5   15.89    1.02
  -4  10   5   14.67    1.13
  -4  10   5   16.10    0.99
   4  10  -5   15.85    1.02
   4  10  -5   14.47    1.26
  -3 -10   5    2.02    0.49
   3 -10  -5    1.40    0.41
   3 -10  -5    1.99    0.62
  -3 -10   5    2.09    0.62
  -3  10   5    1.41    0.47
   3  10  -5    1.16    0.41
   3  10  -5    1.29    0.39
  -3  10   5    2.59    0.49
   3  10  -5    2.03    0.63
  -3  10   5    1.92    0.38
   2 -10  -5    4.54    0.73
   2 -10  -5    7.02    0.71
   2 -10  -5    5.18    0.66
  -2 -10   5    4.44    0.75
  -2 -10   5    6.58    0.72
  -2  10   5    5.94    0.51
  -2  10   5    4.98    0.69
   2  10  -5    6.06    0.74
   2  10  -5    6.77    0.61
   2  10  -5    6.26    0.94
  -2  10   5    7.17    0.92
  -1 -10   5    7.98    0.69
  -1 -10   5    9.29    1.05
   1 -10  -5    6.70    0.61
   1 -10  -5    7.68    0.96
  -1 -10   5    7.77    0.52
   1 -10  -5    6.86    0.82
   1  10  -5    9.33    1.07
  -1  10   5    7.40    0.86
  -1  10   5    9.55    1.00
   1  10  -5   10.20    1.03
   1  10  -5    7.84    0.61
   0 -10  -5   10.06    1.07
   0 -10   5    8.52    0.70
   0 -10  -5    7.59    0.93
   0 -10   5    8.53    0.97
   0  10   5    7.53    0.94
   0  10  -5    7.78    0.90
   0  10  -5    7.58    0.60
   0  10  -5    8.72    0.94
   0  10   5    9.82    1.11
  -1 -10  -5   29.65    1.44
   1 -10   5   29.88    1.49
   1 -10   5   29.92    1.32
  -1 -10  -5   31.74    1.66
   1  10   5   29.95    1.65
   1  10   5   28.00    1.47
  -1  10  -5   28.48    1.50
  -1  10  -5   32.58    1.58
   2 -10   5   18.43    1.43
  -2 -10  -5   16.94    1.11
  -2 -10  -5   18.22    1.35
   2  10   5   18.59    1.37
  -2  10  -5   17.79    1.25
   2  10   5   16.67    1.22
  -2  10  -5   17.65    1.15
  -3 -10  -5    1.29    0.58
  -3 -10  -5    2.79    0.64
   3 -10   5    1.29    0.61
   3  10   5    1.98    0.69
  -3  10  -5    2.08    0.51
  -3  10  -5    2.27    0.62
   3  10   5    1.78    0.60
  -4 -10  -5    1.31    0.62
   4 -10   5    1.33    0.62
  -4  10  -5    2.92    0.59
  -4  10  -5    1.03    0.57
   4  10   5    0.65    0.61
   4  10   5    2.28    0.80
   5 -11  -5    5.42    1.04
   5 -11  -5    4.28    0.73
  -5 -11   5    4.29    0.95
  -5 -11   5    3.69    0.72
  -5  11   5    5.26    0.92
   5  11  -5    4.24    0.76
   5  11  -5    5.43    1.04
  -4 -11   5   22.91    1.31
  -4 -11   5   21.89    1.55
   4 -11  -5   24.50    1.63
   4 -11  -5   24.02    1.23
   4  11  -5   23.67    1.64
  -4  11   5   21.85    1.38
   4  11  -5   25.36    1.27
  -3 -11   5    4.53    0.68
   3 -11  -5    3.68    0.78
  -3 -11   5    4.79    0.90
   3 -11  -5    3.16    0.54
   3  11  -5    3.40    0.56
   3  11  -5    3.86    0.61
   3  11  -5    5.12    0.93
  -3  11   5    4.31    0.76
  -3  11   5    4.16    0.61
   2 -11  -5   13.18    1.12
  -2 -11   5   12.25    1.09
   2 -11  -5   11.43    0.76
  -2 -11   5    9.75    0.77
  -2  11   5   11.44    0.94
   2  11  -5   11.64    0.76
   2  11  -5   13.30    1.35
  -2  11   5   11.83    1.19
   2  11  -5   10.99    0.87
   1 -11  -5    4.60    0.74
  -1 -11   5    3.38    0.72
   1 -11  -5    3.57    0.49
   1 -11  -5    4.46    0.80
  -1 -11   5    3.85    0.57
   1  11  -5    3.59    0.71
  -1  11   5    3.56    0.67
  -1  11   5    4.14    0.71
   1  11  -5    2.49    0.58
   0 -11   5   10.27    1.13
   0 -11  -5    7.34    0.97
   0 -11   5    8.14    0.68
   0 -11  -5    6.34    0.92
   0  11   5    7.18    0.95
   0  11   5    8.78    1.03
   0  11  -5    7.51    0.96
   0  11  -5    7.89    0.98
   1 -11   5    0.80    0.42
  -1 -11  -5    1.23    0.50
   1 -11   5    1.42    0.48
  -1 -11  -5    1.19    0.51
  -1  11  -5    1.10    0.50
   1  11   5    1.59    0.58
   1  11   5    1.14    0.53
  -1  11  -5    0.85    0.45
   2 -11   5    1.85    0.61
  -2 -11  -5    1.41    0.55
  -2 -11  -5    1.19    0.52
  -2  11  -5    0.41    0.39
   2  11   5    1.07    0.55
   2  11   5    2.16    0.66
  -2  11  -5    1.42    0.57
   3 -11   5    1.26    0.66
  -3 -11  -5   -0.37    0.40
  -3 -11  -5   -0.22    0.38
  -3  11  -5    0.08    0.32
   3  11   5    0.75    0.56
   3  11   5   -0.30    0.42
  -3  11  -5   -0.11    0.37
   4 -11   5    2.33    0.74
   4  11   5    3.90    0.91
  -4  11  -5    2.77    0.58
  -4  11  -5    2.58    1.20
  -5 -12   5    3.58    0.75
   5 -12  -5    3.46    0.88
   5  12  -5    3.95    0.73
  -5  12   5    2.63    0.74
   5  12  -5    3.77    0.90
  -4 -12   5    6.71    0.85
  -4 -12   5    9.34    1.25
   4 -12  -5   10.97    1.36
   4  12  -5    9.23    1.27
  -4  12   5    8.28    0.70
  -4  12   5    6.12    0.90
  -3 -12   5    4.72    0.87
   3 -12  -5    3.00    0.75
  -3 -12   5    4.84    0.69
   3  12  -5    5.39    0.77
  -3  12   5    4.26    0.75
   3  12  -5    4.92    0.92
  -2 -12   5   -0.22    0.24
  -2 -12   5   -0.31    0.34
   2 -12  -5    0.53    0.51
   2  12  -5    0.46    0.39
  -2  12   5   -0.18    0.37
   2  12  -5   -0.04    0.37
  -2  12   5   -0.41    0.27
   1 -12  -5    0.33    0.46
  -1 -12   5   -0.21    0.24
   1 -12  -5    0.13    0.32
  -1 -12   5    0.62    0.45
  -1  12   5    0.31    0.40
   1  12  -5    0.06    0.35
  -1  12   5    0.01    0.35
   1  12  -5    0.11    0.39
   0 -12  -5   14.26    1.17
   0 -12   5   16.16    1.21
   0 -12   5   14.47    1.10
   0 -12  -5   14.81    1.20
   0  12   5   17.24    1.23
   0  12  -5   15.91    1.17
   0  12   5   15.13    1.25
   0  12  -5   15.87    1.24
  -1 -12  -5    8.06    1.09
   1 -12   5    9.65    1.00
  -1 -12  -5    8.24    1.01
  -1  12  -5    7.19    0.93
   1  12   5    5.77    0.90
   1  12   5    8.10    1.12
  -1  12  -5    9.60    1.05
   2 -12   5   36.15    1.80
  -2 -12  -5   33.30    1.72
  -2 -12  -5   36.73    1.99
   2  12   5   34.95    2.01
   2  12   5   34.73    1.84
  -2  12  -5   34.75    1.85
  -2  12  -5   35.05    1.72
  -3 -12  -5    7.70    1.03
  -3 -12  -5    5.90    1.08
  -3  12  -5    5.82    0.82
   3  12   5    7.97    1.21
  -3  12  -5    6.20    1.02
   3  12   5    7.26    1.11
   4 -13  -5    9.67    1.31
  -4 -13   5   10.47    1.41
  -4  13   5    8.26    1.13
  -4  13   5    8.57    0.90
   4  13  -5    9.80    1.37
  -3 -13   5    2.63    0.76
   3 -13  -5    2.26    0.71
  -3  13   5    1.94    0.61
   3  13  -5    3.19    0.62
  -3  13   5    2.69    0.58
   3  13  -5    3.88    0.86
   2 -13  -5   16.29    1.32
  -2 -13   5   17.48    1.39
  -2  13   5   14.92    1.19
   2  13  -5   16.74    1.17
   2  13  -5   16.51    1.42
  -1 -13   5    3.33    0.78
   1 -13  -5    2.57    0.72
   1  13  -5    2.74    0.64
  -1  13   5    2.16    0.63
   1  13  -5    1.58    0.60
  -1  13   5    2.28    0.60
   0 -13  -5    1.58    0.55
   0 -13  -5    1.22    0.58
   0 -13   5    0.99    0.50
   0 -13   5    1.27    0.51
   0  13   5    1.39    0.62
   0  13   5    1.54    0.58
   0  13  -5    0.87    0.47
   0  13  -5    2.11    0.65
   1 -13   5    2.57    0.65
  -1 -13  -5    2.36    0.68
  -1 -13  -5    2.10    0.65
  -1  13  -5    2.63    0.70
  -1  13  -5    0.94    0.51
   1  13   5    1.62    0.59
   1  13   5    1.56    0.62
  -2 -13  -5    5.98    0.96
   2 -13   5    5.24    0.90
  -2 -13  -5    3.94    0.88
  -2  13  -5    5.19    0.85
  -2  13  -5    4.36    0.86
   2  13   5    5.73    1.00
  -3 -13  -5    3.55    0.95
  -3 -13  -5    2.90    0.80
  -3  13  -5    3.85    0.72
  -3 -14   5    4.77    0.93
   3 -14  -5    5.47    1.10
  -3  14   5    3.26    0.65
  -3  14   5    4.27    0.84
   3  14  -5    4.07    0.94
   2 -14  -5    0.70    0.59
  -2 -14   5    0.14    0.50
   2  14  -5    0.27    0.38
  -2  14   5    0.20    0.44
  -2  14   5    0.36    0.42
   2  14  -5    0.91    0.60
   1 -14  -5    0.42    0.49
  -1 -14   5    0.76    0.57
  -1  14   5    1.08    0.55
   1  14  -5    0.13    0.48
   1  14  -5    1.04    0.52
   0 -14  -5    6.61    1.02
   0 -14   5    7.82    1.06
   0  14  -5    7.16    1.10
   0  14   5    6.86    1.01
   0  14  -5    6.70    0.97
  -1 -14  -5    9.04    1.21
   1 -14   5    9.32    1.12
  -1 -14  -5    5.98    0.98
   1  14   5    7.97    1.13
  -1  14  -5    7.67    1.08
  -1  14  -5    7.76    1.14
  -2 -14  -5    1.62    0.66
   2 -14   5    1.88    0.84
  -2 -14  -5    1.79    0.72
  -2  14  -5    1.82    0.64
  -2 -15   5   -0.13    0.49
   2 -15  -5    0.59    0.64
  -2  15   5    0.11    0.42
  -2  15   5    0.89    0.57
   2  15  -5   -0.05    0.43
  -1 -15   5   -0.06    0.45
   1 -15  -5    0.17    0.50
  -1 -15   5   -0.38    0.45
   1  15  -5   -0.60    0.59
  -1  15   5   -0.37    0.40
  -1  15   5   -0.10    0.47
   1  15  -5   -0.26    0.40
   0 -15   5    0.46    0.57
   0 -15  -5    1.11    0.70
   0  15  -5    0.89    0.55
   0  15   5    0.51    0.50
   1 -15   5    4.34    0.91
  -1 -15  -5    3.53    1.12
  -1 -15  -5    3.61    0.89
  -7   0   6    4.43    0.92
  -7   0   6    5.16    0.68
   7   0  -6    3.32    0.82
   7   0  -6    5.19    0.90
  -7   0   6    6.11    1.54
  -6   0   6    8.86    1.08
   6   0  -6   10.30    0.89
   6   0  -6    8.70    1.09
  -6   0   6   10.30    1.18
  -6   0   6    8.88    0.75
  -5   0   6   36.48    1.68
   5   0  -6   31.45    1.58
  -5   0   6   35.03    1.61
   5   0  -6   30.01    1.30
   5   0  -6   34.01    1.71
  -5   0   6   33.48    1.40
   4   0  -6  127.31    3.50
  -4   0   6  129.21    3.50
  -4   0   6  125.61    3.40
   4   0  -6  131.54    3.34
  -4   0   6  129.12    3.31
   4   0  -6  133.38    3.01
  -4   0   6  125.92    3.32
   4   0  -6  127.85    3.56
  -3   0   6   97.19    2.68
   3   0  -6   94.95    2.73
  -3   0   6   94.18    2.73
   3   0  -6   94.47    2.74
   3   0  -6   96.23    2.68
  -3   0   6   97.22    2.64
  -3   0   6   94.54    2.66
  -2   0   6   43.05    1.48
  -2   0   6   40.01    1.55
   2   0  -6   42.66    1.60
  -2   0   6   40.40    1.57
   2   0  -6   45.33    1.62
   2   0  -6   44.42    1.57
  -2   0   6   43.07    1.61
   2   0  -6   40.41    1.49
  -1   0   6   23.37    1.12
   1   0  -6   22.38    0.96
   1   0  -6   20.51    1.05
  -1   0   6   22.86    1.15
  -1   0   6   22.48    0.98
   1   0  -6   22.53    1.15
   0   0  -6   34.15    1.41
   0   0   6   34.15    1.47
   0   0  -6   36.54    1.50
   0   0   6   37.26    1.27
  -1   0  -6    5.32    0.73
   1   0   6    5.11    0.44
  -1   0  -6    3.50    0.54
   1   0   6    5.13    0.72
   1   0   6    4.50    0.52
  -2   0  -6   12.75    0.90
   2   0   6   10.70    0.73
  -2   0  -6   12.76    0.96
   2   0   6   12.70    0.76
   2   0   6   11.44    0.93
  -3   0  -6   18.06    1.08
  -3   0  -6   17.58    1.19
   3   0   6   19.23    1.22
   3   0   6   16.36    1.04
  -4   0  -6    7.83    0.89
  -4   0  -6    7.05    0.88
   4   0   6    6.65    0.89
  -5   0  -6    4.44    0.76
   5   0   6    4.58    0.90
  -7  -1   6    2.98    0.57
   7  -1  -6    2.35    0.68
  -7  -1   6    3.87    1.13
  -7  -1   6    2.12    0.84
   7  -1  -6    2.79    0.75
   7   1  -6    3.18    0.76
  -7   1   6    2.81    0.49
   7   1  -6    3.07    0.73
  -7   1   6    3.39    0.85
   6  -1  -6   13.77    1.15
   6  -1  -6   14.76    1.05
  -6  -1   6   14.01    0.97
   6  -1  -6   13.52    1.25
  -6  -1   6   14.72    1.20
  -6  -1   6   15.41    1.19
  -6   1   6   15.16    1.17
   6   1  -6   14.87    1.09
  -6   1   6   15.56    1.21
  -6   1   6   14.82    0.92
  -5  -1   6    5.11    0.69
   5  -1  -6    5.38    0.81
  -5  -1   6    4.68    0.78
   5  -1  -6    4.28    0.77
   5  -1  -6    4.67    0.63
  -5  -1   6    5.66    0.83
  -5   1   6    4.71    0.75
  -5   1   6    4.74    0.63
  -5   1   6    4.53    0.75
   5   1  -6    4.15    0.62
   5   1  -6    4.43    0.72
  -4  -1   6   15.76    1.06
   4  -1  -6   16.06    1.06
  -4  -1   6   14.27    0.95
   4  -1  -6   15.95    1.13
  -4  -1   6   15.95    0.99
   4  -1  -6   15.68    0.88
   4  -1  -6   16.98    0.98
  -4  -1   6   16.08    1.02
  -4   1   6   16.83    1.07
   4   1  -6   14.22    0.98
   4   1  -6   16.13    1.07
   4   1  -6   16.26    0.84
  -4   1   6   14.67    0.93
  -4   1   6   17.80    1.08
  -4   1   6   15.88    1.03
   3  -1  -6    2.61    0.50
  -3  -1   6    1.95    0.43
   3  -1  -6    2.80    0.52
  -3  -1   6    2.56    0.49
  -3  -1   6    2.28    0.47
   3  -1  -6    1.60    0.46
  -3  -1   6    2.08    0.45
  -3   1   6    1.96    0.45
   3   1  -6    2.24    0.46
  -3   1   6    2.79    0.49
  -3   1   6    2.44    0.47
   3   1  -6    2.50    0.35
   3   1  -6    3.47    0.60
  -3   1   6    2.13    0.45
   2  -1  -6    0.82    0.32
  -2  -1   6    1.40    0.34
   2  -1  -6    1.33    0.38
   2  -1  -6    1.30    0.41
  -2  -1   6    1.05    0.37
  -2  -1   6    1.59    0.41
  -2   1   6    1.44    0.36
  -2   1   6    1.80    0.41
   2   1  -6    1.35    0.37
  -2   1   6    1.70    0.43
   2   1  -6    1.33    0.43
   2   1  -6    1.03    0.34
  -2   1   6    2.05    0.43
   1  -1  -6   10.64    0.82
  -1  -1   6    9.04    0.71
   1  -1  -6   10.18    0.68
   1  -1  -6   11.97    0.81
  -1  -1   6   10.35    0.64
  -1  -1   6    9.98    0.79
  -1   1   6   10.46    0.76
  -1   1   6   10.09    0.78
  -1   1   6   10.89    0.70
   1   1  -6   10.14    0.76
   1   1  -6    9.73    0.79
   0  -1  -6   91.32    2.56
   0  -1   6   91.50    2.27
   0  -1   6   88.66    2.63
   0  -1  -6   90.87    2.64
   0  -1  -6   93.58    2.20
   0  -1   6   89.56    2.57
   0   1   6   90.87    2.65
   0   1  -6   90.29    2.26
   0   1   6   88.78    2.55
   0   1  -6   91.98    2.65
   0   1   6   92.03    2.39
   0   1  -6   92.55    2.58
  -1  -1  -6   11.14    0.87
   1  -1   6    8.94    0.77
   1  -1   6    8.97    0.59
   1  -1   6    9.33    0.60
   1  -1   6    9.88    0.84
  -1  -1  -6    8.36    0.73
   1   1   6    9.29    0.54
  -1   1  -6    7.77    0.69
   1   1   6    8.78    0.65
  -1   1  -6    9.69    0.82
   1   1   6    9.50    0.83
  -1   1  -6    9.23    0.59
  -2  -1  -6   23.48    1.29
   2  -1   6   23.19    1.07
  -2  -1  -6   22.63    1.17
   2  -1   6   22.89    0.98
   2  -1   6   27.04    1.34
  -2   1  -6   23.43    1.22
  -2   1  -6   22.61    1.24
   2   1   6   21.54    1.01
   2   1   6   24.59    1.11
   2   1   6   25.04    1.32
  -3  -1  -6   25.71    1.28
   3  -1   6   26.95    1.40
  -3  -1  -6   24.62    1.38
   3  -1   6   24.93    1.26
   3   1   6   25.69    1.22
  -3   1  -6   27.30    1.42
   3   1   6   24.61    1.39
  -3   1  -6   25.18    1.30
   3   1   6   23.76    1.22
   4  -1   6    0.48    0.44
  -4  -1  -6    0.15    0.35
  -4  -1  -6    0.45    0.38
  -4   1  -6    0.82    0.45
  -4   1  -6    0.27    0.34
   4   1   6    0.22    0.42
   4   1   6    0.20    0.44
  -5  -1  -6    1.55    0.59
   5  -1   6    1.82    0.73
  -5   1  -6    2.13    0.60
  -5   1  -6    3.41    0.75
   5   1   6    2.54    0.77
  -7  -2   6    6.17    0.80
   7  -2  -6    5.64    0.92
   7  -2  -6    7.13    1.18
   7  -2  -6    7.59    1.09
   7   2  -6    5.16    0.90
  -7   2   6    8.60    1.19
   7   2  -6    7.56    1.09
   6  -2  -6    4.42    0.90
  -6  -2   6    3.51    0.75
  -6  -2   6    6.01    0.93
  -6  -2   6    3.15    0.59
   6  -2  -6    5.49    0.79
   6  -2  -6    3.10    0.71
  -6   2   6    4.77    0.60
   6   2  -6    3.81    0.76
   6   2  -6    4.23    0.73
  -6   2   6    4.54    0.80
  -6   2   6    4.69    0.83
  -5  -2   6    4.53    0.72
   5  -2  -6    4.18    0.72
  -5  -2   6    4.73    0.70
  -5  -2   6    3.01    0.62
   5  -2  -6    4.53    0.62
   5  -2  -6    4.05    0.73
  -5   2   6    4.37    0.75
  -5   2   6    4.98    0.63
   5   2  -6    5.16    0.82
   5   2  -6    4.56    0.65
  -5   2   6    4.10    0.73
   5   2  -6    4.14    0.78
   4  -2  -6   62.83    2.29
   4  -2  -6   66.97    2.03
   4  -2  -6   61.36    2.19
  -4  -2   6   64.97    2.18
  -4  -2   6   63.99    2.15
  -4  -2   6   64.48    2.24
  -4  -2   6   65.43    2.16
  -4   2   6   64.00    2.18
  -4   2   6   66.42    2.03
   4   2  -6   66.62    2.19
  -4   2   6   61.75    2.17
   4   2  -6   63.37    2.22
   4   2  -6   65.09    1.90
  -3  -2   6   26.60    1.27
  -3  -2   6   26.76    1.18
   3  -2  -6   26.50    1.20
   3  -2  -6   27.08    1.26
   3  -2  -6   26.22    1.32
  -3  -2   6   25.68    1.27
  -3   2   6   25.14    1.19
  -3   2   6   25.85    1.18
   3   2  -6   26.99    1.29
   3   2  -6   25.03    1.24
  -3   2   6   24.21    1.15
  -3   2   6   26.28    1.25
   3   2  -6   25.33    1.16
   2  -2  -6   49.44    1.73
   2  -2  -6   51.82    1.78
   2  -2  -6   50.95    1.77
  -2  -2   6   53.22    1.82
  -2  -2   6   50.12    1.60
  -2  -2   6   52.54    1.83
   2   2  -6   51.80    1.75
  -2   2   6   51.44    1.77
   2   2  -6   54.46    1.88
  -2   2   6   51.05    1.76
   2   2  -6   49.74    1.75
  -2   2   6   52.52    1.79
  -2   2   6   52.03    1.73
  -1  -2   6   46.16    1.68
   1  -2  -6   45.32    1.52
  -1  -2   6   47.79    1.45
   1  -2  -6   48.29    1.73
  -1  -2   6   47.36    1.75
   1   2  -6   49.48    1.79
   1   2  -6   47.72    1.68
  -1   2   6   47.84    1.60
  -1   2   6   50.07    1.69
  -1   2   6   45.74    1.70
   0  -2  -6   45.57    1.74
   0  -2   6   45.61    1.68
   0  -2   6   46.56    1.76
   0  -2   6   45.50    1.36
   0  -2  -6   47.04    1.68
   0  -2  -6   45.95    1.38
   0   2   6   47.29    1.58
   0   2  -6   49.43    1.39
   0   2   6   48.26    1.68
   0   2  -6   45.85    1.69
   0   2   6   46.01    1.74
   0   2  -6   47.73    1.76
   1  -2   6    3.59    0.47
   1  -2   6    4.17    0.62
  -1  -2  -6    3.55    0.55
  -1  -2  -6    4.28    0.40
   1  -2   6    4.88    0.70
  -1  -2  -6    2.67    0.54
   1  -2   6    3.52    0.42
   1   2   6    3.63    0.61
  -1   2  -6    3.46    0.59
  -1   2  -6    3.82    0.43
   1   2   6    3.24    0.49
   1   2   6    3.40    0.40
  -1   2  -6    3.14    0.56
   2  -2   6    1.64    0.34
   2  -2   6    1.82    0.43
  -2  -2  -6    1.99    0.51
  -2  -2  -6    1.46    0.45
   2  -2   6    1.36    0.46
   2   2   6    1.24    0.37
  -2   2  -6    1.80    0.50
  -2   2  -6    1.38    0.47
   2   2   6    1.29    0.45
  -2   2  -6    1.62    0.33
   2   2   6    0.95    0.36
   3  -2   6    6.71    0.86
  -3  -2  -6    7.59    0.94
  -3  -2  -6    7.19    0.82
   3  -2   6    5.49    0.73
  -3   2  -6    5.80    0.76
   3   2   6    5.53    0.78
   3   2   6    6.44    0.80
   3   2   6    7.55    0.82
  -3   2  -6    6.32    0.78
   4  -2   6   11.91    1.04
  -4  -2  -6   11.45    0.89
  -4  -2  -6    9.26    1.05
  -4   2  -6    8.13    0.92
   4   2   6   11.34    1.24
   4   2   6   12.58    1.08
  -4   2  -6   10.30    1.04
   5  -2   6   17.11    1.38
  -5  -2  -6   15.44    1.30
  -5   2  -6   15.98    1.19
   5   2   6   17.42    1.38
  -5   2  -6   16.39    1.20
  -7  -3   6   12.17    1.04
   7  -3  -6   12.69    1.54
   7  -3  -6    9.47    1.17
   7  -3  -6   13.71    1.88
   7   3  -6    9.14    1.20
  -7   3   6   14.44    1.53
   7   3  -6   13.79    1.42
  -6  -3   6   22.18    1.40
   6  -3  -6   19.55    1.43
   6  -3  -6   21.70    1.40
   6  -3  -6   21.72    1.54
  -6  -3   6   20.23    1.24
  -6  -3   6   22.37    1.46
  -6   3   6   19.85    0.96
   6   3  -6   18.66    1.34
   6   3  -6   20.19    1.28
  -6   3   6   20.17    1.36
  -6   3   6   22.73    1.43
   5  -3  -6   33.70    1.75
   5  -3  -6   35.78    1.68
  -5  -3   6   35.48    1.70
  -5  -3   6   35.49    1.59
  -5  -3   6   37.60    1.66
  -5   3   6   35.86    1.66
  -5   3   6   35.42    1.35
   5   3  -6   30.80    1.60
  -5   3   6   34.87    1.65
   5   3  -6   35.20    1.50
   5   3  -6   32.30    1.56
  -4  -3   6    9.17    0.97
  -4  -3   6   10.16    0.99
   4  -3  -6    8.67    0.71
  -4  -3   6    8.61    0.80
   4  -3  -6    6.49    0.78
   4  -3  -6    7.37    0.91
  -4   3   6    8.28    0.93
  -4   3   6    8.23    0.90
  -4   3   6    8.61    0.70
   4   3  -6    9.14    0.96
   4   3  -6    9.01    0.84
  -3  -3   6    2.39    0.48
   3  -3  -6    3.12    0.57
  -3  -3   6    2.78    0.50
   3  -3  -6    3.14    0.63
   3  -3  -6    4.25    0.58
  -3  -3   6    2.70    0.55
  -3   3   6    2.98    0.48
   3   3  -6    3.49    0.53
  -3   3   6    2.89    0.54
  -3   3   6    3.50    0.56
  -3   3   6    2.90    0.49
   3   3  -6    2.56    0.50
   3   3  -6    3.67    0.62
  -2  -3   6    2.51    0.52
  -2  -3   6    1.53    0.41
   2  -3  -6    2.04    0.47
   2  -3  -6    1.96    0.49
  -2  -3   6    1.87    0.37
   2  -3  -6    1.62    0.39
  -2   3   6    1.59    0.40
   2   3  -6    1.30    0.36
  -2   3   6    2.06    0.42
   2   3  -6    1.30    0.43
   2   3  -6    1.27    0.37
  -2   3   6    1.82    0.41
  -2   3   6    2.19    0.45
  -1  -3   6   31.02    1.38
   1  -3  -6   29.80    1.20
   1  -3  -6   30.94    1.35
  -1  -3   6   32.01    1.07
  -1  -3   6   29.39    1.30
   1   3  -6   27.22    1.34
  -1   3   6   29.13    1.24
  -1   3   6   30.86    1.35
   1   3  -6   30.07    1.31
  -1   3   6   27.84    1.24
   0  -3   6   36.96    1.47
   0  -3   6   34.09    1.50
   0  -3   6   36.74    1.12
   0  -3  -6   35.13    1.22
   0  -3  -6   37.83    1.56
   0   3   6   35.00    1.38
   0   3  -6   35.44    1.10
   0   3  -6   34.90    1.46
   0   3   6   36.58    1.43
   0   3  -6   36.62    1.54
   0   3   6   36.41    1.53
  -1  -3  -6   91.38    2.14
  -1  -3  -6   96.83    2.81
   1  -3   6   88.87    2.36
   1  -3   6   90.22    2.11
  -1  -3  -6   93.28    2.60
   1  -3   6   93.53    2.74
   1  -3   6   91.71    2.68
  -1   3  -6   89.32    2.65
   1   3   6   89.04    2.13
   1   3   6   92.87    2.54
  -1   3  -6   90.77    2.11
  -1   3  -6   91.23    2.71
   1   3   6   89.70    2.76
  -2  -3  -6   18.10    1.05
  -2  -3  -6   19.92    1.23
   2  -3   6   17.38    1.11
   2  -3   6   18.99    1.04
   2   3   6   20.31    1.23
  -2   3  -6   18.46    1.12
   2   3   6   20.83    1.11
  -2   3  -6   18.55    0.78
  -2   3  -6   17.94    1.13
   2   3   6   17.49    0.89
  -3  -3  -6   10.61    1.13
   3  -3   6   11.04    0.94
   3  -3   6   10.04    0.89
  -3  -3  -6   10.44    0.82
  -3   3  -6   11.22    0.94
   3   3   6   11.42    0.93
  -3   3  -6   10.99    1.10
   3   3   6   11.02    0.87
   3   3   6   11.66    1.19
  -4  -3  -6    2.00    0.49
  -4  -3  -6    1.61    0.59
   4  -3   6    1.93    0.62
  -4   3  -6    1.80    0.56
  -4   3  -6    2.09    0.54
   4   3   6    1.89    0.63
   4   3   6    2.49    0.62
  -5  -3  -6    3.37    0.77
   5  -3   6    3.94    0.91
  -5   3  -6    2.52    0.65
  -5   3  -6    1.80    0.56
   5   3   6    3.38    0.82
   7  -4  -6    3.40    0.80
   7  -4  -6    1.34    0.69
  -7  -4   6    2.71    0.62
  -7   4   6    2.98    0.77
   7   4  -6    2.76    0.75
   7   4  -6    2.61    0.76
   6  -4  -6    4.83    0.94
  -6  -4   6    5.49    0.80
  -6  -4   6    5.21    0.92
   6  -4  -6    4.77    0.84
  -6   4   6    5.49    0.56
   6   4  -6    5.40    0.84
  -6   4   6    6.34    0.97
  -6   4   6    5.76    0.90
  -5  -4   6    5.52    0.78
  -5  -4   6    7.20    0.89
   5  -4  -6    5.80    0.86
  -5  -4   6    5.71    0.87
   5  -4  -6    6.67    0.98
  -5   4   6    6.87    0.90
   5   4  -6    6.94    0.92
  -5   4   6    7.08    0.61
   5   4  -6    7.56    1.00
   5   4  -6    5.55    0.78
  -5   4   6    7.15    0.93
  -4  -4   6    3.73    0.60
  -4  -4   6    3.54    0.65
  -4  -4   6    4.30    0.63
   4  -4  -6    4.40    0.72
   4  -4  -6    3.06    0.64
   4  -4  -6    3.98    0.75
   4   4  -6    5.14    0.73
  -4   4   6    4.47    0.69
   4   4  -6    4.04    0.55
   4   4  -6    4.39    0.67
  -4   4   6    3.90    0.65
  -4   4   6    4.22    0.57
   3  -4  -6   72.92    2.30
   3  -4  -6   75.63    2.43
  -3  -4   6   73.82    2.18
  -3  -4   6   75.66    2.43
   3  -4  -6   75.50    2.22
  -3  -4   6   71.91    2.35
  -3   4   6   72.78    2.20
  -3   4   6   75.40    2.22
   3   4  -6   79.51    2.50
   3   4  -6   74.70    2.21
  -3   4   6   73.93    2.28
   3   4  -6   74.08    2.34
  -3   4   6   77.73    2.38
  -2  -4   6   65.13    1.85
  -2  -4   6   64.80    2.11
   2  -4  -6   62.39    2.05
   2  -4  -6   64.46    2.10
   2  -4  -6   67.29    2.09
  -2  -4   6   68.23    2.24
   2   4  -6   67.15    2.08
  -2   4   6   65.05    2.07
   2   4  -6   70.56    2.11
   2   4  -6   69.14    2.26
  -2   4   6   65.89    2.04
  -2   4   6   64.59    2.10
  -2   4   6   67.73    2.11
   1  -4  -6   25.34    1.26
   1  -4  -6   25.36    1.14
  -1  -4   6   26.58    0.95
  -1  -4   6   25.02    1.20
  -1  -4   6   28.94    1.35
   1   4  -6   26.73    1.24
  -1   4   6   25.77    1.17
  -1   4   6   25.84    1.19
   1   4  -6   25.55    1.30
  -1   4   6   24.98    1.24
   0  -4   6   12.68    0.87
   0  -4   6   13.59    0.97
   0  -4  -6   13.79    0.77
   0  -4   6   13.63    0.59
   0  -4  -6   12.64    0.95
   0   4  -6   14.50    0.92
   0   4  -6   12.34    0.94
   0   4   6   13.61    0.86
   0   4   6   13.93    0.88
   0   4   6   13.31    0.95
   1  -4   6   23.35    0.77
   1  -4   6   24.27    1.29
   1  -4   6   23.93    1.23
   1  -4   6   24.78    1.09
  -1  -4  -6   24.32    1.34
  -1  -4  -6   22.75    0.93
  -1   4  -6   24.43    1.27
  -1   4  -6   22.49    0.76
   1   4   6   22.15    1.29
   1   4   6   24.76    1.19
  -1   4  -6   22.25    1.20
   1   4   6   22.07    0.87
   2  -4   6    4.67    0.70
  -2  -4  -6    2.73    0.59
   2  -4   6    4.47    0.64
   2   4   6    4.05    0.67
   2   4   6    3.97    0.68
  -2   4  -6    2.57    0.54
  -2   4  -6    4.89    0.74
   2   4   6    3.34    0.51
   3  -4   6    4.50    0.73
  -3  -4  -6    2.97    0.64
   3  -4   6    3.23    0.60
   3   4   6    3.52    0.61
  -3   4  -6    3.98    0.72
  -3   4  -6    2.89    0.60
   3   4   6    3.20    0.62
   3   4   6    3.60    0.69
   4  -4   6   10.56    1.15
  -4  -4  -6   10.18    1.19
  -4   4  -6    8.40    0.99
   4   4   6    8.50    0.97
   4   4   6    9.18    1.15
  -4   4  -6    8.22    0.93
   5  -4   6   15.96    1.37
  -5  -4  -6   16.72    1.80
  -5   4  -6   16.50    1.28
   5   4   6   16.03    1.36
  -5   4  -6   14.92    1.13
   7  -5  -6   11.31    1.35
   7  -5  -6    8.02    1.23
   7   5  -6   11.57    1.38
   7   5  -6   11.11    1.29
  -7   5   6   12.41    1.36
  -6  -5   6    3.25    0.72
  -6  -5   6    5.91    0.88
   6  -5  -6    4.55    0.84
   6  -5  -6    4.96    0.94
   6   5  -6    4.25    0.79
  -6   5   6    7.24    1.01
   6   5  -6    3.38    0.75
  -6   5   6    5.37    0.94
  -5  -5   6   10.50    0.97
   5  -5  -6   12.38    1.33
  -5  -5   6   11.79    1.05
   5  -5  -6   11.83    1.00
  -5   5   6   11.51    0.73
   5   5  -6   11.03    0.98
  -5   5   6   11.03    1.15
  -5   5   6   12.15    1.00
   5   5  -6   12.67    1.08
   4  -5  -6    1.56    0.49
  -4  -5   6    1.78    0.48
  -4  -5   6    2.21    0.50
  -4  -5   6    1.99    0.52
   4  -5  -6    2.33    0.64
   4   5  -6    2.26    0.45
   4   5  -6    1.32    0.47
  -4   5   6    2.61    0.46
  -4   5   6    2.38    0.60
   4   5  -6    2.36    0.56
  -4   5   6    1.52    0.47
  -3  -5   6   27.53    1.40
  -3  -5   6   27.53    1.19
   3  -5  -6   25.90    1.36
   3  -5  -6   26.87    1.29
  -3  -5   6   25.58    1.31
   3  -5  -6   25.84    1.19
  -3   5   6   27.68    1.23
  -3   5   6   26.07    1.25
  -3   5   6   27.21    1.32
   3   5  -6   25.91    1.29
  -3   5   6   25.42    1.19
   3   5  -6   28.34    1.43
   3   5  -6   27.21    1.21
  -2  -5   6   18.76    1.07
   2  -5  -6   18.66    1.08
   2  -5  -6   18.78    1.06
   2  -5  -6   20.06    1.07
  -2  -5   6   18.62    0.87
  -2  -5   6   20.77    1.18
   2   5  -6   20.81    1.09
  -2   5   6   20.20    1.10
  -2   5   6   20.73    1.08
  -2   5   6   18.51    0.99
   2   5  -6   20.25    1.20
  -2   5   6   18.88    1.06
   2   5  -6   18.87    1.02
   1  -5  -6    7.11    0.66
   1  -5  -6    6.88    0.79
  -1  -5   6    7.99    0.87
  -1  -5   6    6.24    0.69
  -1  -5   6    7.38    0.47
   1   5  -6    8.66    0.72
   1   5  -6    7.81    0.88
  -1   5   6    6.42    0.72
  -1   5   6    8.02    0.68
  -1   5   6    7.29    0.78
   0  -5  -6   50.45    1.92
   0  -5  -6   50.23    1.64
   0  -5   6   53.38    1.94
   0  -5   6   51.99    1.84
   0  -5   6   50.80    1.28
   0   5   6   52.58    1.84
   0   5   6   51.06    1.93
   0   5  -6   50.44    1.92
   0   5   6   52.65    1.76
   0   5  -6   50.31    1.86
  -1  -5  -6   95.70    2.92
   1  -5   6   97.14    2.87
   1  -5   6   92.89    2.59
   1  -5   6   95.39    1.95
   1  -5   6   97.66    2.79
  -1  -5  -6   93.37    2.40
   1   5   6   93.37    2.31
  -1   5  -6   96.99    2.86
   1   5   6   93.25    2.73
  -1   5  -6   96.79    2.85
   1   5   6   98.45    2.97
   2  -5   6   44.08    1.70
   2  -5   6   47.78    1.84
  -2  -5  -6   46.11    1.95
   2   5   6   44.74    1.96
  -2   5  -6   44.51    1.80
  -2   5  -6   45.00    1.85
   2   5   6   44.16    1.76
   2   5   6   40.92    1.49
   3  -5   6   15.76    1.14
  -3  -5  -6   15.85    1.25
  -3   5  -6   15.26    1.09
   3   5   6   14.25    0.98
   3   5   6   13.14    1.04
  -3   5  -6   13.39    1.09
   3   5   6   15.98    1.26
  -4  -5  -6    2.77    0.76
   4  -5   6    4.76    0.91
  -4   5  -6    3.28    0.72
   4   5   6    2.58    0.70
   4   5   6    3.06    0.68
  -4   5  -6    2.85    0.62
   5  -5   6    1.40    0.77
   5   5   6    0.48    0.64
  -5   5  -6    1.73    0.52
  -5   5  -6    0.85    0.54
   6  -6  -6    2.58    0.70
  -6  -6   6    1.76    0.55
  -6  -6   6    3.08    0.71
   6  -6  -6    1.28    0.61
  -6   6   6    1.71    0.58
   6   6  -6    1.92    0.62
   6   6  -6    1.62    0.65
  -6   6   6    1.64    0.58
  -5  -6   6    0.31    0.37
   5  -6  -6    1.39    0.62
   5  -6  -6    0.11    0.38
  -5  -6   6    0.45    0.42
   5   6  -6    0.19    0.39
  -5   6   6    0.15    0.35
  -5   6   6    0.45    0.40
  -5   6   6    0.73    0.29
   5   6  -6    0.50    0.40
  -4  -6   6   12.15    1.00
   4  -6  -6   12.05    0.92
  -4  -6   6   10.48    0.92
   4  -6  -6    9.84    1.09
  -4   6   6   11.22    0.94
  -4   6   6   12.67    0.93
   4   6  -6   11.59    1.18
   4   6  -6   11.19    0.78
  -4   6   6   11.55    0.78
   4   6  -6   11.88    0.93
   3  -6  -6   18.85    1.08
  -3  -6   6   16.80    1.16
  -3  -6   6   18.93    0.97
  -3  -6   6   18.87    1.14
   3  -6  -6   17.92    1.17
   3  -6  -6   20.40    1.05
   3   6  -6   17.16    0.98
  -3   6   6   17.97    1.11
   3   6  -6   17.82    1.20
  -3   6   6   18.30    1.02
   3   6  -6   18.47    1.09
  -3   6   6   19.56    1.04
   2  -6  -6   51.15    1.90
  -2  -6   6   54.90    2.05
   2  -6  -6   54.32    1.88
   2  -6  -6   52.31    1.81
  -2  -6   6   53.22    1.58
  -2  -6   6   54.34    1.90
  -2   6   6   50.95    1.89
   2   6  -6   52.62    2.04
  -2   6   6   51.90    1.86
   2   6  -6   55.03    1.87
  -2   6   6   50.78    1.83
   2   6  -6   51.77    1.80
  -2   6   6   52.34    1.75
   1  -6  -6   27.08    1.32
  -1  -6   6   26.09    0.89
  -1  -6   6   26.46    1.26
   1  -6  -6   26.06    1.23
  -1  -6   6   23.98    1.31
  -1   6   6   26.21    1.28
   1   6  -6   26.57    1.38
  -1   6   6   26.09    1.31
   1   6  -6   25.62    1.17
  -1   6   6   25.27    1.15
   1   6  -6   24.48    1.25
   0  -6   6   14.11    0.96
   0  -6   6   13.50    1.02
   0  -6  -6   16.19    1.09
   0  -6   6   13.25    0.49
   0  -6  -6   13.75    0.87
   0   6   6   14.18    0.89
   0   6   6   16.26    1.09
   0   6   6   15.88    1.01
   0   6  -6   14.68    1.05
   0   6  -6   14.47    1.00
  -1  -6  -6   18.72    1.23
  -1  -6  -6   19.57    0.96
   1  -6   6   20.04    1.20
   1   6   6   19.05    1.14
  -1   6  -6   19.15    1.20
   1   6   6   18.52    0.99
  -1   6  -6   19.45    1.19
   1   6   6   18.93    1.26
  -2  -6  -6    1.29    0.54
   2  -6   6    2.15    0.51
   2  -6   6    1.91    0.53
  -2   6  -6    3.04    0.66
   2   6   6    1.86    0.60
   2   6   6    1.65    0.43
  -2   6  -6    1.23    0.44
   2   6   6    1.16    0.49
  -3  -6  -6    7.68    1.07
   3  -6   6    7.01    0.89
   3   6   6    8.07    1.10
  -3   6  -6    7.38    0.88
   3   6   6    7.97    0.87
  -3   6  -6    8.38    1.02
   3   6   6    6.15    0.86
  -4  -6  -6   14.89    1.34
   4  -6   6   13.42    1.20
   4   6   6   16.77    1.27
   4   6   6   15.67    1.41
  -4   6  -6   17.85    1.34
  -4   6  -6   14.69    1.10
   5  -6   6   16.35    1.49
   5   6   6   16.68    1.39
  -5   6  -6   16.82    1.36
  -5   6  -6   16.62    1.15
   6  -7  -6   14.50    1.18
  -6  -7   6   16.04    1.30
   6  -7  -6   16.07    1.45
  -6  -7   6   15.60    1.30
   6   7  -6   15.53    1.26
  -6   7   6   14.89    1.18
  -6   7   6   16.06    1.33
  -5  -7   6    4.97    0.85
   5  -7  -6    4.49    0.76
   5  -7  -6    3.10    0.79
  -5  -7   6    3.18    0.66
  -5   7   6    3.68    0.73
   5   7  -6    5.30    0.87
  -5   7   6    4.83    0.76
  -5   7   6    5.44    0.58
   5   7  -6    3.36    0.69
   4  -7  -6    0.64    0.46
  -4  -7   6    0.67    0.40
   4  -7  -6    0.16    0.31
  -4  -7   6   -0.22    0.32
  -4   7   6    0.23    0.34
  -4   7   6    0.13    0.32
   4   7  -6    0.05    0.35
   4   7  -6    0.12    0.33
   4   7  -6   -0.24    0.23
  -4   7   6   -0.20    0.24
   3  -7  -6   17.78    1.01
  -3  -7   6   18.28    1.23
   3  -7  -6   16.16    1.17
  -3  -7   6   16.31    1.07
   3  -7  -6   17.09    1.03
  -3  -7   6   16.35    0.91
  -3   7   6   16.68    1.12
  -3   7   6   18.13    1.03
   3   7  -6   21.08    1.32
  -3   7   6   17.46    1.00
   3   7  -6   18.21    1.07
   3   7  -6   18.13    1.03
  -2  -7   6   17.71    1.20
   2  -7  -6   17.28    1.13
   2  -7  -6   19.56    1.12
  -2  -7   6   20.96    1.13
   2  -7  -6   19.27    1.06
  -2  -7   6   18.66    0.85
  -2   7   6   19.83    1.12
   2   7  -6   17.86    1.01
   2   7  -6   20.84    1.29
  -2   7   6   17.94    1.11
  -2   7   6   19.12    1.09
  -2   7   6   21.68    1.05
   2   7  -6   18.44    1.07
  -1  -7   6    1.42    0.46
   1  -7  -6    1.37    0.45
  -1  -7   6    1.84    0.29
  -1  -7   6    1.22    0.43
   1  -7  -6    1.34    0.43
   1   7  -6    0.63    0.42
  -1   7   6    1.29    0.38
  -1   7   6    0.80    0.36
   1   7  -6    1.27    0.38
  -1   7   6    0.54    0.39
   1   7  -6    1.47    0.47
   0  -7   6   24.16    1.23
   0  -7   6   24.63    1.36
   0  -7  -6   23.76    1.17
   0  -7  -6   25.37    1.38
   0   7   6   23.30    1.26
   0   7  -6   23.72    1.36
   0   7   6   24.43    1.37
   0   7  -6   25.60    1.33
  -1  -7  -6   39.17    1.49
  -1  -7  -6   39.88    1.82
   1  -7   6   40.29    1.72
   1  -7   6   37.54    1.63
  -1   7  -6   37.62    1.68
   1   7   6   37.32    1.66
  -1   7  -6   38.06    1.72
   1   7   6   39.93    1.84
   2  -7   6   10.96    0.95
  -2  -7  -6   11.57    0.80
  -2  -7  -6    9.34    1.11
   2  -7   6   10.42    0.90
   2   7   6   12.88    1.15
  -2   7  -6   12.76    0.99
   2   7   6   10.74    0.80
  -2   7  -6   11.26    0.97
   2   7   6   11.37    0.98
   3  -7   6    3.03    0.71
  -3  -7  -6    1.92    0.59
   3   7   6    2.83    0.74
  -3   7  -6    2.92    0.59
   3   7   6    3.46    0.65
   3   7   6    5.12    0.88
  -3   7  -6    3.87    0.76
   4  -7   6    6.50    1.04
  -4  -7  -6    5.61    0.97
   4   7   6    4.80    0.90
  -4   7  -6    6.37    1.00
   4   7   6    6.25    0.95
  -4   7  -6    6.25    0.82
   6  -8  -6    1.55    0.69
  -6  -8   6    1.40    0.63
   6  -8  -6    1.31    0.57
   6   8  -6    0.89    0.52
  -6   8   6    1.00    0.52
  -6   8   6    0.61    0.51
   5  -8  -6    1.83    0.75
  -5  -8   6    2.85    0.70
  -5  -8   6    2.18    0.59
   5  -8  -6    1.69    0.53
   5   8  -6    2.47    0.61
   5   8  -6    1.84    0.60
  -5   8   6    2.43    0.66
  -5   8   6    2.02    0.53
  -5   8   6    1.66    0.37
   4  -8  -6   32.12    1.50
  -4  -8   6   31.85    1.70
   4  -8  -6   32.36    1.76
  -4  -8   6   30.53    1.55
   4   8  -6   32.18    1.75
  -4   8   6   32.47    1.31
  -4   8   6   32.05    1.61
   4   8  -6   30.28    1.32
  -4   8   6   29.94    1.39
   4   8  -6   30.15    1.47
  -3  -8   6    9.61    1.09
  -3  -8   6    6.97    0.82
   3  -8  -6    7.18    0.95
   3  -8  -6    7.85    0.85
   3   8  -6    7.25    0.82
   3   8  -6    7.75    0.85
  -3   8   6    8.31    0.72
  -3   8   6    8.57    0.76
  -3   8   6    8.84    1.03
   3   8  -6    9.77    1.13
  -2  -8   6   28.06    1.06
  -2  -8   6   26.06    1.30
   2  -8  -6   27.70    1.26
  -2  -8   6   29.89    1.56
   2  -8  -6   26.68    1.42
   2  -8  -6   26.93    1.33
   2   8  -6   25.97    1.30
   2   8  -6   24.93    1.20
  -2   8   6   25.88    1.16
  -2   8   6   28.00    1.42
  -2   8   6   28.80    1.38
   2   8  -6   26.90    1.51
  -1  -8   6   54.93    2.12
   1  -8  -6   48.53    1.90
   1  -8  -6   52.05    1.98
  -1  -8   6   49.50    1.30
  -1  -8   6   53.23    1.88
  -1   8   6   52.82    2.01
  -1   8   6   51.64    1.97
  -1   8   6   50.62    1.68
   1   8  -6   52.53    1.76
   1   8  -6   48.79    1.91
   1   8  -6   47.37    2.03
   0  -8  -6    5.58    0.74
   0  -8  -6    5.58    0.79
   0  -8   6    5.90    0.74
   0  -8   6    5.62    0.80
   0   8  -6    4.11    0.68
   0   8   6    5.34    0.81
   0   8   6    5.50    0.75
   0   8  -6    6.02    0.87
   1  -8   6    3.70    0.55
  -1  -8  -6    4.77    0.68
  -1  -8  -6    3.18    0.67
   1  -8   6    4.52    0.71
   1   8   6    4.39    0.75
   1   8   6    4.04    0.71
  -1   8  -6    3.78    0.69
  -1   8  -6    4.47    0.77
  -2  -8  -6    2.45    0.63
  -2  -8  -6    2.34    0.52
   2  -8   6    1.60    0.56
   2  -8   6    2.33    0.57
   2   8   6    2.50    0.63
  -2   8  -6    1.81    0.53
   2   8   6    1.92    0.62
  -2   8  -6    1.92    0.53
   2   8   6    2.48    0.53
   3  -8   6    0.58    0.47
  -3  -8  -6    0.19    0.43
   3   8   6    0.18    0.45
   3   8   6    0.45    0.52
  -3   8  -6    0.69    0.47
  -3   8  -6    0.67    0.42
   3   8   6    0.73    0.49
   4  -8   6   10.94    1.29
  -4  -8  -6    9.67    1.20
   4   8   6   12.56    1.29
  -4   8  -6   11.36    1.01
   4   8   6   10.38    1.35
  -4   8  -6   11.33    1.29
   6  -9  -6    7.78    1.02
   6  -9  -6    8.03    1.21
  -6  -9   6    6.73    1.01
   6   9  -6   10.72    1.27
  -5  -9   6    3.98    0.86
   5  -9  -6    3.31    0.83
   5  -9  -6    4.73    0.79
  -5  -9   6    3.44    0.69
   5   9  -6    5.24    1.00
   5   9  -6    3.69    0.73
  -5   9   6    4.64    0.75
  -5   9   6    4.31    0.78
  -4  -9   6   12.07    1.32
   4  -9  -6   11.39    0.95
  -4  -9   6   13.80    1.08
   4  -9  -6   12.28    1.33
  -4   9   6   13.60    0.94
  -4   9   6   13.21    0.88
   4   9  -6   13.60    1.23
   4   9  -6   12.60    0.88
  -4   9   6   13.60    1.13
   4   9  -6   14.04    1.03
   3  -9  -6    2.21    0.53
  -3  -9   6    1.59    0.48
   3  -9  -6    1.80    0.67
  -3  -9   6    0.97    0.48
   3   9  -6    2.09    0.50
   3   9  -6    1.91    0.51
  -3   9   6    1.79    0.53
   3   9  -6    2.36    0.64
  -3   9   6    1.37    0.37
  -3   9   6    2.34    0.51
   2  -9  -6    5.28    0.85
  -2  -9   6    5.13    0.70
   2  -9  -6    6.55    0.79
  -2  -9   6    6.71    0.97
   2  -9  -6    6.08    0.71
  -2  -9   6    5.27    0.55
  -2   9   6    4.66    0.75
   2   9  -6    6.23    0.95
   2   9  -6    4.83    0.66
  -2   9   6    5.27    0.72
   2   9  -6    6.48    0.82
  -2   9   6    4.91    0.60
  -1  -9   6    3.55    0.69
   1  -9  -6    4.69    0.65
   1  -9  -6    3.78    0.66
  -1  -9   6    3.90    0.63
   1  -9  -6    5.63    0.81
   1   9  -6    4.64    0.80
   1   9  -6    4.43    0.61
   1   9  -6    4.67    0.75
  -1   9   6    4.03    0.72
  -1   9   6    6.20    0.66
  -1   9   6    4.37    0.73
   0  -9  -6   13.94    1.03
   0  -9  -6   15.80    1.17
   0  -9   6   13.79    0.95
   0  -9   6   15.10    1.13
   0   9   6   15.24    1.09
   0   9  -6   14.09    1.12
   0   9  -6   13.68    1.05
   0   9   6   14.66    1.15
  -1  -9  -6    3.72    0.71
   1  -9   6    3.10    0.64
   1  -9   6    3.82    0.55
  -1  -9  -6    3.07    0.60
  -1   9  -6    2.60    0.61
  -1   9  -6    3.63    0.67
   1   9   6    2.96    0.68
   1   9   6    3.65    0.74
  -2  -9  -6    8.84    0.93
  -2  -9  -6    6.46    1.02
   2   9   6    7.04    0.96
   2   9   6    8.08    0.87
  -2   9  -6    7.88    1.00
  -2   9  -6    8.34    1.04
   2   9   6    8.96    1.14
  -3  -9  -6    1.82    0.65
   3  -9   6    3.60    0.79
   3   9   6    3.09    0.70
  -3   9  -6    3.32    0.67
   3   9   6    2.88    0.72
   3   9   6    2.24    0.70
  -3   9  -6    3.20    0.75
   4  -9   6   -0.61    0.41
   4   9   6    0.38    0.59
  -4   9  -6    0.49    0.55
  -4   9  -6    0.54    0.42
   4   9   6   -0.22    0.55
   5 -10  -6   10.80    1.13
  -5 -10   6   12.16    1.44
   5 -10  -6   10.06    1.31
  -5 -10   6   13.22    1.16
   5  10  -6    9.60    1.08
  -5  10   6    9.31    1.18
   5  10  -6   10.67    1.38
  -4 -10   6   16.21    1.18
   4 -10  -6   16.10    1.38
   4 -10  -6   15.80    1.06
  -4 -10   6   15.41    1.31
   4  10  -6   15.17    1.08
   4  10  -6   15.83    1.35
  -4  10   6   16.55    0.98
  -4  10   6   14.64    1.19
   3 -10  -6   11.93    0.90
   3 -10  -6   12.76    1.18
  -3 -10   6   13.10    1.00
  -3 -10   6   10.73    1.18
  -3  10   6   13.03    0.85
  -3  10   6   10.32    1.10
   3  10  -6   10.62    0.89
   3  10  -6   11.49    0.89
   3  10  -6   12.91    1.35
  -3  10   6   12.70    0.95
   2 -10  -6   10.23    1.15
   2 -10  -6   12.73    0.89
  -2 -10   6   13.24    0.95
  -2 -10   6   14.22    1.18
   2  10  -6   10.88    0.82
  -2  10   6   11.25    0.98
   2  10  -6   11.93    0.98
  -2  10   6   13.63    0.81
   2  10  -6   12.28    1.31
   1 -10  -6    9.27    1.01
   1 -10  -6    8.85    0.79
  -1 -10   6    8.99    1.10
   1 -10  -6    7.86    0.97
  -1 -10   6    9.40    0.82
   1  10  -6    9.93    1.11
  -1  10   6    8.47    0.98
  -1  10   6    8.43    0.97
   1  10  -6   11.21    0.95
   1  10  -6    9.00    0.72
   0 -10  -6    4.30    0.77
   0 -10  -6    5.09    0.79
   0 -10   6    5.37    0.72
   0 -10   6    4.39    0.79
   0  10   6    5.57    0.83
   0  10  -6    6.80    0.95
   0  10  -6    5.45    0.86
   0  10   6    5.01    0.81
   1 -10   6    3.03    0.55
  -1 -10  -6    2.71    0.70
  -1 -10  -6    3.09    0.65
   1 -10   6    3.61    0.68
   1  10   6    3.90    0.77
  -1  10  -6    3.12    0.74
   1  10   6    2.98    0.68
  -1  10  -6    3.23    0.71
  -2 -10  -6    0.67    0.53
  -2 -10  -6    1.46    0.55
   2  10   6    0.45    0.48
   2  10   6    1.28    0.61
  -2  10  -6    1.75    0.61
  -2  10  -6    1.35    0.53
   3 -10   6    0.15    0.58
  -3 -10  -6   -0.02    0.45
  -3  10  -6    0.84    0.56
   3  10   6    0.28    0.46
  -3  10  -6    0.27    0.40
   3  10   6    0.72    0.55
   3  10   6   -0.16    0.50
   5 -11  -6    5.06    1.05
   5 -11  -6    3.33    0.70
  -5 -11   6    3.87    0.75
  -5  11   6    3.92    0.85
   5  11  -6    4.98    0.82
   5  11  -6    3.74    0.86
   4 -11  -6    3.60    0.66
   4 -11  -6    2.55    0.80
  -4 -11   6    3.40    0.70
  -4 -11   6    2.67    0.78
   4  11  -6    3.76    0.68
  -4  11   6    3.08    0.74
   4  11  -6    4.02    0.91
  -4  11   6    2.87    0.54
  -3 -11   6    3.12    0.65
   3 -11  -6    3.00    0.60
   3 -11  -6    4.41    0.86
  -3 -11   6    3.58    0.79
  -3  11   6    2.92    0.58
  -3  11   6    3.01    0.67
   3  11  -6    2.98    0.80
   3  11  -6    3.94    0.65
   3  11  -6    3.63    0.69
  -2 -11   6    1.55    0.48
  -2 -11   6    2.61    0.70
   2 -11  -6    1.87    0.46
   2 -11  -6    2.27    0.71
   2  11  -6    1.88    0.47
   2  11  -6    1.84    0.53
  -2  11   6    1.86    0.59
   2  11  -6    1.38    0.61
  -2  11   6    1.86    0.55
  -1 -11   6    7.99    1.12
   1 -11  -6    5.61    0.72
   1 -11  -6    7.04    0.92
   1 -11  -6    5.53    0.91
  -1 -11   6    7.07    0.82
  -1  11   6    7.00    0.97
   1  11  -6    7.95    0.79
   1  11  -6    6.37    0.96
   1  11  -6    7.75    0.99
  -1  11   6    7.76    1.00
   0 -11  -6    6.92    0.97
   0 -11   6    8.28    0.85
   0 -11   6    6.51    0.92
   0 -11  -6    7.01    0.95
   0  11  -6    6.63    0.93
   0  11  -6    6.44    1.04
   0  11  -6    9.14    1.16
   0  11   6    8.30    1.06
   0  11   6    7.59    0.98
  -1 -11  -6   13.98    1.47
  -1 -11  -6   10.99    1.18
   1 -11   6   11.70    0.95
  -1  11  -6   12.80    1.15
  -1  11  -6   13.16    1.34
   1  11   6   11.78    1.34
   1  11   6   11.22    1.24
  -2 -11  -6    2.31    0.64
  -2 -11  -6    2.21    0.68
  -2  11  -6    3.62    0.82
   2  11   6    3.49    0.85
  -2  11  -6    3.21    0.73
   2  11   6    1.73    0.67
  -3 -11  -6    0.09    0.53
   3  11   6    0.57    0.55
   3  11   6    0.30    0.58
  -3  11  -6    0.19    0.62
  -3  11  -6    0.14    0.40
  -4 -12   6   17.04    1.49
  -4 -12   6   16.98    1.23
   4 -12  -6   16.37    1.69
  -4  12   6   16.18    1.33
   4  12  -6   17.09    1.52
  -3 -12   6   24.66    1.35
   3 -12  -6   23.43    1.64
  -3 -12   6   26.50    1.73
  -3  12   6   22.72    1.32
   3  12  -6   23.87    1.36
   3  12  -6   24.27    1.70
   2 -12  -6   11.18    1.29
  -2 -12   6   11.74    0.95
  -2 -12   6   14.57    1.51
  -2  12   6   13.94    1.39
   2  12  -6   13.94    1.12
   2  12  -6   14.43    1.49
  -2  12   6   14.24    1.14
   1 -12  -6   11.87    1.30
  -1 -12   6   14.54    1.00
  -1 -12   6   14.22    1.28
  -1  12   6   14.58    1.19
  -1  12   6   16.24    1.28
   1  12  -6   13.27    1.11
   1  12  -6   15.52    1.34
   0 -12   6    8.33    0.96
   0 -12  -6    8.13    1.06
   0 -12   6    8.93    1.08
   0 -12  -6    7.96    1.05
   0  12   6    6.78    0.99
   0  12  -6    6.96    0.96
   0  12   6    7.49    1.07
   0  12  -6   10.26    1.24
   1 -12   6    0.19    0.45
  -1 -12  -6    0.74    0.53
  -1 -12  -6   -0.26    0.42
  -1  12  -6    0.36    0.46
   1  12   6    0.39    0.52
  -1  12  -6    0.74    0.57
   1  12   6   -0.07    0.47
  -2 -12  -6    3.17    0.83
  -2 -12  -6    3.19    0.77
  -2  12  -6    2.72    0.68
  -2  12  -6    1.91    0.68
   2  12   6    1.62    0.70
   2  12   6    3.01    0.78
   4 -13  -6    2.47    0.84
  -4  13   6    1.45    0.49
  -4  13   6    1.80    0.98
   4  13  -6    2.16    0.72
   3 -13  -6    3.27    0.87
  -3 -13   6    2.33    0.80
   3  13  -6    4.69    1.01
  -3  13   6    3.35    0.80
   3  13  -6    3.26    0.71
   2 -13  -6    1.33    0.68
  -2 -13   6    2.86    0.75
   2  13  -6    2.57    0.80
  -2  13   6    2.05    0.59
  -2  13   6    1.19    0.62
  -1 -13   6    4.06    0.83
   1 -13  -6    5.20    0.98
   1  13  -6    4.87    0.86
  -1  13   6    4.31    0.83
   1  13  -6    5.43    1.00
  -1  13   6    4.86    0.87
   0 -13  -6    8.42    1.17
   0 -13  -6    7.81    1.23
   0 -13   6    8.33    1.03
   0  13  -6   10.35    1.29
   0  13   6    9.09    1.20
   0  13  -6    8.90    1.18
   0  13   6    8.16    1.14
   1 -13   6   32.28    1.64
  -1 -13  -6   30.21    1.75
  -1 -13  -6   29.75    1.88
   1  13   6   33.29    2.00
  -1  13  -6   30.40    1.79
   1  13   6   28.10    1.75
  -1  13  -6   27.78    1.77
  -2 -13  -6    5.71    1.03
  -2 -13  -6    7.95    1.13
   3 -14  -6    7.74    1.17
  -3 -14   6    7.72    1.19
  -3  14   6    7.24    0.95
   2 -14  -6    2.24    0.82
  -2 -14   6    1.55    0.70
  -2  14   6    0.90    0.55
   2  14  -6    1.17    0.55
   2  14  -6    1.30    1.04
  -1 -14   6    1.19    0.68
   1 -14  -6    1.07    0.69
   1  14  -6    2.00    1.00
  -1  14   6    1.90    0.66
   1  14  -6    1.86    0.62
  -1  14   6    2.37    0.75
   0 -14  -6    0.91    0.62
   0 -14   6    0.93    0.57
   0  14  -6    1.71    0.65
   0  14   6    0.77    0.64
   1 -14   6    3.93    0.86
  -1 -14  -6    1.52    0.71
  -1 -14  -6    0.98    0.60
   7   0  -7   -0.15    0.39
  -7   0   7   -0.01    0.30
   6   0  -7   10.22    1.19
  -6   0   7   13.17    1.37
  -6   0   7   13.77    1.40
  -6   0   7   12.33    0.96
  -5   0   7   14.14    1.01
   5   0  -7   14.93    1.13
  -5   0   7   15.99    1.19
  -5   0   7   16.27    1.17
   4   0  -7    4.07    0.65
   4   0  -7    5.80    0.87
   4   0  -7    5.51    0.80
  -4   0   7    5.32    0.78
  -4   0   7    4.79    0.67
  -4   0   7    5.68    0.85
  -3   0   7   -0.03    0.26
  -3   0   7    0.09    0.27
   3   0  -7    0.04    0.32
   3   0  -7   -0.36    0.24
  -3   0   7    0.09    0.31
   3   0  -7    0.24    0.36
  -2   0   7    4.95    0.68
   2   0  -7    4.34    0.64
   2   0  -7    6.06    0.73
   2   0  -7    7.26    0.83
   2   0  -7    4.34    0.63
  -2   0   7    5.61    0.66
  -2   0   7    5.24    0.69
   1   0  -7   29.11    1.19
  -1   0   7   27.85    1.40
   1   0  -7   34.10    1.54
  -1   0   7   28.63    1.37
  -1   0   7   28.68    1.21
   1   0  -7   30.51    1.41
   0   0  -7   49.41    1.87
   0   0   7   48.43    1.93
   0   0   7   45.30    1.57
   0   0   7   48.37    1.85
   0   0  -7   47.28    1.90
  -1   0  -7   49.18    1.97
  -1   0  -7   48.05    1.87
   1   0   7   48.53    1.99
   1   0   7   48.11    1.61
   1   0   7   46.27    1.94
   2   0   7   29.23    1.25
  -2   0  -7   31.04    1.59
  -2   0  -7   29.45    1.46
   2   0   7   27.97    1.53
   2   0   7   29.99    1.26
  -3   0  -7   -0.37    0.31
   3   0   7   -0.34    0.33
  -3   0  -7   -0.22    0.33
   3   0   7    0.05    0.32
   4   0   7    0.27    0.49
  -4   0  -7    0.17    0.42
  -4   0  -7   -0.26    0.36
  -7  -1   7    9.56    1.03
  -7   1   7    9.59    0.84
  -6  -1   7    7.44    0.91
   6  -1  -7    7.39    1.12
  -6  -1   7    8.21    1.09
   6  -1  -7    6.40    0.98
  -6  -1   7    7.77    1.08
  -6   1   7    7.60    0.86
  -6   1   7    6.61    0.98
   6   1  -7    5.67    0.90
  -6   1   7    6.25    0.97
   5  -1  -7    1.34    0.51
  -5  -1   7    1.89    0.55
   5  -1  -7    3.63    0.84
  -5  -1   7    2.66    0.66
  -5  -1   7    1.97    0.49
   5   1  -7    1.94    0.57
  -5   1   7    2.12    0.55
  -5   1   7    1.61    0.46
  -5   1   7    2.24    0.59
   4  -1  -7   16.84    1.06
   4  -1  -7   16.85    1.19
  -4  -1   7   14.08    1.01
  -4  -1   7   17.47    1.08
  -4  -1   7   16.47    1.14
   4  -1  -7   13.89    1.05
  -4   1   7   14.53    1.05
   4   1  -7   14.96    1.06
   4   1  -7   17.53    1.18
  -4   1   7   13.45    1.04
  -4   1   7   15.90    1.04
   3  -1  -7   16.13    1.07
   3  -1  -7   16.94    1.08
   3  -1  -7   17.47    1.11
  -3  -1   7   16.39    1.07
  -3  -1   7   16.73    1.10
  -3  -1   7   17.73    1.03
  -3   1   7   19.00    1.14
   3   1  -7   16.46    1.06
   3   1  -7   17.21    1.11
  -3   1   7   17.53    1.05
  -3   1   7   18.22    1.10
   2  -1  -7    1.74    0.45
   2  -1  -7    1.85    0.47
  -2  -1   7    2.18    0.44
   2  -1  -7    1.32    0.45
  -2  -1   7    2.60    0.57
  -2  -1   7    1.02    0.43
  -2   1   7    0.87    0.35
  -2   1   7    0.96    0.36
  -2   1   7    1.39    0.45
   2   1  -7    1.95    0.54
   2   1  -7    1.06    0.41
   2   1  -7    1.91    0.49
  -1  -1   7   27.17    1.38
  -1  -1   7   24.13    1.08
  -1  -1   7   25.67    1.30
   1  -1  -7   24.93    1.11
   1  -1  -7   24.76    1.27
   1  -1  -7   25.91    1.35
   1   1  -7   24.88    1.34
  -1   1   7   26.86    1.37
   1   1  -7   24.82    1.29
  -1   1   7   26.81    1.31
  -1   1   7   25.45    1.15
   0  -1  -7   14.03    1.07
   0  -1   7   15.30    1.08
   0  -1   7   15.61    1.02
   0  -1   7   14.92    0.81
   0  -1  -7   14.44    1.00
   0  -1  -7   13.65    0.73
   0   1  -7   14.88    1.09
   0   1   7   14.50    1.09
   0   1  -7   13.91    1.00
   0   1   7   12.91    0.83
   0   1   7   12.50    0.94
  -1  -1  -7    5.01    0.75
   1  -1   7    5.70    0.57
   1  -1   7    5.82    0.61
   1  -1   7    3.83    0.68
  -1  -1  -7    4.47    0.69
   1   1   7    4.25    0.68
  -1   1  -7    6.88    0.89
  -1   1  -7    5.80    0.77
   1   1   7    4.69    0.62
   2  -1   7    9.17    1.03
   2  -1   7    8.04    0.66
  -2  -1  -7    6.58    0.85
  -2  -1  -7    8.41    0.95
   2  -1   7    8.22    0.74
  -2   1  -7    8.84    0.97
   2   1   7    7.22    0.65
   2   1   7    7.96    0.93
   2   1   7    8.97    0.76
  -2   1  -7    7.89    0.92
   3  -1   7    2.77    0.59
  -3  -1  -7    1.87    0.58
   3  -1   7    1.18    0.50
  -3  -1  -7    1.70    0.56
  -3   1  -7    1.51    0.53
  -3   1  -7    1.88    0.54
   3   1   7    1.04    0.47
   3   1   7    2.21    0.51
   3   1   7    2.19    0.55
  -4  -1  -7   10.13    1.09
  -4  -1  -7    7.73    0.99
   4  -1   7    8.42    1.00
  -4   1  -7   10.44    1.09
   4   1   7    9.30    1.09
  -4   1  -7    9.90    1.21
   6  -2  -7   17.53    1.47
   6  -2  -7   18.90    1.37
  -6  -2   7   16.91    1.17
  -6  -2   7   17.26    1.34
  -6  -2   7   17.80    1.32
  -6   2   7   18.62    1.36
  -6   2   7   16.57    1.30
   6   2  -7   16.23    1.31
  -6   2   7   15.93    1.00
  -5  -2   7    7.76    0.99
  -5  -2   7   10.00    1.12
   5  -2  -7    6.90    1.04
  -5  -2   7    8.67    1.01
   5  -2  -7    6.96    0.93
  -5   2   7    9.43    1.10
  -5   2   7    6.86    0.78
   5   2  -7    7.36    1.00
  -5   2   7    9.41    1.08
  -4  -2   7    5.07    0.75
   4  -2  -7    5.35    0.70
   4  -2  -7    6.67    0.94
  -4  -2   7    5.59    0.84
   4  -2  -7    5.29    0.77
  -4  -2   7    5.23    0.73
   4   2  -7    5.29    0.77
  -4   2   7    4.22    0.61
  -4   2   7    5.80    0.83
  -4   2   7    4.68    0.69
   4   2  -7    5.35    0.80
   3  -2  -7   14.71    1.04
   3  -2  -7   15.99    1.04
  -3  -2   7   15.26    1.04
  -3  -2   7   15.03    1.05
   3  -2  -7   14.73    1.03
  -3  -2   7   12.97    0.89
   3   2  -7   14.80    1.07
   3   2  -7   14.51    0.96
  -3   2   7   15.22    0.99
  -3   2   7   14.82    1.03
   3   2  -7   11.94    0.95
  -3   2   7   13.47    1.03
  -3   2   7   13.62    0.96
   2  -2  -7    6.96    0.79
  -2  -2   7   10.02    1.02
  -2  -2   7    9.28    0.69
   2  -2  -7    7.66    0.87
  -2  -2   7    9.67    0.96
   2  -2  -7    8.42    0.75
   2   2  -7    9.73    1.00
  -2   2   7    8.56    0.87
  -2   2   7    9.05    0.82
  -2   2   7    8.71    0.78
   2   2  -7    6.83    0.79
   2   2  -7    8.39    0.89
   1  -2  -7    6.37    0.69
  -1  -2   7    5.59    0.80
   1  -2  -7    6.01    0.80
  -1  -2   7    5.90    0.61
  -1  -2   7    5.41    0.70
  -1   2   7    6.65    0.79
   1   2  -7    5.15    0.67
   1   2  -7    6.62    0.85
  -1   2   7    6.40    0.83
  -1   2   7    5.71    0.68
   0  -2   7   17.29    0.83
   0  -2   7   17.46    1.09
   0  -2  -7   16.62    1.13
   0  -2   7   16.70    1.14
   0  -2  -7   17.28    0.84
   0  -2  -7   17.01    1.08
   0   2  -7   16.65    1.15
   0   2   7   17.62    1.16
   0   2  -7   18.41    1.12
   0   2   7   18.31    1.10
   0   2   7   16.72    0.97
  -1  -2  -7   18.51    1.14
  -1  -2  -7   20.33    1.30
   1  -2   7   18.95    0.92
   1  -2   7   22.35    1.32
   1  -2   7   20.46    0.90
  -1   2  -7   19.84    1.22
  -1   2  -7   21.04    1.32
  -1   2  -7   21.59    1.29
   1   2   7   21.39    1.32
   1   2   7   19.92    1.07
   2  -2   7   13.81    0.91
   2  -2   7   13.80    1.11
  -2  -2  -7   12.92    1.00
   2  -2   7   12.88    0.75
  -2  -2  -7   13.56    1.14
   2   2   7   13.53    0.86
   2   2   7   12.94    0.93
  -2   2  -7   14.04    1.10
  -2   2  -7   15.48    1.11
   2   2   7   13.39    1.14
  -3  -2  -7   14.59    1.21
   3  -2   7   13.16    1.04
   3  -2   7   15.60    1.18
  -3  -2  -7   13.87    1.05
  -3   2  -7   10.51    1.09
   3   2   7   16.08    1.08
   3   2   7   14.30    1.22
  -3   2  -7   12.76    1.14
   3   2   7   12.46    0.96
  -4  -2  -7    0.33    0.43
  -4  -2  -7    0.04    0.40
   4  -2   7    0.49    0.52
  -4   2  -7    0.05    0.40
   4   2   7    0.28    0.52
  -4   2  -7    0.28    0.43
  -6  -3   7    0.71    0.44
  -6  -3   7    0.83    0.51
   6  -3  -7    1.20    0.67
   6  -3  -7    0.55    0.46
  -6  -3   7    0.84    0.53
  -6   3   7    1.49    0.62
   6   3  -7    1.78    0.59
   6   3  -7    0.95    0.53
  -6   3   7    0.69    0.47
  -6   3   7    0.55    0.35
   5  -3  -7    7.24    1.09
  -5  -3   7    5.66    0.87
  -5  -3   7    6.49    0.91
  -5  -3   7    7.34    0.95
   5   3  -7    6.05    0.93
   5   3  -7    7.36    0.94
  -5   3   7    6.34    0.92
  -5   3   7    8.18    1.04
  -5   3   7    6.22    0.76
  -4  -3   7   14.71    1.09
   4  -3  -7   13.62    1.05
  -4  -3   7   15.32    1.12
  -4  -3   7   14.74    1.01
   4  -3  -7   14.90    1.16
  -4   3   7   15.35    1.00
   4   3  -7   15.99    1.14
  -4   3   7   14.41    1.07
   4   3  -7   17.34    1.17
  -4   3   7   16.03    1.10
   3  -3  -7   13.92    1.01
  -3  -3   7   15.27    1.05
  -3  -3   7   13.67    1.03
   3  -3  -7   13.85    1.03
   3  -3  -7   13.74    0.97
  -3  -3   7   15.57    0.92
   3   3  -7   16.11    1.12
  -3   3   7   14.75    0.99
   3   3  -7   14.88    0.98
  -3   3   7   16.17    1.05
  -3   3   7   15.56    1.03
   3   3  -7   15.39    1.04
  -2  -3   7    8.90    0.99
  -2  -3   7    8.34    0.92
   2  -3  -7    4.42    0.64
   2  -3  -7    6.64    0.82
  -2  -3   7    6.11    0.64
   2  -3  -7    7.04    0.81
  -2   3   7    6.62    0.77
   2   3  -7    6.63    0.76
  -2   3   7    9.38    0.99
   2   3  -7    6.13    0.78
  -2   3   7    5.87    0.74
   2   3  -7    9.04    1.04
   1  -3  -7    3.00    0.60
   1  -3  -7    3.11    0.51
  -1  -3   7    2.86    0.56
  -1  -3   7    2.23    0.39
  -1  -3   7    2.97    0.67
  -1   3   7    2.30    0.50
  -1   3   7    2.52    0.55
   1   3  -7    2.98    0.65
   1   3  -7    1.76    0.47
  -1   3   7    2.62    0.51
   0  -3  -7    1.09    0.45
   0  -3   7    0.72    0.27
   0  -3   7    0.51    0.36
   0  -3  -7    1.10    0.36
   0  -3   7    1.16    0.48
   0   3   7    0.56    0.33
   0   3   7    0.69    0.37
   0   3   7    1.23    0.43
   0   3  -7    1.11    0.46
   0   3  -7    1.08    0.46
   1  -3   7   42.39    1.82
   1  -3   7   40.76    1.27
  -1  -3  -7   40.36    1.84
   1  -3   7   39.67    1.45
  -1  -3  -7   37.95    1.65
   1   3   7   41.13    1.85
  -1   3  -7   40.34    1.76
   1   3   7   42.18    1.64
  -1   3  -7   43.97    1.88
   2  -3   7   24.49    1.43
  -2  -3  -7   24.75    1.48
  -2  -3  -7   21.05    1.24
   2  -3   7   24.13    1.21
   2  -3   7   24.19    0.99
   2   3   7   25.05    1.30
  -2   3  -7   23.85    1.42
  -2   3  -7   24.29    1.39
   2   3   7   25.40    1.51
   3  -3   7   12.50    1.35
  -3  -3  -7   11.19    0.96
   3  -3   7   14.00    1.10
  -3  -3  -7   11.77    1.29
  -3   3  -7   11.41    1.21
   3   3   7   12.93    1.04
   3   3   7   13.57    1.23
  -3   3  -7   12.78    1.11
   3   3   7   11.82    0.91
   4  -3   7    7.89    1.07
  -4  -3  -7   10.92    1.33
   4   3   7    8.82    1.04
  -4   3  -7    9.33    1.14
  -4   3  -7    8.00    1.03
   6  -4  -7    7.73    1.17
  -6  -4   7    8.60    1.13
  -6  -4   7   10.21    1.26
  -6  -4   7    9.42    1.12
   6  -4  -7    7.72    1.07
  -6   4   7    9.60    0.75
   6   4  -7    6.58    0.99
  -6   4   7    6.93    0.98
  -6   4   7    8.88    1.14
   6   4  -7    9.12    1.07
   5  -4  -7   17.33    1.25
  -5  -4   7   17.81    1.24
  -5  -4   7   18.83    1.26
   5  -4  -7   15.51    1.29
  -5  -4   7   19.71    1.34
  -5   4   7   16.91    1.01
  -5   4   7   15.93    1.19
   5   4  -7   17.37    1.26
  -5   4   7   19.06    1.29
   5   4  -7   17.89    1.11
   4  -4  -7    4.10    0.79
  -4  -4   7    3.28    0.69
  -4  -4   7    2.88    0.62
   4  -4  -7    2.46    0.58
  -4  -4   7    4.07    0.65
   4   4  -7    3.46    0.59
  -4   4   7    4.32    0.64
  -4   4   7    4.02    0.68
   4   4  -7    5.62    0.86
   4   4  -7    3.23    0.66
  -4   4   7    4.21    0.73
   3  -4  -7    4.18    0.72
   3  -4  -7    4.74    0.70
  -3  -4   7    4.78    0.73
  -3  -4   7    6.24    0.83
   3  -4  -7    6.83    0.82
  -3  -4   7    5.71    0.71
  -3   4   7    5.93    0.73
   3   4  -7    5.24    0.75
   3   4  -7    4.35    0.70
  -3   4   7    5.50    0.75
   3   4  -7    5.38    0.77
  -3   4   7    5.15    0.72
   2  -4  -7    4.64    0.68
   2  -4  -7    4.66    0.72
  -2  -4   7    4.35    0.66
  -2  -4   7    5.41    0.59
   2  -4  -7    5.68    0.76
  -2  -4   7    4.86    0.70
  -2   4   7    6.53    0.80
   2   4  -7    6.39    0.82
   2   4  -7    3.96    0.67
  -2   4   7    4.83    0.68
  -2   4   7    4.63    0.66
   2   4  -7    4.10    0.64
  -1  -4   7   14.07    0.75
  -1  -4   7   14.20    1.00
   1  -4  -7   13.52    0.88
  -1  -4   7   15.99    1.12
   1  -4  -7   15.24    1.08
   1   4  -7   15.25    1.04
   1   4  -7   13.69    1.10
  -1   4   7   14.14    1.04
  -1   4   7   16.08    1.00
  -1   4   7   14.36    0.98
   0  -4   7    8.63    0.54
   0  -4  -7   11.23    1.00
   0  -4   7    7.97    0.86
   0  -4   7   10.31    0.96
   0  -4  -7   10.27    0.73
   0   4   7   10.00    0.83
   0   4  -7    9.23    1.01
   0   4  -7    8.11    0.88
   0   4   7    9.40    0.82
   0   4   7   11.33    1.14
   1  -4   7    4.18    0.42
   1  -4   7    6.05    0.69
  -1  -4  -7    5.54    0.86
   1  -4   7    5.22    0.82
   1   4   7    4.52    0.80
  -1   4  -7    5.61    0.86
  -1   4  -7    4.69    0.77
   1   4   7    5.72    0.77
   2  -4   7    8.35    0.78
   2  -4   7    9.36    1.09
  -2  -4  -7    8.75    1.01
   2   4   7    7.70    0.97
  -2   4  -7    8.08    0.94
   2   4   7    8.31    0.96
  -2   4  -7    6.82    0.87
  -3  -4  -7    2.98    0.74
   3  -4   7    2.54    0.64
   3   4   7    2.42    0.71
   3   4   7    1.70    0.55
  -3   4  -7    2.41    0.63
  -3   4  -7    2.22    0.62
   3   4   7    2.64    0.58
  -4  -4  -7    0.88    0.59
   4  -4   7    0.22    0.55
   4   4   7    0.82    0.66
   4   4   7    1.19    0.62
  -4   4  -7    0.35    0.49
  -4   4  -7    0.65    0.45
  -6  -5   7    0.81    0.49
  -6  -5   7    1.99    0.66
   6  -5  -7    1.17    0.70
   6  -5  -7    2.01    0.70
  -6  -5   7    0.81    0.49
  -6   5   7    1.40    0.59
   6   5  -7    0.79    0.51
  -6   5   7    1.52    0.43
   6   5  -7    1.74    0.60
  -6   5   7    2.48    0.70
   5  -5  -7   14.06    1.48
   5  -5  -7   12.84    1.09
  -5  -5   7   14.01    1.18
  -5  -5   7   14.53    1.12
  -5  -5   7   14.90    1.17
   5   5  -7   10.66    1.16
  -5   5   7   11.25    1.18
  -5   5   7   12.93    0.90
  -5   5   7   12.76    1.09
   5   5  -7   15.94    1.86
  -4  -5   7    9.72    1.09
  -4  -5   7    8.29    0.91
   4  -5  -7    7.35    0.93
   4  -5  -7    8.49    1.09
  -4  -5   7    7.74    0.94
   4   5  -7    7.62    0.96
  -4   5   7   10.29    1.11
  -4   5   7    8.37    0.77
   4   5  -7   11.10    1.22
  -4   5   7    9.77    1.03
   4   5  -7    9.47    0.79
   3  -5  -7   12.37    0.95
   3  -5  -7   11.77    0.98
  -3  -5   7   13.59    0.87
  -3  -5   7   13.13    1.01
  -3  -5   7   14.04    1.09
   3  -5  -7   12.90    0.95
   3   5  -7   12.89    0.95
  -3   5   7   12.30    0.95
   3   5  -7   14.19    1.14
  -3   5   7   12.85    0.94
   3   5  -7   12.92    0.99
  -3   5   7   11.94    0.97
  -2  -5   7   27.63    1.48
   2  -5  -7   24.26    1.29
   2  -5  -7   27.13    1.39
  -2  -5   7   27.02    1.37
  -2  -5   7   24.70    1.07
   2  -5  -7   25.36    1.34
   2   5  -7   26.00    1.30
  -2   5   7   25.44    1.29
   2   5  -7   30.52    1.56
   2   5  -7   28.78    1.38
  -2   5   7   25.60    1.35
  -2   5   7   25.31    1.33
   1  -5  -7   20.90    1.26
  -1  -5   7   18.93    1.15
   1  -5  -7   20.16    1.08
  -1  -5   7   18.51    0.83
  -1  -5   7   20.01    1.25
  -1   5   7   19.21    1.20
  -1   5   7   17.68    1.07
   1   5  -7   18.61    1.26
   1   5  -7   19.85    1.20
  -1   5   7   17.69    1.10
   0  -5  -7    4.97    0.75
   0  -5  -7    7.86    0.67
   0  -5   7    5.97    0.82
   0  -5   7    5.09    0.75
   0  -5   7    4.66    0.39
   0   5   7    4.79    0.68
   0   5   7    3.98    0.66
   0   5   7    5.92    0.78
   0   5  -7    5.14    0.75
   0   5  -7    4.42    0.72
  -1  -5  -7   26.47    1.51
   1  -5   7   26.67    1.49
  -1   5  -7   24.98    1.43
   1   5   7   27.09    1.38
  -1   5  -7   25.61    1.43
   1   5   7   27.19    1.54
   2  -5   7   21.74    1.34
   2  -5   7   18.37    1.16
  -2  -5  -7   18.96    1.38
  -2   5  -7   19.36    1.30
  -2   5  -7   20.26    1.32
   2   5   7   18.61    1.21
   2   5   7   19.16    1.40
  -3  -5  -7    2.52    0.67
   3  -5   7    3.14    0.68
   3   5   7    3.75    0.74
  -3   5  -7    2.79    0.68
  -3   5  -7    2.64    0.65
   3   5   7    2.62    0.65
   3   5   7    3.75    0.81
  -4  -5  -7    5.50    0.94
   4  -5   7    8.05    1.15
  -4   5  -7    6.94    1.05
  -4   5  -7    6.12    0.91
   4   5   7    7.19    0.96
   4   5   7    6.86    1.12
   6  -6  -7    6.35    1.04
  -6  -6   7    4.66    0.90
   6  -6  -7    4.81    1.03
  -6  -6   7    6.42    0.97
  -6  -6   7    6.28    1.02
  -6   6   7    4.94    0.87
   6   6  -7    4.34    0.89
   6   6  -7    7.87    1.07
  -6   6   7    8.38    1.72
  -5  -6   7   13.99    1.18
   5  -6  -7   11.83    1.35
   5  -6  -7   12.63    1.10
  -5  -6   7   12.03    1.12
  -5  -6   7   15.07    1.11
  -5   6   7   13.89    1.16
   5   6  -7   10.49    1.17
  -5   6   7   12.32    0.87
  -5   6   7   12.02    1.04
   5   6  -7   12.67    1.10
  -4  -6   7   12.34    1.09
   4  -6  -7   12.58    1.01
  -4  -6   7   12.17    1.05
  -4  -6   7   12.84    0.97
   4  -6  -7    9.34    1.12
   4   6  -7   11.74    1.00
  -4   6   7   13.33    1.03
   4   6  -7   10.02    1.10
  -4   6   7   12.86    0.92
  -4   6   7   12.99    1.28
   4   6  -7   12.69    0.92
  -3  -6   7   12.84    0.83
   3  -6  -7   11.76    1.05
   3  -6  -7   11.65    0.95
  -3  -6   7   12.91    1.02
   3  -6  -7   13.97    1.08
  -3  -6   7   12.49    1.27
  -3   6   7   12.18    0.93
   3   6  -7   13.72    0.97
   3   6  -7   13.69    1.17
  -3   6   7   13.04    0.96
  -3   6   7   11.96    1.01
   3   6  -7   13.74    1.00
  -2  -6   7   12.42    0.97
   2  -6  -7   10.97    0.96
   2  -6  -7   11.86    0.97
  -2  -6   7   12.24    0.74
  -2  -6   7   14.51    1.13
   2  -6  -7   12.17    0.93
   2   6  -7   10.92    1.13
  -2   6   7   12.17    0.89
  -2   6   7   12.65    1.00
  -2   6   7   12.29    0.97
   2   6  -7   12.08    0.96
   2   6  -7   12.23    0.93
  -1  -6   7   15.50    1.18
   1  -6  -7   16.37    1.05
   1  -6  -7   17.91    1.20
  -1  -6   7   15.26    1.07
  -1  -6   7   17.28    0.76
  -1   6   7   16.08    1.02
   1   6  -7   16.67    1.12
  -1   6   7   14.30    1.04
   1   6  -7   17.77    1.26
  -1   6   7   15.91    1.13
   0  -6   7    4.34    0.71
   0  -6  -7    4.46    0.78
   0  -6   7    4.29    0.71
   0  -6  -7    4.38    0.63
   0   6   7    4.36    0.71
   0   6   7    4.46    0.67
   0   6   7    5.54    0.86
   0   6  -7    3.84    0.74
   0   6  -7    3.30    0.65
  -1  -6  -7    3.76    0.56
   1  -6   7    3.79    0.74
  -1  -6  -7    4.69    0.86
   1   6   7    2.78    0.59
  -1   6  -7    2.82    0.67
  -1   6  -7    5.06    0.82
   1   6   7    3.54    0.76
   2  -6   7    3.86    0.67
  -2  -6  -7    3.38    0.75
   2  -6   7    3.27    0.67
  -2   6  -7    4.52    0.73
   2   6   7    5.32    0.91
  -2   6  -7    4.72    0.84
   2   6   7    5.88    0.88
  -3  -6  -7    8.70    1.14
   3  -6   7    8.95    1.08
   3   6   7    7.28    1.03
   3   6   7    5.71    0.97
  -3   6  -7    8.24    1.11
  -3   6  -7    8.93    1.11
   4  -6   7    5.34    0.99
   4   6   7    4.50    0.89
  -4   6  -7    4.93    0.87
   4   6   7    5.42    1.06
  -4   6  -7    4.65    0.89
   6  -7  -7    2.35    0.70
  -6  -7   7    2.34    0.67
   6  -7  -7    1.71    0.82
   6   7  -7    1.56    0.63
  -6   7   7    2.94    0.73
  -5  -7   7    4.50    0.81
   5  -7  -7    4.88    0.94
   5  -7  -7    6.08    0.88
  -5  -7   7    7.19    1.03
  -5  -7   7    5.79    0.83
  -5   7   7    4.68    0.84
  -5   7   7    6.47    0.91
  -5   7   7    5.51    0.67
   5   7  -7    6.38    0.97
   5   7  -7    6.22    0.89
  -4  -7   7   12.58    1.16
   4  -7  -7   14.11    1.27
   4  -7  -7   15.67    1.11
  -4  -7   7   14.38    1.01
  -4  -7   7   13.05    1.12
  -4   7   7   15.68    1.19
   4   7  -7   17.67    1.34
  -4   7   7   13.39    0.96
   4   7  -7   14.51    1.00
   4   7  -7   12.57    1.06
  -4   7   7   14.70    1.05
   3  -7  -7    8.09    1.06
  -3  -7   7    8.03    0.69
  -3  -7   7    7.52    1.00
   3  -7  -7    7.73    0.92
  -3  -7   7    9.46    1.05
   3   7  -7    5.99    0.81
  -3   7   7    7.69    0.87
  -3   7   7    7.55    0.98
   3   7  -7    8.06    1.07
   3   7  -7    8.44    0.92
  -3   7   7    7.14    0.82
   2  -7  -7   44.36    1.88
   2  -7  -7   44.24    1.77
  -2  -7   7   43.24    1.79
  -2  -7   7   43.58    1.44
   2  -7  -7   45.44    1.85
  -2  -7   7   45.29    2.01
   2   7  -7   47.20    1.88
  -2   7   7   47.30    1.89
   2   7  -7   43.76    2.03
   2   7  -7   41.99    1.71
  -2   7   7   46.68    1.74
  -2   7   7   43.45    1.87
  -1  -7   7   28.06    1.57
  -1  -7   7   27.08    1.42
   1  -7  -7   25.83    1.35
   1  -7  -7   27.60    1.48
  -1   7   7   26.42    1.29
  -1   7   7   25.57    1.46
   1   7  -7   28.35    1.59
   1   7  -7   27.53    1.34
  -1   7   7   24.89    1.39
   1   7  -7   27.73    1.45
   0  -7   7    5.79    0.91
   0  -7  -7    5.22    0.72
   0  -7  -7    4.44    0.75
   0  -7   7    4.10    0.70
   0   7   7    4.66    0.77
   0   7  -7    3.96    0.72
   0   7   7    6.00    0.84
   0   7  -7    5.80    0.87
  -1  -7  -7    0.72    0.49
   1  -7   7    1.17    0.50
  -1  -7  -7    0.84    0.40
   1   7   7    0.85    0.50
  -1   7  -7    0.50    0.42
  -1   7  -7    0.23    0.38
   1   7   7    0.98    0.48
   2  -7   7   10.79    1.00
  -2  -7  -7   11.57    1.34
   2  -7   7   10.36    1.57
  -2   7  -7    8.82    1.07
   2   7   7   12.21    1.37
  -2   7  -7    9.39    1.13
   2   7   7    8.99    1.03
   3  -7   7    8.92    1.07
  -3  -7  -7    8.92    1.18
  -3   7  -7   10.63    1.25
   3   7   7    8.48    1.13
  -3   7  -7    8.08    1.02
   3   7   7    7.36    1.10
   4  -7   7    0.14    0.57
   4   7   7    1.51    0.68
  -4   7  -7    1.15    0.67
   4   7   7    2.21    0.80
  -4   7  -7    1.18    0.57
  -5  -8   7    9.32    1.06
   5  -8  -7    9.14    1.23
   5  -8  -7   12.30    1.28
  -5  -8   7    9.48    1.15
  -5  -8   7    8.49    1.19
  -5   8   7    9.99    1.20
  -5   8   7    9.89    0.79
   5   8  -7    9.41    1.11
  -5   8   7    9.65    1.04
   5   8  -7   10.37    1.29
  -4  -8   7    1.72    0.59
  -4  -8   7    2.06    0.53
   4  -8  -7    2.17    0.72
  -4  -8   7    2.39    0.69
   4  -8  -7    2.32    0.60
  -4   8   7    2.49    0.68
  -4   8   7    2.61    0.55
   4   8  -7    3.00    0.76
   4   8  -7    1.44    0.53
  -4   8   7    1.72    0.51
   4   8  -7    2.59    0.56
  -3  -8   7    7.60    1.11
  -3  -8   7    5.37    0.66
   3  -8  -7    6.68    0.85
   3  -8  -7    5.92    0.91
  -3  -8   7    5.62    0.82
   3   8  -7    8.60    1.16
   3   8  -7    6.16    0.84
  -3   8   7    6.32    0.78
  -3   8   7    5.95    0.79
  -3   8   7    5.56    0.88
   3   8  -7    7.46    0.91
   2  -8  -7    3.52    0.65
  -2  -8   7    2.82    0.50
   2  -8  -7    2.63    0.58
  -2  -8   7    2.23    0.60
  -2  -8   7    2.25    0.56
   2  -8  -7    2.56    0.66
  -2   8   7    2.58    0.54
   2   8  -7    2.72    0.56
   2   8  -7    2.14    0.62
  -2   8   7    2.03    0.55
  -2   8   7    2.64    0.62
   2   8  -7    2.56    0.62
  -1  -8   7    0.31    0.39
  -1  -8   7    0.49    0.38
   1  -8  -7    0.14    0.40
   1  -8  -7    0.01    0.36
   1   8  -7    0.33    0.35
   1   8  -7    0.94    0.46
  -1   8   7    0.92    0.38
  -1   8   7    0.21    0.39
  -1   8   7    0.45    0.42
   1   8  -7    0.75    0.52
   0  -8  -7   11.67    0.96
   0  -8  -7   12.98    1.15
   0  -8   7   10.82    0.93
   0  -8   7   12.39    1.27
   0   8   7   11.69    1.02
   0   8  -7    9.33    1.03
   0   8  -7   12.97    1.34
   0   8   7   10.41    1.17
   1  -8   7   12.09    1.26
  -1  -8  -7    9.03    0.92
  -1  -8  -7    8.85    1.12
   1   8   7   11.87    1.29
   1   8   7    9.68    1.10
  -1   8  -7   11.00    1.15
  -1   8  -7    9.81    1.13
  -2  -8  -7    3.46    0.77
   2   8   7    3.92    0.81
  -2   8  -7    4.00    0.79
   2   8   7    2.37    0.71
  -2   8  -7    4.45    0.78
   3  -8   7    6.72    1.00
  -3  -8  -7    7.45    1.17
  -3   8  -7    6.06    0.91
  -3   8  -7    7.04    1.05
   3   8   7    6.05    1.05
   3   8   7    7.75    1.08
   5  -9  -7    2.46    0.83
  -5  -9   7    2.64    1.19
   5  -9  -7    2.29    0.61
  -5  -9   7    3.35    0.76
   5   9  -7    2.49    0.67
   5   9  -7    3.21    0.84
  -5   9   7    3.37    0.56
  -5   9   7    2.96    0.80
  -4  -9   7    7.76    1.07
  -4  -9   7    7.27    0.95
   4  -9  -7    8.66    1.02
  -4  -9   7   10.05    1.01
   4  -9  -7    6.19    1.06
  -4   9   7    6.21    0.96
   4   9  -7    7.51    0.87
  -4   9   7    7.12    0.82
   4   9  -7    5.82    0.86
  -4   9   7    4.45    0.70
   4   9  -7    5.98    0.98
   3  -9  -7   17.55    1.17
  -3  -9   7   17.30    1.19
   3  -9  -7   17.21    1.35
  -3  -9   7   15.78    1.40
  -3  -9   7   17.03    1.38
   3   9  -7   17.47    1.15
  -3   9   7   16.31    1.24
   3   9  -7   19.96    1.48
  -3   9   7   15.83    1.05
   3   9  -7   19.98    1.25
  -3   9   7   17.65    1.17
   2  -9  -7    4.37    0.70
  -2  -9   7    4.26    0.80
   2  -9  -7    4.95    0.86
  -2  -9   7    4.46    0.76
   2   9  -7    5.20    0.92
  -2   9   7    4.09    0.71
   2   9  -7    5.60    0.83
   2   9  -7    4.81    0.72
  -2   9   7    3.49    0.71
  -2   9   7    4.74    0.66
  -1  -9   7   11.66    1.27
   1  -9  -7   10.13    1.10
  -1  -9   7   10.89    0.96
   1  -9  -7    8.97    1.02
  -1   9   7   12.28    1.10
   1   9  -7   10.44    1.17
   1   9  -7   11.82    1.04
  -1   9   7   10.98    1.17
  -1   9   7   10.54    0.83
   1   9  -7    9.22    0.95
   0  -9  -7   -0.30    0.41
   0  -9  -7    0.42    0.44
   0  -9   7   -0.20    0.33
   0  -9   7   -0.17    0.37
   0   9  -7   -0.31    0.35
   0   9   7    0.80    0.52
   0   9  -7    0.08    0.42
   0   9   7    0.11    0.36
  -1  -9  -7    1.68    0.63
  -1  -9  -7    0.91    0.49
   1  -9   7    0.93    0.54
   1   9   7    1.18    0.54
  -1   9  -7    0.64    0.49
  -1   9  -7    0.91    0.53
   1   9   7    1.22    0.57
  -2  -9  -7    1.09    0.62
  -2   9  -7    2.16    0.60
  -2   9  -7    1.77    0.68
   2   9   7    1.31    0.62
   2   9   7    2.40    0.73
  -3  -9  -7    2.47    0.80
   3  -9   7    1.09    0.63
   3   9   7    1.68    0.70
  -3   9  -7    2.02    0.71
   3   9   7    2.44    0.76
  -3   9  -7    1.45    0.57
  -5 -10   7    7.25    1.02
   5 -10  -7    6.38    1.09
   5 -10  -7    8.33    1.03
   5  10  -7    6.56    0.95
   5  10  -7    7.69    1.23
   4 -10  -7    0.03    0.51
  -4 -10   7   -0.23    0.41
   4 -10  -7    1.42    0.53
  -4 -10   7    0.21    0.51
  -4  10   7    0.65    0.53
   4  10  -7    0.84    0.61
   4  10  -7    0.57    0.42
  -4  10   7    0.81    0.44
  -3 -10   7    7.28    0.94
   3 -10  -7    4.72    0.94
  -3 -10   7    4.95    0.93
   3 -10  -7    4.80    0.78
   3  10  -7    5.17    0.95
   3  10  -7    4.53    0.74
   3  10  -7    5.67    0.82
  -3  10   7    5.21    0.81
  -3  10   7    3.52    0.73
   2 -10  -7    5.10    0.91
  -2 -10   7    5.32    0.92
  -2 -10   7    7.48    0.94
   2 -10  -7    5.23    0.75
  -2  10   7    4.77    0.80
  -2  10   7    5.34    0.90
   2  10  -7    7.29    0.97
   2  10  -7    6.13    0.82
  -2  10   7    5.03    0.71
   2  10  -7    4.91    0.86
   1 -10  -7    5.44    0.88
  -1 -10   7    5.51    0.91
  -1 -10   7    5.29    0.79
   1 -10  -7    6.00    0.80
   1 -10  -7    4.83    0.81
   1  10  -7    6.19    0.79
   1  10  -7    5.99    0.97
  -1  10   7    7.54    0.99
   1  10  -7    5.84    0.91
  -1  10   7    6.01    0.94
   0 -10  -7   14.29    1.26
   0 -10  -7   13.23    1.13
   0 -10   7   11.07    1.24
   0 -10   7   10.25    1.03
   0  10   7   14.18    1.19
   0  10  -7   13.48    1.19
   0  10  -7   10.26    1.16
   0  10   7   11.77    1.29
  -1 -10  -7   14.85    1.16
  -1 -10  -7   15.07    1.57
   1  10   7   14.65    1.25
   1  10   7   14.10    1.51
  -1  10  -7   15.41    1.32
  -1  10  -7   15.10    1.30
  -2 -10  -7    4.89    1.02
  -2  10  -7    5.12    0.86
   2  10   7    5.41    1.05
   2  10   7    6.60    1.03
  -2  10  -7    3.99    0.84
   3  10   7    1.38    0.70
   4 -11  -7    4.33    0.80
  -4 -11   7    4.29    0.80
   4 -11  -7    3.70    0.90
  -4 -11   7    5.27    1.02
   4  11  -7    3.53    0.71
   4  11  -7    3.94    0.93
  -4  11   7    3.88    0.67
  -4  11   7    5.11    1.13
   3 -11  -7   15.42    1.09
  -3 -11   7   16.28    1.44
   3 -11  -7   16.02    1.36
  -3 -11   7   16.48    1.21
  -3  11   7   15.89    1.20
   3  11  -7   15.26    1.43
  -3  11   7   16.41    1.32
   3  11  -7   15.68    1.18
   3  11  -7   16.66    1.13
   2 -11  -7   23.51    1.29
   2 -11  -7   22.30    1.54
  -2 -11   7   23.76    1.40
  -2 -11   7   21.93    1.61
  -2  11   7   23.58    1.53
   2  11  -7   23.14    1.28
   2  11  -7   25.80    1.74
   2  11  -7   23.97    1.46
  -2  11   7   26.68    1.55
  -1 -11   7    6.24    0.99
   1 -11  -7    9.92    1.19
   1 -11  -7    6.79    0.86
  -1 -11   7    5.87    0.82
  -1  11   7    7.46    1.07
   1  11  -7    8.16    1.05
   1  11  -7    7.75    1.08
   1  11  -7    8.96    0.93
  -1  11   7    8.85    1.15
   0 -11  -7    2.17    0.65
   0 -11   7    1.61    0.65
   0 -11  -7    1.46    0.60
   0  11   7    2.45    0.74
   0  11   7    1.57    0.62
   0  11  -7    1.69    0.66
   0  11  -7    1.57    0.61
   0  11  -7    2.30    0.56
  -1 -11  -7    9.57    1.13
  -1 -11  -7    9.11    1.23
  -1  11  -7   11.58    1.37
  -1  11  -7   11.39    1.32
   1  11   7    9.05    1.23
   1  11   7    9.40    1.24
  -2 -11  -7    2.70    0.78
   2  11   7    2.46    0.83
  -2  11  -7    2.35    0.81
  -3 -12   7    6.96    1.10
  -3 -12   7    8.14    0.99
   3 -12  -7    8.66    1.26
   3  12  -7    8.37    1.07
  -3  12   7    7.79    1.18
   3  12  -7    8.54    1.20
  -3  12   7    9.72    1.09
   2 -12  -7    1.00    0.63
  -2 -12   7    2.58    0.65
  -2 -12   7    1.60    0.68
  -2  12   7    2.71    0.67
   2  12  -7    3.53    0.76
  -2  12   7    1.53    0.62
   2  12  -7    2.07    0.70
  -1 -12   7    6.40    0.86
   1 -12  -7    5.38    0.93
  -1 -12   7    5.73    0.93
   1  12  -7    5.89    1.01
  -1  12   7    7.44    1.10
   1  12  -7    5.62    0.91
  -1  12   7    6.72    1.02
   0 -12   7   16.98    2.49
   0 -12   7   14.29    1.20
   0 -12  -7   15.70    1.42
   0 -12  -7   14.16    1.29
   0  12  -7   15.71    1.37
   0  12   7   15.14    1.40
   0  12   7   10.49    1.24
   0  12  -7   17.33    1.72
  -1 -12  -7   15.24    1.61
  -1 -12  -7   14.58    1.29
   1  12   7   11.40    1.87
   2 -13  -7    3.02    0.85
  -2 -13   7    2.80    0.84
   2  13  -7    2.63    0.72
  -2  13   7    3.26    0.93
   1 -13  -7    1.61    0.71
  -1 -13   7    0.98    0.64
   1  13  -7    0.84    0.57
   0 -13  -7    6.94    1.10
   0 -13   7    5.00    0.89
  -6   0   8    0.03    0.48
  -6   0   8   -0.14    0.34
   6   0  -8   -0.33    0.39
  -6   0   8    0.42    0.47
  -5   0   8   20.31    1.35
  -5   0   8   21.38    1.34
  -5   0   8   20.75    1.44
   5   0  -8   20.89    1.44
  -4   0   8   15.00    1.08
   4   0  -8   14.93    1.14
  -4   0   8   13.77    1.16
   4   0  -8   14.30    1.15
  -4   0   8   15.09    1.14
  -3   0   8    0.99    0.46
  -3   0   8    0.81    0.39
  -3   0   8    0.67    0.41
   3   0  -8    0.83    0.39
   3   0  -8    0.41    0.43
   3   0  -8    0.63    0.45
   2   0  -8   12.31    1.00
  -2   0   8   11.99    0.90
   2   0  -8   11.67    1.04
   2   0  -8   11.84    0.99
  -2   0   8   11.88    1.04
  -2   0   8    8.45    0.93
  -1   0   8   47.10    2.02
   1   0  -8   50.20    2.07
   1   0  -8   49.27    1.98
  -1   0   8   49.12    1.75
  -1   0   8   46.52    1.94
   0   0  -8   11.99    1.22
   0   0   8   10.27    0.80
   0   0   8   10.45    1.10
   0   0  -8   10.80    1.09
   0   0   8   10.26    1.05
   1   0   8    2.45    0.59
  -1   0  -8    2.81    0.70
   1   0   8    3.02    0.53
  -1   0  -8    2.87    0.64
  -2   0  -8   -0.08    0.43
   2   0   8    0.62    0.33
   2   0   8    0.07    0.43
  -2   0  -8    0.88    0.48
  -3   0  -8    5.69    0.90
   3   0   8    6.45    1.04
  -3   0  -8    6.20    1.03
   4   0   8    1.96    0.67
  -4   0  -8    1.87    0.70
  -6  -1   8    7.07    1.27
  -6  -1   8    7.19    1.06
  -6  -1   8    9.96    1.14
   6  -1  -8    9.35    1.24
   6   1  -8    8.44    1.10
  -6   1   8   10.05    0.94
  -6   1   8    8.52    1.18
  -6   1   8    9.44    1.28
   5  -1  -8    9.34    1.12
   5  -1  -8   11.40    1.32
  -5  -1   8    9.25    1.02
  -5  -1   8   11.41    1.19
  -5  -1   8   10.48    1.19
  -5   1   8   13.03    1.36
   5   1  -8   11.16    1.28
  -5   1   8   11.62    1.01
  -5   1   8   10.55    1.20
   4  -1  -8   21.03    1.40
  -4  -1   8   19.81    1.31
  -4  -1   8   21.55    1.29
  -4  -1   8   19.87    1.34
   4  -1  -8   20.63    1.37
  -4   1   8   21.55    1.37
   4   1  -8   20.76    1.36
   4   1  -8   19.56    1.35
  -4   1   8   22.13    1.32
  -4   1   8   19.71    1.28
   3  -1  -8    2.59    0.58
   3  -1  -8    4.02    0.72
  -3  -1   8    4.20    0.67
   3  -1  -8    2.21    0.58
  -3  -1   8    3.48    0.72
  -3  -1   8    3.03    0.65
  -3   1   8    3.26    0.64
  -3   1   8    4.02    0.67
  -3   1   8    2.27    0.54
   3   1  -8    3.63    0.70
   3   1  -8    3.81    0.73
   2  -1  -8    7.90    0.90
  -2  -1   8    5.90    0.72
  -2  -1   8    6.23    0.84
   2  -1  -8    5.75    0.81
  -2  -1   8    7.32    0.92
   2  -1  -8    6.84    0.90
  -2   1   8    7.22    0.87
   2   1  -8    5.26    0.75
   2   1  -8    7.91    0.96
  -2   1   8    6.70    0.81
   2   1  -8    7.30    0.91
  -2   1   8    8.11    0.97
  -1  -1   8   16.34    0.96
   1  -1  -8   14.41    1.10
   1  -1  -8   15.29    0.94
  -1  -1   8   16.53    1.15
  -1  -1   8   14.26    1.16
   1  -1  -8   17.28    1.24
  -1   1   8   15.34    1.00
   1   1  -8   14.93    1.18
  -1   1   8   15.55    1.20
  -1   1   8   16.54    1.13
   1   1  -8   15.19    1.13
   0  -1   8    5.64    0.92
   0  -1   8    4.00    0.73
   0  -1  -8    2.62    0.62
   0  -1   8    2.69    0.50
   0  -1  -8    2.45    0.58
   0   1   8    2.40    0.61
   0   1   8    2.09    0.55
   0   1  -8    3.22    0.73
   0   1   8    3.46    0.57
   0   1  -8    1.87    0.54
  -1  -1  -8   10.00    1.18
  -1  -1  -8    7.62    0.98
   1  -1   8    8.17    0.70
   1  -1   8   10.65    1.20
   1   1   8    8.71    1.11
   1   1   8    7.74    0.84
  -1   1  -8    6.76    0.97
  -1   1  -8    9.95    1.11
  -2  -1  -8    3.26    0.71
   2  -1   8    3.74    0.57
  -2  -1  -8    4.08    0.82
   2  -1   8    3.99    0.77
   2   1   8    3.82    0.62
  -2   1  -8    6.52    1.02
  -2   1  -8    3.98    0.76
   2   1   8    3.74    0.78
  -3  -1  -8    1.70    0.65
  -3  -1  -8    1.66    0.61
   3  -1   8    2.91    1.00
   3  -1   8    1.44    0.55
  -3   1  -8    2.18    0.64
   3   1   8    2.53    0.59
  -3   1  -8    0.59    0.53
   3   1   8    1.32    0.61
  -4  -1  -8   -0.09    0.43
   4  -1   8    0.15    0.59
  -4   1  -8    0.24    0.52
   4   1   8    0.21    0.60
  -6  -2   8    4.17    0.78
   6  -2  -8    2.46    0.72
  -6  -2   8    4.23    0.82
   6  -2  -8    3.81    0.89
  -6   2   8    3.76    0.82
  -6   2   8    4.31    0.70
   6   2  -8    4.21    0.90
   5  -2  -8    7.43    0.99
  -5  -2   8    8.16    1.00
   5  -2  -8    6.68    1.03
  -5  -2   8    6.25    0.95
  -5  -2   8    8.12    1.03
  -5   2   8    8.36    1.11
  -5   2   8    9.29    0.98
   5   2  -8    6.18    0.93
  -5   2   8   10.16    1.19
   4  -2  -8   14.39    1.17
  -4  -2   8   16.73    1.12
   4  -2  -8   14.60    1.23
  -4  -2   8   16.34    1.20
  -4  -2   8   16.68    1.24
   4   2  -8   16.52    1.23
   4   2  -8   20.74    1.36
  -4   2   8   17.58    1.24
  -4   2   8   16.98    1.18
  -4   2   8   15.97    1.13
  -3  -2   8   11.29    0.89
  -3  -2   8   12.56    1.07
  -3  -2   8   11.32    1.01
   3  -2  -8   10.88    1.00
   3  -2  -8   11.80    1.00
   3  -2  -8   10.91    1.14
   3   2  -8   12.10    1.08
  -3   2   8   12.25    1.01
  -3   2   8   13.35    1.05
   3   2  -8   14.00    1.04
  -3   2   8   12.47    0.99
   3   2  -8   12.54    0.99
  -2  -2   8   11.55    1.00
   2  -2  -8   11.41    0.98
   2  -2  -8   12.37    0.97
  -2  -2   8   12.10    0.84
  -2  -2   8   11.55    1.05
   2  -2  -8   10.57    1.00
  -2   2   8   13.27    0.96
   2   2  -8   12.49    1.00
  -2   2   8   12.09    1.03
   2   2  -8   12.30    1.00
  -2   2   8   10.87    0.95
   2   2  -8   13.01    1.11
  -1  -2   8    8.15    0.95
   1  -2  -8    8.82    1.04
  -1  -2   8    8.42    0.70
  -1  -2   8    9.24    1.12
   1  -2  -8    8.55    0.86
  -1   2   8   10.11    1.07
   1   2  -8    6.68    0.85
   1   2  -8   10.14    1.17
  -1   2   8   10.47    0.86
  -1   2   8   10.03    1.12
   0  -2   8    3.72    0.69
   0  -2   8    2.89    0.45
   0  -2  -8    3.84    0.69
   0  -2  -8    2.95    0.64
   0  -2   8    3.43    0.70
   0   2   8    4.50    0.73
   0   2  -8    3.57    0.68
   0   2  -8    3.58    0.72
   0   2   8    4.08    0.70
   0   2   8    4.29    0.66
   1  -2   8    9.46    1.08
   1  -2   8    8.28    0.65
  -1  -2  -8    7.09    0.97
  -1  -2  -8    7.31    0.94
  -1   2  -8    8.18    0.99
  -1   2  -8    6.86    1.01
   1   2   8    6.85    0.93
   1   2   8    8.06    0.89
  -2  -2  -8    4.79    0.80
  -2  -2  -8    3.02    0.72
   2  -2   8    2.72    0.68
   2   2   8    2.69    0.67
   2   2   8    3.21    0.61
  -2   2  -8    3.84    0.76
  -2   2  -8    4.69    0.85
   3  -2   8    2.36    0.65
  -3  -2  -8    2.20    0.62
  -3  -2  -8    2.87    0.79
  -3   2  -8    2.61    0.74
  -3   2  -8    1.91    0.63
   3   2   8    3.09    0.78
   3   2   8    1.89    0.59
  -4  -2  -8    3.61    0.84
   4  -2   8    4.65    0.92
  -4   2  -8    4.33    0.89
   6  -3  -8    1.20    0.64
   6  -3  -8    0.28    0.46
  -6  -3   8    0.93    0.50
  -6  -3   8    1.38    0.57
  -6   3   8    0.95    0.42
  -6   3   8    0.34    0.51
   6   3  -8    1.12    0.60
  -5  -3   8    6.25    0.93
  -5  -3   8    6.55    1.00
   5  -3  -8    5.54    1.04
   5  -3  -8    7.06    1.02
  -5  -3   8    8.67    1.12
  -5   3   8    5.49    0.87
   5   3  -8    6.47    1.00
  -5   3   8    5.29    0.87
  -5   3   8    7.30    0.91
  -4  -3   8    1.72    0.55
   4  -3  -8    1.74    0.53
  -4  -3   8    1.85    0.58
  -4  -3   8    2.38    0.58
   4  -3  -8    0.68    0.58
  -4   3   8    2.11    0.61
   4   3  -8    2.02    0.61
   4   3  -8    2.27    0.63
  -4   3   8    2.18    0.56
  -4   3   8    1.47    0.53
  -3  -3   8    3.15    0.59
   3  -3  -8    2.60    0.61
  -3  -3   8    3.16    0.67
   3  -3  -8    2.86    0.66
  -3  -3   8    1.69    0.55
   3  -3  -8    2.15    0.55
   3   3  -8    2.89    0.64
  -3   3   8    3.21    0.64
  -3   3   8    3.10    0.65
   3   3  -8    2.59    0.59
   3   3  -8    1.97    0.58
  -3   3   8    2.95    0.63
  -2  -3   8    9.27    1.11
   2  -3  -8    6.54    0.86
  -2  -3   8    8.16    0.69
   2  -3  -8    7.41    0.88
  -2  -3   8   10.30    1.08
   2  -3  -8    8.13    0.97
   2   3  -8    9.15    1.05
  -2   3   8    9.75    1.04
   2   3  -8    9.93    1.14
  -2   3   8   10.23    1.04
  -2   3   8    7.53    0.91
   2   3  -8    9.24    1.06
  -1  -3   8   13.09    0.79
  -1  -3   8   13.17    1.15
   1  -3  -8   13.12    0.92
   1  -3  -8   13.45    1.11
  -1  -3   8   15.02    1.11
  -1   3   8   14.21    1.11
  -1   3   8   12.24    1.00
  -1   3   8   13.54    0.98
   1   3  -8   12.80    1.05
   1   3  -8   13.94    1.15
   0  -3  -8   14.88    1.36
   0  -3   8   13.65    1.09
   0  -3   8   15.05    1.21
   0  -3  -8   14.96    1.22
   0  -3   8   15.47    0.81
   0   3  -8   13.49    1.16
   0   3   8   15.06    1.11
   0   3   8   13.03    0.99
   0   3   8   14.26    1.19
   0   3  -8   13.40    1.08
   1  -3   8    3.89    0.73
  -1  -3  -8    4.00    0.74
   1   3   8    5.00    0.75
   1   3   8    3.52    0.72
  -1   3  -8    4.96    0.86
  -1   3  -8    3.44    0.73
   2  -3   8    1.43    0.59
  -2  -3  -8    1.76    0.63
   2  -3   8    0.94    0.45
   2   3   8    0.64    0.50
  -2   3  -8    1.18    0.55
   2   3   8    1.12    0.50
  -2   3  -8    1.05    0.59
  -3  -3  -8    2.84    0.84
   3  -3   8    3.28    0.72
   3   3   8    2.12    0.74
  -3   3  -8    1.53    0.64
  -3   3  -8    3.73    0.86
   3   3   8    3.91    0.74
   6  -4  -8    5.81    1.04
  -6  -4   8    6.10    0.97
   6  -4  -8    6.98    1.11
  -6   4   8    6.58    1.05
  -6   4   8    6.18    0.78
   6   4  -8    5.71    0.94
   5  -4  -8    3.70    0.78
  -5  -4   8    3.95    0.81
   5  -4  -8    4.82    0.98
  -5  -4   8    2.76    0.67
  -5  -4   8    4.47    0.87
  -5   4   8    3.84    0.81
  -5   4   8    3.51    0.65
  -5   4   8    4.54    0.84
   5   4  -8    4.21    0.86
   4  -4  -8   16.38    1.24
  -4  -4   8   16.16    1.26
  -4  -4   8   16.35    1.09
   4  -4  -8   16.08    1.30
  -4  -4   8   13.10    1.15
  -4   4   8   15.37    1.17
   4   4  -8   15.26    1.20
   4   4  -8   15.30    1.27
  -4   4   8   16.19    1.18
  -4   4   8   14.48    1.07
  -3  -4   8   10.27    1.14
  -3  -4   8    9.55    0.81
  -3  -4   8    8.20    0.97
   3  -4  -8    9.92    1.04
   3  -4  -8    8.15    1.02
   3  -4  -8    9.72    1.07
   3   4  -8    9.51    1.06
  -3   4   8   11.80    1.19
   3   4  -8    7.25    0.91
   3   4  -8    9.29    1.04
  -3   4   8   11.42    0.99
  -3   4   8   10.12    0.94
  -2  -4   8   13.69    1.09
  -2  -4   8   14.53    0.88
  -2  -4   8   15.34    1.21
   2  -4  -8   14.75    1.10
   2  -4  -8   14.25    1.04
   2  -4  -8   15.10    1.14
   2   4  -8   17.34    1.17
   2   4  -8   16.70    1.27
  -2   4   8   17.70    1.15
   2   4  -8   16.33    1.13
  -2   4   8   14.84    1.07
  -2   4   8   14.09    1.11
  -1  -4   8    7.20    0.59
   1  -4  -8    5.45    0.79
  -1  -4   8    5.42    0.84
   1  -4  -8    6.49    0.78
  -1  -4   8    7.67    0.96
   1   4  -8    7.48    0.91
  -1   4   8    6.50    0.86
  -1   4   8    7.26    0.90
   1   4  -8    6.83    0.92
  -1   4   8    7.50    0.90
   0  -4   8    3.71    0.73
   0  -4  -8    3.56    0.57
   0  -4  -8    2.82    0.66
   0  -4   8    4.49    0.84
   0  -4   8    2.64    0.45
   0   4   8    2.93    0.64
   0   4   8    2.95    0.60
   0   4  -8    3.35    0.72
   0   4   8    2.93    0.64
   0   4  -8    2.98    0.70
  -1  -4  -8    2.37    0.72
   1  -4   8    2.19    0.59
  -1   4  -8    2.49    0.68
  -1   4  -8    2.14    0.61
   1   4   8    1.84    0.55
   1   4   8    3.42    0.79
   2  -4   8   10.13    1.21
   2  -4   8    9.84    1.00
  -2  -4  -8    7.80    1.11
  -2   4  -8    7.02    0.97
   2   4   8    9.17    1.06
  -2   4  -8    9.88    1.17
   2   4   8    9.68    1.22
  -3  -4  -8    5.29    1.04
   3  -4   8    5.34    0.86
  -3   4  -8    4.67    0.90
   3   4   8    5.65    0.90
  -3   4  -8    4.26    0.85
   3   4   8    4.06    0.93
  -6  -5   8    3.96    0.82
   6  -5  -8    3.36    0.84
   6  -5  -8    3.87    0.96
  -6   5   8    3.45    0.62
   6   5  -8    3.87    0.80
  -6   5   8    2.95    0.75
  -5  -5   8    3.91    0.89
   5  -5  -8    4.81    0.98
  -5  -5   8    3.91    0.75
   5  -5  -8    4.11    0.82
  -5  -5   8    4.32    0.90
  -5   5   8    3.57    0.79
   5   5  -8    2.96    0.72
  -5   5   8    4.87    0.73
  -5   5   8    4.40    0.83
   4  -5  -8    0.47    0.53
  -4  -5   8    0.67    0.46
  -4  -5   8    0.27    0.39
  -4  -5   8    0.13    0.34
   4  -5  -8    0.08    0.41
  -4   5   8    0.46    0.42
  -4   5   8    0.48    0.36
   4   5  -8    0.30    0.45
  -4   5   8    0.63    0.41
   4   5  -8    0.39    0.40
   4   5  -8    0.84    0.51
  -3  -5   8    1.53    0.43
  -3  -5   8    1.35    0.51
   3  -5  -8    1.12    0.51
  -3  -5   8    0.94    0.51
   3  -5  -8    1.45    0.54
   3   5  -8    2.00    0.58
  -3   5   8    1.24    0.44
  -3   5   8    1.81    0.56
   3   5  -8    0.84    0.49
  -3   5   8    1.75    0.51
   3   5  -8    1.08    0.52
  -2  -5   8   12.15    1.04
   2  -5  -8    9.67    1.07
   2  -5  -8   11.07    0.97
  -2  -5   8   10.24    0.73
   2  -5  -8   10.57    0.97
  -2  -5   8   12.08    1.11
  -2   5   8    8.21    0.95
   2   5  -8   10.66    1.23
   2   5  -8    9.60    1.04
  -2   5   8   11.27    1.03
   2   5  -8    9.05    1.00
  -2   5   8   11.21    0.97
  -1  -5   8    2.67    0.60
   1  -5  -8    2.14    0.65
  -1  -5   8    2.13    0.64
   1  -5  -8    1.14    0.45
  -1  -5   8    2.37    0.40
  -1   5   8    2.64    0.65
   1   5  -8    1.87    0.55
   1   5  -8    3.16    0.74
  -1   5   8    2.64    0.60
  -1   5   8    1.66    0.53
   0  -5  -8   21.88    1.14
   0  -5   8   23.30    1.50
   0  -5  -8   21.18    1.46
   0   5   8   22.83    1.48
   0   5  -8   21.70    1.44
   0   5   8   24.36    1.38
   0   5  -8   20.23    1.37
   0   5   8   22.71    1.33
  -1  -5  -8    2.61    0.69
   1  -5   8    1.81    0.60
  -1   5  -8    3.50    0.76
   1   5   8    2.81    0.69
   1   5   8    2.44    0.62
  -1   5  -8    3.69    0.83
   2  -5   8    1.79    0.55
   2  -5   8    1.92    0.62
  -2  -5  -8    1.08    0.56
   2   5   8    0.97    0.59
  -2   5  -8    1.46    0.60
   2   5   8    0.67    0.50
  -2   5  -8    1.15    0.56
   3  -5   8    5.69    0.92
  -3  -5  -8    6.26    1.10
  -3   5  -8    4.95    0.91
   3   5   8    4.15    0.88
   3   5   8    4.86    0.88
  -3   5  -8    5.70    0.99
  -5  -6   8    7.13    0.94
  -5  -6   8    7.62    1.05
  -5  -6   8    7.56    1.09
   5  -6  -8    9.26    1.20
   5  -6  -8    8.11    1.24
  -5   6   8    8.58    0.92
  -5   6   8    9.78    1.16
   5   6  -8    8.33    1.08
  -5   6   8    9.92    1.21
   4  -6  -8   17.80    1.41
  -4  -6   8   18.91    1.18
  -4  -6   8   16.71    1.28
  -4  -6   8   17.90    1.39
   4  -6  -8   19.06    1.32
   4   6  -8   18.20    1.45
  -4   6   8   16.42    1.16
  -4   6   8   16.90    1.20
   4   6  -8   17.86    1.28
  -4   6   8   19.35    1.37
   4   6  -8   18.62    1.21
  -3  -6   8   20.27    1.43
  -3  -6   8   19.01    1.07
   3  -6  -8   21.17    1.32
  -3  -6   8   20.27    1.33
   3  -6  -8   16.44    1.27
  -3   6   8   19.95    1.28
  -3   6   8   19.09    1.31
   3   6  -8   18.45    1.42
  -3   6   8   20.53    1.25
   3   6  -8   22.89    1.32
   3   6  -8   19.42    1.27
  -2  -6   8    0.26    0.25
   2  -6  -8    0.44    0.46
   2  -6  -8    0.78    0.47
  -2  -6   8    0.72    0.49
   2  -6  -8    1.00    0.51
  -2  -6   8    0.46    0.41
   2   6  -8    0.87    0.52
   2   6  -8    0.57    0.44
   2   6  -8    1.35    0.49
  -2   6   8    0.75    0.42
  -2   6   8    1.17    0.47
  -2   6   8    0.10    0.38
   1  -6  -8    0.64    0.46
  -1  -6   8    0.67    0.49
   1  -6  -8    0.56    0.46
  -1  -6   8    1.13    0.49
   1   6  -8    0.29    0.49
   1   6  -8    1.29    0.52
  -1   6   8    0.73    0.43
  -1   6   8    1.48    0.54
  -1   6   8    0.58    0.42
   0  -6  -8    0.34    0.37
   0  -6   8    0.64    0.48
   0  -6  -8    0.44    0.45
   0  -6   8    0.66    0.45
   0   6  -8    0.47    0.47
   0   6  -8   -0.06    0.45
   0   6   8    0.32    0.43
   0   6   8    0.39    0.42
   1  -6   8    3.51    0.76
  -1  -6  -8    4.58    0.84
   1   6   8    3.73    0.77
   1   6   8    3.19    0.77
  -1   6  -8    2.65    0.70
  -1   6  -8    2.62    0.65
  -2  -6  -8    8.51    1.20
   2  -6   8    8.89    1.03
   2   6   8    9.46    1.11
  -2   6  -8    9.69    1.17
   2   6   8    9.02    1.22
  -2   6  -8   10.68    1.28
   3  -6   8    5.49    0.92
  -3  -6  -8    5.67    1.34
  -3   6  -8    4.96    0.92
   3   6   8    4.79    0.91
   3   6   8    3.59    0.89
  -3   6  -8    3.07    0.88
  -5  -7   8    6.86    1.08
  -5  -7   8    6.11    0.92
   5  -7  -8    4.05    0.87
   5  -7  -8    4.31    0.86
  -5   7   8    5.24    0.74
  -5   7   8    4.30    0.80
   5   7  -8    6.53    1.00
   4  -7  -8    1.48    0.55
  -4  -7   8    1.66    0.50
  -4  -7   8    1.94    0.64
  -4  -7   8    1.92    0.64
   4  -7  -8    2.07    0.73
   4   7  -8    2.16    0.59
   4   7  -8    2.23    0.69
  -4   7   8    1.58    0.61
  -4   7   8    1.49    0.52
  -4   7   8    2.43    0.58
   4   7  -8    1.23    0.55
   3  -7  -8    3.68    0.73
  -3  -7   8    3.93    0.87
   3  -7  -8    3.53    0.78
  -3  -7   8    1.97    0.45
   3   7  -8    2.69    0.81
   3   7  -8    2.12    0.62
  -3   7   8    2.36    0.59
  -3   7   8    2.22    0.55
   3   7  -8    2.00    0.58
  -3   7   8    1.84    0.58
   2  -7  -8   12.16    1.12
   2  -7  -8    9.18    1.01
   2  -7  -8   15.04    1.17
  -2  -7   8   12.59    1.08
  -2  -7   8   11.29    1.22
   2   7  -8   12.94    1.09
   2   7  -8    9.48    1.13
  -2   7   8   10.93    1.15
   2   7  -8   12.39    1.03
  -2   7   8   13.19    1.12
  -2   7   8   12.77    1.01
  -1  -7   8   26.30    1.62
   1  -7  -8   24.21    1.53
   1  -7  -8   27.12    1.45
  -1  -7   8   26.95    1.51
   1   7  -8   26.76    1.67
   1   7  -8   26.33    1.42
  -1   7   8   29.77    1.66
  -1   7   8   28.35    1.44
  -1   7   8   25.75    1.50
   1   7  -8   27.23    1.56
   0  -7  -8   16.48    1.09
   0  -7   8   17.04    1.37
   0  -7   8   15.60    1.20
   0  -7  -8   16.01    1.35
   0   7   8   15.07    1.19
   0   7  -8   15.82    1.34
   0   7   8   16.11    1.35
   0   7  -8   17.95    1.31
  -1  -7  -8    8.63    1.19
   1  -7   8   10.57    1.27
   1   7   8    8.57    1.19
  -1   7  -8    7.70    1.08
   1   7   8    6.29    0.92
  -1   7  -8    9.07    1.22
  -2  -7  -8    4.03    0.95
   2   7   8    3.51    0.82
  -2   7  -8    3.60    0.83
   2   7   8    3.58    0.88
  -2   7  -8    4.38    0.87
   3  -7   8    5.43    0.95
   3   7   8    4.16    0.95
   3   7   8    5.19    0.93
  -5  -8   8   10.11    1.18
   5  -8  -8    7.78    1.03
  -5  -8   8    9.99    1.34
   5  -8  -8    6.26    1.13
  -5   8   8    8.29    0.89
   5   8  -8    8.63    1.15
  -5   8   8    8.07    1.03
  -4  -8   8    3.97    0.88
  -4  -8   8    3.22    0.78
   4  -8  -8    2.25    0.83
  -4  -8   8    2.43    0.66
   4  -8  -8    3.18    0.70
  -4   8   8    2.77    0.63
   4   8  -8    4.49    0.98
   4   8  -8    3.54    0.73
   4   8  -8    2.44    0.60
  -4   8   8    1.66    0.64
  -4   8   8    2.28    0.61
  -3  -8   8   15.50    1.23
   3  -8  -8   12.72    1.10
   3  -8  -8   13.78    1.26
  -3  -8   8   12.81    1.42
   3   8  -8   11.62    1.20
   3   8  -8   11.39    1.18
   3   8  -8   15.10    1.37
  -3   8   8   13.43    1.13
  -3   8   8   11.95    1.32
  -3   8   8   11.63    0.99
   2  -8  -8    3.07    0.65
   2  -8  -8    5.30    0.85
  -2  -8   8    6.28    0.94
  -2  -8   8    3.85    0.77
   2   8  -8    3.19    0.77
   2   8  -8    4.01    0.76
   2   8  -8    4.82    0.74
  -2   8   8    4.72    0.86
  -2   8   8    4.60    0.73
  -2   8   8    5.47    0.91
   1  -8  -8    0.84    0.53
  -1  -8   8    0.78    0.53
   1  -8  -8    0.60    0.53
  -1  -8   8    0.52    0.47
   1   8  -8    0.43    0.42
  -1   8   8    0.26    0.46
  -1   8   8    0.77    0.46
   1   8  -8    0.28    0.47
   1   8  -8    0.91    0.53
  -1   8   8    0.29    0.39
   0  -8  -8    3.50    0.68
   0  -8   8    3.77    0.79
   0  -8  -8    3.01    0.75
   0  -8   8    3.82    0.75
   0   8  -8    4.01    0.82
   0   8  -8    3.52    0.76
   0   8   8    3.48    0.77
   0   8   8    4.07    0.77
   1  -8   8    8.18    1.14
  -1  -8  -8    5.99    1.01
  -1   8  -8    6.76    1.09
   1   8   8    5.61    0.99
   1   8   8    4.24    0.83
  -1   8  -8    8.02    1.14
  -2  -8  -8    7.16    1.12
  -2   8  -8    7.30    1.12
  -2   8  -8    7.82    1.11
   2   8   8    6.53    0.99
   2   8   8    8.61    1.22
  -4  -9   8    1.20    0.57
  -4  -9   8    1.08    0.57
   4  -9  -8    0.90    0.68
   4  -9  -8    1.44    0.59
  -4   9   8    1.55    0.78
   4   9  -8    1.18    0.54
   4   9  -8    0.95    0.51
  -4   9   8    0.50    0.43
   4   9  -8    0.65    0.56
  -3  -9   8    4.84    0.82
   3  -9  -8    4.30    0.89
  -3  -9   8    3.73    0.78
   3  -9  -8    4.49    0.82
  -3   9   8    4.49    0.73
   3   9  -8    5.48    0.88
   3   9  -8    6.25    0.89
   3   9  -8    3.67    0.83
  -3   9   8    3.20    0.73
  -3   9   8    4.70    0.81
  -2  -9   8   11.12    1.33
  -2  -9   8   12.72    1.14
   2  -9  -8   12.62    1.17
   2  -9  -8   11.40    1.17
   2   9  -8   10.39    1.11
   2   9  -8   11.50    1.23
  -2   9   8   11.65    0.97
  -2   9   8   12.71    1.18
  -2   9   8   10.55    1.25
   2   9  -8   10.89    1.37
   1  -9  -8   10.26    1.17
   1  -9  -8   12.22    1.04
  -1  -9   8   12.57    1.10
   1  -9  -8   11.57    1.25
  -1  -9   8   12.95    1.47
  -1   9   8   10.75    1.17
   1   9  -8   13.61    1.19
  -1   9   8   11.85    0.99
  -1   9   8   11.01    1.23
   1   9  -8   11.79    1.02
   1   9  -8   12.66    1.43
   0  -9   8   10.34    1.17
   0  -9  -8   10.34    1.24
   0  -9   8   10.58    1.13
   0  -9  -8   11.25    1.16
   0   9  -8   15.50    1.55
   0   9  -8   13.47    1.41
   0   9   8   12.89    1.35
   0   9   8   14.71    1.36
  -1  -9  -8    5.80    1.07
  -1   9  -8    5.21    1.00
   1   9   8    5.32    0.91
  -1   9  -8    5.18    0.98
   1   9   8    6.50    1.10
  -2  -9  -8    1.68    0.67
   2   9   8    2.22    0.79
   4 -10  -8    4.95    1.07
   4 -10  -8    6.18    0.95
  -4 -10   8    4.52    0.86
  -4  10   8    5.01    0.82
   4  10  -8    6.91    0.98
   4  10  -8    7.43    1.21
   3 -10  -8    8.29    1.17
  -3 -10   8    9.08    1.11
   3 -10  -8    8.72    1.06
  -3 -10   8    9.51    1.27
   3  10  -8    8.72    1.07
  -3  10   8    8.61    1.09
  -3  10   8    8.98    1.26
   3  10  -8    6.61    0.93
   3  10  -8    9.05    1.30
   2 -10  -8    6.72    1.04
  -2 -10   8    6.65    1.05
  -2 -10   8    6.64    0.96
   2 -10  -8    7.33    0.94
   2  10  -8    5.23    0.83
   2  10  -8    5.34    0.89
  -2  10   8    4.77    0.86
  -2  10   8    8.52    1.10
   2  10  -8    5.83    0.99
  -1 -10   8    7.66    1.08
   1 -10  -8    7.37    0.94
  -1 -10   8    6.67    0.92
   1 -10  -8    7.88    1.08
   1  10  -8    7.44    0.93
   1  10  -8    8.16    1.17
  -1  10   8    8.17    1.13
   1  10  -8    7.35    1.05
   0 -10  -8    0.25    0.56
   0 -10   8    0.13    0.45
   0 -10  -8   -0.09    0.48
   0 -10   8    1.06    0.62
   0  10   8   -0.24    0.51
   0  10  -8    0.13    0.50
   0  10   8   -0.09    0.47
   0  10  -8    0.04    0.51
  -1 -10  -8    0.48    0.57
   1  10   8    0.82    0.66
   1  10   8    0.37    0.67
   3 -11  -8    0.68    0.52
  -3 -11   8    0.91    0.62
   3 -11  -8    0.69    0.68
  -3 -11   8    0.53    0.52
  -3  11   8    0.53    0.53
   3  11  -8    0.69    0.48
   3  11  -8    1.07    0.68
   3  11  -8    0.91    0.57
   2 -11  -8    2.37    0.65
  -2 -11   8    3.11    0.73
  -2 -11   8    2.08    0.72
   2 -11  -8    1.36    0.68
   2  11  -8    3.72    0.83
  -2  11   8    3.50    0.81
   2  11  -8    2.00    0.79
   2  11  -8    2.31    0.63
   1 -11  -8    3.44    0.72
  -1 -11   8    3.11    0.70
  -1 -11   8    2.99    0.80
   1 -11  -8    2.68    0.75
  -1  11   8    2.27    0.93
   1  11  -8    3.39    0.87
   1  11  -8    3.40    0.70
  -1  11   8    2.77    0.85
   0 -11  -8    2.83    0.85
   0 -11   8    3.43    1.22
   0 -11  -8    3.44    0.81
   0  11  -8    3.99    1.45
   0  11  -8    2.14    0.64
  -1 -11  -8   -0.13    0.56
   2  12  -8    4.13    0.86
   1 -12  -8    5.21    1.26
  -1 -12   8    5.50    1.06
  -1 -12   8    3.48    0.88
   1 -12  -8    4.59    0.96
  -5   0   9    4.91    0.83
  -5   0   9    4.82    0.95
   5   0  -9    3.66    0.79
  -5   0   9    5.54    0.95
  -4   0   9    0.81    0.50
   4   0  -9   -0.50    0.37
  -4   0   9   -0.24    0.40
  -4   0   9    0.34    0.42
   3   0  -9    0.83    0.48
  -3   0   9    1.85    0.55
  -3   0   9    1.70    0.62
   3   0  -9    1.41    0.59
  -3   0   9    2.32    0.68
   2   0  -9    6.23    0.91
  -2   0   9    7.99    0.91
   2   0  -9    9.32    1.18
  -2   0   9    9.45    1.13
  -2   0   9    9.51    1.17
  -1   0   9    2.63    0.72
   1   0  -9    2.88    0.75
  -1   0   9    2.03    0.52
   1   0  -9    1.87    0.67
  -1   0   9    2.11    0.66
   0   0   9   18.95    1.34
   0   0  -9   19.64    1.37
   0   0  -9   16.75    1.37
   0   0   9   16.85    1.37
   0   0   9   16.02    1.03
  -1   0  -9    0.03    0.42
   1   0   9    0.32    0.34
   1   0   9    0.27    0.44
  -1   0  -9    0.35    0.54
   2   0   9    4.09    0.81
  -2   0  -9    5.01    0.95
  -2   0  -9    7.28    1.07
  -3   0  -9    1.00    0.61
   5  -1  -9   14.78    1.28
  -5  -1   9   15.77    1.37
  -5  -1   9   15.39    1.30
  -5  -1   9   17.24    1.30
  -5   1   9   17.46    1.28
  -5   1   9   16.45    1.31
   5   1  -9   14.15    1.49
  -5   1   9   16.12    1.38
  -4  -1   9   24.10    1.54
  -4  -1   9   21.12    1.34
   4  -1  -9   20.06    1.45
  -4  -1   9   22.05    1.50
   4  -1  -9   22.93    1.51
  -4   1   9   20.93    1.46
  -4   1   9   19.22    1.32
  -4   1   9   22.57    1.45
   4   1  -9   20.28    1.46
   3  -1  -9    8.33    1.09
   3  -1  -9    8.17    1.08
  -3  -1   9    7.44    0.90
   3  -1  -9    5.04    0.84
  -3  -1   9    7.34    1.00
  -3  -1   9    6.30    0.95
   3   1  -9    7.91    1.08
  -3   1   9    7.11    0.93
  -3   1   9    7.30    0.97
  -3   1   9    8.32    1.07
   3   1  -9    8.22    1.07
   2  -1  -9    2.99    0.70
  -2  -1   9    2.92    0.68
  -2  -1   9    2.80    0.59
  -2  -1   9    3.70    0.76
   2  -1  -9    3.18    0.68
   2  -1  -9    3.02    0.72
   2   1  -9    3.56    0.74
  -2   1   9    3.03    0.72
  -2   1   9    3.39    0.65
   2   1  -9    4.10    0.81
   2   1  -9    2.74    0.68
  -1  -1   9    7.72    0.81
  -1  -1   9    6.66    0.92
   1  -1  -9    7.44    1.01
  -1  -1   9    7.99    1.07
  -1   1   9    7.12    0.97
   1   1  -9    7.51    1.04
  -1   1   9    7.90    0.90
   1   1  -9    8.29    1.02
  -1   1   9    8.00    1.05
   0  -1   9    1.33    0.63
   0  -1   9    0.63    0.36
   0  -1  -9    0.67    0.49
   0  -1   9    0.00    0.42
   0  -1  -9    0.90    0.52
   0   1   9    0.24    0.34
   0   1   9    0.62    0.51
   0   1   9    1.05    0.51
   0   1  -9    0.41    0.51
   0   1  -9    0.01    0.39
  -1  -1  -9    1.35    0.57
   1  -1   9    0.93    0.52
  -1  -1  -9    2.54    0.72
  -1   1  -9    1.07    0.56
  -1   1  -9    1.10    0.56
   1   1   9    1.21    0.48
   1   1   9    2.23    0.67
  -2  -1  -9    0.43    0.53
  -2  -1  -9    0.99    0.61
   2  -1   9    0.90    0.56
  -2   1  -9    0.61    0.57
  -2   1  -9    0.92    0.56
   2   1   9   -0.27    0.41
   2   1   9    0.31    0.51
  -3  -1  -9    2.41    0.76
  -3   1  -9    2.96    0.79
   5  -2  -9    1.64    0.62
  -5  -2   9    1.67    0.61
  -5  -2   9    1.75    0.75
   5  -2  -9    2.23    0.79
  -5  -2   9    1.40    0.57
  -5   2   9    2.68    0.74
   5   2  -9    1.90    0.67
  -5   2   9    1.16    0.51
  -5   2   9    1.90    0.68
  -4  -2   9    0.75    0.51
  -4  -2   9    0.75    0.54
   4  -2  -9    0.59    0.49
  -4  -2   9    0.38    0.40
   4  -2  -9    0.99    0.60
  -4   2   9    0.08    0.44
  -4   2   9    0.16    0.40
   4   2  -9    0.40    0.55
  -4   2   9    0.47    0.48
   4   2  -9    1.13    0.52
   3  -2  -9   -0.17    0.40
  -3  -2   9    0.50    0.39
   3  -2  -9    0.15    0.36
  -3  -2   9    0.28    0.44
   3  -2  -9    0.24    0.47
  -3  -2   9    0.08    0.42
   3   2  -9    0.37    0.42
   3   2  -9    0.67    0.47
  -3   2   9    0.26    0.42
  -3   2   9    0.18    0.41
   3   2  -9    0.29    0.43
  -3   2   9   -0.07    0.40
   2  -2  -9    2.87    0.69
   2  -2  -9    2.45    0.63
  -2  -2   9    3.19    0.77
   2  -2  -9    3.75    0.72
  -2  -2   9    3.15    0.56
  -2  -2   9    3.53    0.70
   2   2  -9    3.60    0.84
   2   2  -9    2.95    0.71
  -2   2   9    2.21    0.62
  -2   2   9    3.51    0.68
  -2   2   9    4.16    0.78
   2   2  -9    2.96    0.70
  -1  -2   9   18.42    1.05
  -1  -2   9   18.91    1.42
   1  -2  -9   18.53    1.38
   1  -2  -9   17.98    1.10
  -1  -2   9   16.97    1.28
   1   2  -9   17.45    1.31
   1   2  -9   17.74    1.41
  -1   2   9   19.57    1.22
  -1   2   9   20.06    1.35
  -1   2   9   19.12    1.39
   0  -2  -9   16.94    1.38
   0  -2   9   16.35    1.28
   0  -2   9   16.52    1.38
   0  -2   9   16.74    1.02
   0   2   9   16.48    1.36
   0   2   9   16.32    1.11
   0   2   9   16.01    1.26
   0   2  -9   18.85    1.37
   0   2  -9   16.43    1.37
   1  -2   9   14.49    1.36
  -1  -2  -9   14.25    1.34
  -1  -2  -9   15.41    1.25
  -1   2  -9   15.05    1.35
  -1   2  -9   12.89    1.37
   1   2   9   14.72    1.10
   1   2   9   13.99    1.32
  -2  -2  -9    4.19    0.80
  -2  -2  -9    3.39    0.80
   2  -2   9    6.52    1.08
  -2   2  -9    7.12    1.07
   2   2   9    5.57    0.83
  -2   2  -9    6.52    1.06
   2   2   9    5.37    0.92
  -3  -2  -9    0.19    0.55
   3   2   9    0.24    0.85
  -3   2  -9   -0.03    0.54
  -5  -3   9    4.22    0.83
  -5  -3   9    5.39    1.05
   5  -3  -9    4.13    0.84
   5  -3  -9    4.82    0.98
  -5   3   9    4.15    0.83
  -5   3   9    3.95    0.86
  -5   3   9    5.14    0.84
   5   3  -9    3.63    0.85
   4  -3  -9   18.09    1.39
  -4  -3   9   20.34    1.45
   4  -3  -9   20.19    1.49
  -4  -3   9   18.97    1.45
  -4  -3   9   20.01    1.29
   4   3  -9   19.20    1.39
   4   3  -9   19.88    1.50
  -4   3   9   22.46    1.45
  -4   3   9   19.62    1.38
   3  -3  -9    2.34    0.68
   3  -3  -9    1.52    0.55
  -3  -3   9    2.05    0.53
   3  -3  -9    1.81    0.67
  -3  -3   9    3.32    0.79
  -3  -3   9    2.04    0.62
  -3   3   9    1.18    0.53
   3   3  -9    1.75    0.62
  -3   3   9    1.59    0.56
   3   3  -9    2.26    0.67
  -3   3   9    1.76    0.57
   3   3  -9    2.59    0.67
   2  -3  -9    4.52    0.80
   2  -3  -9    6.54    0.91
  -2  -3   9    4.65    0.66
   2  -3  -9    4.58    0.80
  -2  -3   9    5.38    0.88
  -2  -3   9    4.93    0.90
  -2   3   9    6.17    0.91
   2   3  -9    4.64    0.80
   2   3  -9    6.51    1.00
  -2   3   9    3.84    0.72
  -2   3   9    5.35    0.89
   2   3  -9    6.68    0.96
  -1  -3   9    0.52    0.32
   1  -3  -9    0.12    0.47
   1  -3  -9    0.75    0.45
  -1  -3   9    0.22    0.47
  -1  -3   9    0.79    0.50
  -1   3   9    0.36    0.44
  -1   3   9    0.54    0.47
   1   3  -9    0.33    0.47
  -1   3   9    0.88    0.50
   1   3  -9    0.81    0.61
   0  -3  -9    2.40    0.70
   0  -3   9    2.58    0.76
   0  -3   9    1.79    0.58
   0   3  -9    2.99    0.84
   0   3   9    3.07    0.74
   0   3  -9    2.00    0.66
   0   3   9    0.93    0.46
   0   3   9    2.62    0.73
  -1  -3  -9    1.49    0.65
   1  -3   9    1.37    0.62
  -1   3  -9    1.97    0.69
   1   3   9    1.00    0.57
  -1   3  -9    1.59    0.67
   1   3   9    1.94    0.60
  -2  -3  -9    1.53    0.65
   2  -3   9    3.21    0.78
  -2   3  -9    4.68    0.94
   2   3   9    3.49    0.72
  -2   3  -9    3.60    0.79
   5  -4  -9    2.21    0.71
   5  -4  -9    1.34    0.70
  -5  -4   9    2.92    0.72
  -5   4   9    2.19    0.63
   5   4  -9    2.40    0.73
  -5   4   9    1.48    0.64
  -4  -4   9    1.07    0.54
  -4  -4   9    0.10    0.46
  -4  -4   9    1.18    0.49
   4  -4  -9    0.76    0.51
   4  -4  -9    1.07    0.64
  -4   4   9    0.64    0.52
   4   4  -9    0.25    0.50
   4   4  -9    1.11    0.55
  -4   4   9    0.71    0.47
  -4   4   9    0.47    0.42
  -3  -4   9    2.02    0.64
  -3  -4   9    1.76    0.51
   3  -4  -9    1.83    0.66
   3  -4  -9    1.76    0.60
  -3  -4   9    2.32    0.69
  -3   4   9    3.17    0.70
   3   4  -9    2.11    0.68
   3   4  -9    3.02    0.72
  -3   4   9    1.62    0.59
  -3   4   9    1.25    0.56
   3   4  -9    1.05    0.52
   2  -4  -9    1.61    0.57
  -2  -4   9    1.10    0.39
   2  -4  -9    0.44    0.52
   2  -4  -9    0.53    0.48
  -2  -4   9    1.00    0.57
  -2  -4   9    0.77    0.59
   2   4  -9    1.43    0.57
  -2   4   9    0.73    0.51
   2   4  -9    0.53    0.47
  -2   4   9    1.92    0.59
   2   4  -9    0.65    0.60
  -2   4   9    0.42    0.43
  -1  -4   9    1.49    0.62
   1  -4  -9    1.39    0.53
   1  -4  -9    0.59    0.52
  -1  -4   9    0.80    0.53
  -1   4   9    1.51    0.60
   1   4  -9    0.91    0.55
   1   4  -9    0.23    0.45
  -1   4   9    1.23    0.52
  -1   4   9    0.84    0.49
   0  -4  -9   15.18    1.38
   0  -4   9   19.66    1.50
   0  -4   9   17.91    1.34
   0   4  -9   17.06    1.34
   0   4   9   18.20    1.43
   0   4   9   16.63    1.20
   0   4   9   16.22    1.25
   0   4  -9   15.27    1.37
   1  -4   9    4.13    0.90
  -1  -4  -9    1.97    0.69
   1   4   9    2.39    0.65
  -1   4  -9    2.77    0.75
   1   4   9    2.42    0.68
  -1   4  -9    3.96    0.87
  -2  -4  -9    3.74    0.85
   2   4   9    3.63    0.81
  -2   4  -9    4.93    0.95
   2   4   9    4.37    0.83
  -2   4  -9    6.14    1.19
  -5  -5   9    6.93    1.00
   5  -5  -9    6.20    1.07
   5  -5  -9    6.52    1.16
   5   5  -9    7.25    1.11
  -5   5   9    8.64    1.07
  -5   5   9    9.66    1.27
   4  -5  -9    8.93    1.20
  -4  -5   9    8.96    1.22
  -4  -5   9    9.69    1.26
   4  -5  -9    8.01    1.17
  -4  -5   9    6.85    0.92
  -4   5   9    9.37    1.15
   4   5  -9    8.10    1.05
  -4   5   9    6.40    0.98
   4   5  -9    7.33    0.97
   4   5  -9   10.30    1.33
  -4   5   9    8.10    1.03
  -3  -5   9    8.96    1.23
   3  -5  -9    7.98    1.06
  -3  -5   9    8.77    1.11
  -3  -5   9    8.26    0.87
   3  -5  -9   10.83    1.30
  -3   5   9    8.35    1.03
   3   5  -9    8.54    1.06
  -3   5   9    8.07    1.02
   3   5  -9    8.54    1.06
   3   5  -9   10.11    1.33
  -3   5   9    9.55    1.10
   2  -5  -9    9.41    1.08
  -2  -5   9   10.46    1.22
   2  -5  -9   10.77    1.26
   2  -5  -9   12.79    1.07
  -2  -5   9    8.72    1.06
  -2   5   9    9.50    1.14
  -2   5   9   10.36    1.10
   2   5  -9    9.33    1.08
  -2   5   9    9.55    1.14
   2   5  -9    9.32    1.14
   2   5  -9   12.28    1.29
   1  -5  -9    2.33    0.62
   1  -5  -9    0.31    0.53
  -1  -5   9    0.71    0.53
  -1  -5   9    1.64    0.62
   1   5  -9    1.30    0.53
  -1   5   9    0.85    0.51
  -1   5   9    0.96    0.53
   1   5  -9    0.74    0.47
  -1   5   9    1.05    0.51
   0  -5   9    0.69    0.57
   0  -5   9    0.67    0.53
   0  -5  -9    0.81    0.60
   0   5   9    0.76    0.57
   0   5  -9    0.80    0.55
   0   5  -9    0.94    0.58
   0   5   9    0.57    0.48
  -1  -5  -9    6.55    1.13
   1  -5   9    6.79    1.01
  -1   5  -9    6.31    0.99
   1   5   9    6.99    1.00
   1   5   9    8.21    1.21
  -1   5  -9    5.90    1.03
  -2  -5  -9    4.11    0.94
   2   5   9    4.31    0.89
  -2   5  -9    3.96    0.93
   2   5   9    4.02    0.90
   4  -6  -9    3.81    0.83
  -4  -6   9    3.22    0.77
   4  -6  -9    1.29    0.70
  -4  -6   9    1.56    0.54
  -4  -6   9    2.09    0.69
   4   6  -9    2.27    0.70
  -4   6   9    2.74    0.68
   4   6  -9    2.29    0.75
   4   6  -9    4.06    0.81
  -4   6   9    2.59    0.71
  -4   6   9    2.74    0.75
  -3  -6   9    4.26    0.81
  -3  -6   9    3.33    0.80
   3  -6  -9    2.14    0.66
   3  -6  -9    2.44    0.74
  -3   6   9    3.03    0.72
  -3   6   9    2.38    0.65
  -3   6   9    2.18    0.63
   3   6  -9    3.50    0.91
   3   6  -9    3.42    0.80
   3   6  -9    2.62    0.70
  -2  -6   9    4.38    0.90
   2  -6  -9    3.09    0.82
  -2  -6   9    3.35    0.77
   2  -6  -9    3.17    0.73
   2  -6  -9    2.10    0.63
   2   6  -9    3.61    0.81
  -2   6   9    3.85    0.80
   2   6  -9    6.13    1.07
  -2   6   9    3.71    0.73
   2   6  -9    3.99    0.78
  -2   6   9    4.05    0.82
  -1  -6   9    3.49    0.84
   1  -6  -9    2.77    0.70
  -1  -6   9    3.76    0.76
   1  -6  -9    2.94    0.67
   1   6  -9    3.26    0.83
  -1   6   9    3.23    0.79
  -1   6   9    2.56    0.68
  -1   6   9    2.07    0.63
   1   6  -9    4.77    0.93
   1   6  -9    2.93    0.70
   0  -6   9    3.26    0.80
   0  -6  -9    4.31    0.91
   0  -6   9    2.60    0.67
   0   6   9    4.35    0.87
   0   6  -9    4.14    0.90
   0   6  -9    2.75    0.71
   0   6   9    3.73    0.79
   1  -6   9    5.60    1.00
  -1  -6  -9    3.36    0.79
  -1   6  -9    5.36    1.03
  -1   6  -9    3.19    0.74
   1   6   9    4.27    0.90
   1   6   9    4.86    0.87
   2   6   9    0.01    0.58
   2   6   9    1.33    0.66
   4  -7  -9   21.26    1.61
  -4  -7   9   18.71    1.47
   4  -7  -9   16.43    1.35
   4   7  -9   17.80    1.33
  -4   7   9   17.82    1.34
  -4   7   9   15.28    1.25
   4   7  -9   17.58    1.39
   4   7  -9   17.84    1.61
  -3  -7   9   13.22    1.44
   3  -7  -9   13.98    1.20
  -3  -7   9   12.88    1.34
   3  -7  -9   13.98    1.29
  -3   7   9   13.71    1.23
  -3   7   9   13.34    1.38
   3   7  -9   13.39    1.49
  -3   7   9   11.07    1.18
   3   7  -9   10.34    1.18
   3   7  -9   14.16    1.20
   2  -7  -9    1.10    0.56
  -2  -7   9    1.58    0.68
  -2  -7   9    0.76    0.58
   2  -7  -9    1.37    0.64
   2   7  -9    1.96    0.66
  -2   7   9    1.85    0.69
   2   7  -9    1.02    0.50
  -2   7   9    1.50    0.62
  -2   7   9    1.77    0.62
   2   7  -9    2.93    0.87
  -1  -7   9    2.06    0.66
   1  -7  -9    4.12    0.87
  -1  -7   9    2.60    0.84
   1  -7  -9    1.79    0.63
   1   7  -9    1.74    0.60
  -1   7   9    1.99    0.62
   1   7  -9    3.30    0.78
   1   7  -9    2.05    0.76
  -1   7   9    1.74    0.62
  -1   7   9    2.55    0.74
   0  -7   9    2.62    0.80
   0  -7  -9    2.20    0.74
   0  -7   9    1.79    0.66
   0   7  -9    1.57    0.66
   0   7   9    2.13    0.67
   0   7   9    2.17    0.73
   0   7  -9    2.04    0.69
   1  -7   9    3.01    0.90
  -1  -7  -9    4.68    1.00
  -1   7  -9    3.37    1.18
   1   7   9    3.33    0.90
   1   7   9    4.15    0.89
   4  -8  -9    3.69    0.90
   4  -8  -9    4.00    0.89
  -4   8   9    2.63    0.78
   4   8  -9    3.33    0.78
   4   8  -9    3.35    0.92
   4   8  -9    2.19    0.68
  -4   8   9    4.09    0.82
  -3  -8   9    5.19    1.07
  -3  -8   9    3.74    0.81
   3  -8  -9    4.04    0.92
   3  -8  -9    5.82    0.96
  -3   8   9    4.08    0.84
   3   8  -9    4.35    0.83
   3   8  -9    2.83    0.74
   3   8  -9    3.83    0.95
  -3   8   9    6.08    1.55
  -3   8   9    3.89    0.76
   2  -8  -9    3.53    0.75
  -2  -8   9    3.51    0.78
   2  -8  -9    4.01    0.86
  -2  -8   9    3.10    0.86
  -2   8   9    3.03    0.69
  -2   8   9    2.68    0.73
  -2   8   9    3.49    0.81
   2   8  -9    3.85    0.94
   2   8  -9    2.97    0.70
   1  -8  -9   10.06    1.28
  -1  -8   9   11.85    1.43
  -1  -8   9    9.18    1.12
   1  -8  -9    9.99    1.16
  -1   8   9   10.13    1.25
   1   8  -9   10.24    1.24
  -1   8   9   10.13    1.10
   1   8  -9    9.17    1.13
  -1   8   9   10.31    1.23
   1   8  -9   10.12    1.33
   0  -8   9    3.94    0.93
   0  -8   9    5.56    0.93
   0  -8  -9    5.25    1.04
   0   8  -9    4.17    0.90
   0   8   9    3.89    0.85
   0   8   9    3.32    0.87
   0   8  -9    5.26    0.99
  -1  -8  -9    1.98    0.82
   1   8   9    1.79    0.88
   3  -9  -9    9.60    1.31
   3  -9  -9   10.24    1.20
  -3  -9   9   10.32    1.25
   3   9  -9    9.80    1.22
   3   9  -9   12.67    1.40
   3   9  -9   12.29    1.49
  -2  -9   9    2.11    0.71
   2  -9  -9    1.75    0.64
   2  -9  -9    1.55    0.73
  -2  -9   9    1.31    0.65
   2   9  -9    1.87    0.70
  -2   9   9    1.77    0.67
   2   9  -9    0.92    0.52
   2   9  -9    2.14    0.76
  -1  -9   9    2.14    0.73
   1  -9  -9    1.84    0.64
   1  -9  -9    2.92    0.73
  -1  -9   9    2.11    0.69
   1   9  -9    2.37    0.74
   1   9  -9    1.96    0.87
   1   9  -9    2.62    0.70
  -1   9   9    1.62    0.78
   0  -9  -9    0.60    0.62
   0  -9   9    0.63    0.60
   0  -9   9    0.34    0.50
  -2 -10   9    4.91    0.90
   2  10  -9    5.52    1.08
  -1 -10   9   11.41    1.48
  -1 -10   9    8.08    1.08
   1 -10  -9    9.93    1.25
   1 -10  -9   10.35    1.19
   1  10  -9   10.05    1.15
   4   0 -10   11.98    1.42
  -4   0  10   15.46    1.28
  -3   0  10   17.88    1.48
   3   0 -10   12.61    1.34
  -3   0  10   16.47    1.39
   3   0 -10   10.23    1.20
  -3   0  10   16.73    1.27
  -2   0  10   12.58    1.40
   2   0 -10   11.87    1.35
   2   0 -10   12.31    1.39
  -2   0  10   13.08    1.10
  -1   0  10    1.81    0.66
  -1   0  10    0.21    0.55
   1   0 -10    0.34    0.49
   1   0 -10    0.39    0.51
  -1   0  10    0.61    0.43
   0   0  10   -0.33    0.49
   0   0  10    0.27    0.51
   0   0 -10    0.83    0.54
   0   0 -10    0.31    0.62
   0   0  10    0.27    0.53
  -1   0 -10    0.13    0.57
   1   0  10    0.23    0.56
  -1   0 -10    1.37    0.74
  -4  -1  10    9.93    1.17
   4  -1 -10    6.55    1.05
   4   1 -10    8.69    1.24
  -4   1  10   10.79    1.92
  -4   1  10    8.87    1.11
  -3  -1  10    7.98    1.01
   3  -1 -10    7.99    1.10
  -3  -1  10    7.59    1.12
  -3  -1  10   10.10    1.28
   3  -1 -10   12.31    1.98
  -3   1  10    8.81    1.20
   3   1 -10    7.94    1.17
   3   1 -10    7.78    1.12
  -3   1  10   10.89    1.24
  -3   1  10    7.78    1.11
   2  -1 -10    0.77    0.55
  -2  -1  10    2.34    0.78
  -2  -1  10    1.43    0.65
   2  -1 -10    1.46    0.66
  -2  -1  10    1.19    0.52
   2   1 -10    1.99    0.70
   2   1 -10    1.44    0.59
  -2   1  10    2.68    0.67
   2   1 -10    2.18    0.80
  -2   1  10    1.69    0.65
  -2   1  10    2.54    0.73
  -1  -1  10   -0.22    0.50
  -1  -1  10   -0.05    0.33
  -1  -1  10    1.30    0.64
   1  -1 -10   -0.35    0.47
  -1   1  10    0.52    0.59
  -1   1  10    0.00    0.52
   1   1 -10   -0.29    0.50
   1   1 -10   -0.08    0.42
  -1   1  10   -0.14    0.38
   0  -1 -10   11.84    1.50
   0  -1  10    6.50    1.02
   0  -1 -10   10.59    1.33
   0  -1  10   11.24    1.44
   0   1  10    9.38    1.30
   0   1 -10    9.24    1.17
   0   1  10    7.20    0.90
   0   1  10    8.17    1.13
   0   1 -10   13.40    1.53
  -1  -1 -10    2.32    0.79
  -1  -1 -10    1.50    0.72
   1  -1  10    1.26    0.69
   1   1  10    1.98    0.71
  -1   1 -10    1.16    0.79
  -1   1 -10    2.20    0.96
   4  -2 -10   18.81    1.49
   4  -2 -10   12.89    1.44
  -4  -2  10   16.92    1.28
   4   2 -10   16.72    1.42
  -4   2  10   17.17    1.38
  -4   2  10   16.36    2.05
  -3  -2  10    9.75    1.12
  -3  -2  10   10.54    1.28
  -3  -2  10   11.61    1.41
   3  -2 -10   10.75    1.27
   3  -2 -10    8.53    1.15
  -3   2  10   10.61    1.16
  -3   2  10    9.31    1.24
   3   2 -10   12.01    1.44
   3   2 -10   10.01    1.22
   2  -2 -10   13.29    1.46
  -2  -2  10   13.80    1.05
   2  -2 -10   12.37    1.36
   2  -2 -10   13.80    1.16
  -2  -2  10   13.17    1.44
  -2  -2  10   14.22    1.55
   2   2 -10   17.20    1.74
   2   2 -10   11.91    1.36
  -2   2  10   12.09    1.34
  -2   2  10   10.71    1.15
  -2   2  10   13.17    1.43
   2   2 -10   13.93    1.51
   1  -2 -10    3.36    0.81
  -1  -2  10    3.65    0.89
  -1  -2  10    3.76    0.88
  -1   2  10    3.24    0.81
   1   2 -10    2.95    0.80
   1   2 -10    2.75    0.76
  -1   2  10    3.09    0.77
  -1   2  10    3.18    0.69
   0  -2 -10    0.06    0.54
   0  -2  10    0.03    0.54
   0  -2  10    0.60    0.56
   0   2 -10    0.73    0.61
   0   2  10    1.05    0.61
   0   2 -10    0.79    0.56
   0   2  10    0.63    0.48
   0   2  10    1.21    0.64
   1  -2  10   -0.09    0.49
  -1  -2 -10    1.13    0.68
   1   2  10    0.97    0.51
   1   2  10    0.62    0.59
   4  -3 -10   -0.01    0.53
  -4  -3  10    0.16    0.45
   4  -3 -10    0.07    0.59
   4   3 -10   -0.62    0.36
  -4   3  10   -0.11    0.57
  -4   3  10    0.26    0.54
  -3  -3  10   13.16    1.51
   3  -3 -10   14.70    1.32
  -3  -3  10   11.63    1.17
   3  -3 -10   15.67    1.33
  -3  -3  10   13.33    1.45
   3   3 -10   14.21    1.56
  -3   3  10   10.55    1.22
   3   3 -10   14.70    1.28
   3   3 -10   11.55    1.32
  -3   3  10   11.28    1.29
  -3   3  10   13.06    1.42
   2  -3 -10    7.47    1.04
  -2  -3  10    7.49    1.15
   2  -3 -10    4.23    0.90
   2  -3 -10    8.16    1.15
  -2  -3  10    9.08    1.30
  -2   3  10    5.86    1.00
  -2   3  10    5.70    0.92
  -2   3  10    7.05    1.11
   2   3 -10    5.04    0.92
   2   3 -10    6.38    1.09
   2   3 -10    4.85    0.92
  -1  -3  10    9.53    1.33
  -1  -3  10    7.12    1.12
   1  -3 -10    8.05    1.15
   1   3 -10    9.82    1.37
  -1   3  10    6.54    0.96
  -1   3  10   10.08    1.28
  -1   3  10    6.58    1.08
   1   3 -10    7.51    1.08
   0  -3 -10   11.48    1.34
   0  -3  10    9.97    1.25
   0  -3  10   11.01    1.29
   0   3  10    8.19    1.16
   0   3 -10   10.10    1.28
   0   3  10   13.86    1.19
   0   3 -10   11.96    1.35
   1  -3  10    9.35    1.37
  -1  -3 -10    9.38    1.37
   1   3  10    7.73    1.16
   1   3  10    9.81    1.13
   4  -4 -10    8.95    1.25
   4  -4 -10    5.89    1.01
  -4  -4  10    7.50    1.00
   4   4 -10    6.93    1.12
  -4   4  10    9.23    1.30
   3  -4 -10   14.60    1.30
  -3  -4  10   13.18    1.60
  -3  -4  10   13.32    2.17
   3  -4 -10   15.06    1.55
  -3   4  10   11.82    1.31
   3   4 -10   12.82    1.40
  -3   4  10   14.25    1.89
   3   4 -10   12.80    1.38
   3   4 -10   11.63    1.30
  -3   4  10   14.43    1.26
   2  -4 -10    4.45    0.86
  -2  -4  10    5.68    0.98
   2  -4 -10    7.22    1.02
   2  -4 -10    5.84    0.97
  -2  -4  10    6.29    0.99
  -2   4  10    5.96    0.93
  -2   4  10    7.02    1.06
   2   4 -10    5.07    0.93
  -2   4  10    5.19    0.91
   2   4 -10    3.54    0.80
   2   4 -10    4.14    0.86
  -1  -4  10    0.84    0.63
  -1  -4  10    1.12    0.64
   1  -4 -10    0.63    0.60
  -1   4  10    1.10    0.55
   1   4 -10    0.97    0.60
  -1   4  10    0.74    0.59
  -1   4  10    0.43    0.53
   1   4 -10    0.69    0.59
   0  -4  10    0.80    0.69
   0  -4 -10    1.39    0.74
   0  -4  10    0.53    0.59
   0   4  10    0.56    0.60
   0   4  10   -0.04    0.46
   0   4 -10    1.30    0.73
   0   4 -10    0.19    0.99
   1  -4  10    7.22    1.12
  -1  -4 -10    8.45    1.71
   1   4  10    9.49    1.13
   1   4  10    7.01    1.17
   3  -5 -10    2.82    0.82
   3  -5 -10    2.34    0.70
   3   5 -10    3.66    1.04
   3   5 -10    4.45    0.95
   3   5 -10    2.80    0.76
  -3   5  10    4.61    0.91
  -3   5  10    0.47    0.59
  -2  -5  10    1.59    0.69
  -2  -5  10    1.67    0.76
   2  -5 -10    1.27    0.64
   2  -5 -10    1.82    0.68
  -2   5  10    2.66    0.74
   2   5 -10    1.11    0.65
   2   5 -10    2.95    0.80
   2   5 -10    1.31    0.72
  -2   5  10    1.45    0.66
  -2   5  10    1.54    0.96
  -1  -5  10    7.29    1.08
  -1  -5  10   12.77    1.54
   1  -5 -10   10.26    1.35
   1   5 -10    8.43    1.24
  -1   5  10    8.64    1.12
   1   5 -10    8.13    1.14
   1   5 -10    9.28    1.36
  -1   5  10   12.06    1.53
  -1   5  10   10.02    1.23
   0  -5  10    7.88    1.21
   0  -5 -10    8.21    1.28
   0   5  10    6.56    1.03
   0   5  10    7.67    1.57
   3  -6 -10    2.34    0.69
   3  -6 -10    2.30    0.78
   3   6 -10    1.95    0.66
   3   6 -10    1.99    0.81
  -3   6  10    2.37    0.72
   3   6 -10    3.12    0.79
  -2  -6  10    0.24    0.86
   2  -6 -10    0.22    0.50
   2  -6 -10    0.79    0.56
  -2  -6  10    0.38    0.62
  -2   6  10    0.39    0.54
   2   6 -10    0.87    0.55
  -2   6  10    0.77    0.58
   2   6 -10    0.29    0.54
   2   6 -10    0.91    0.72
  -1  -6  10    0.31    0.62
  -1  -6  10    1.32    1.01
   1  -6 -10    0.31    0.54
  -1   6  10   -0.12    0.48
  -1   6  10   -0.30    0.48
   1   6 -10    0.45    0.51
   1   6 -10    0.35    0.63
   0  -6 -10    2.16    0.76
   0  -6  10    1.73    0.74
   0   6  10    1.71    0.68
   2  -7 -10    2.76    0.78
   2  -7 -10    5.02    0.95
  -2   7  10    4.48    0.88
   2   7 -10    6.05    1.66
   2   7 -10    3.95    0.84
  -1  -7  10    4.60    1.08
   1  -7 -10    4.13    1.30
   1   7 -10    3.99    0.89
  -1   7  10    2.67    0.71
   0   0   0    0.00    0.00
;
_shelx_hkl_checksum              53548
loop_
_space_group_symop_operation_xyz
'x, y, z'
'-x, y+1/2, -z'
loop_
_atom_site_label
_atom_site_type_symbol
_atom_site_fract_x
_atom_site_fract_y
_atom_site_fract_z
_atom_site_U_iso_or_equiv
_atom_site_adp_type
_atom_site_occupancy
_atom_site_site_symmetry_order
_atom_site_calc_flag
_atom_site_refinement_flags_posn
_atom_site_refinement_flags_adp
_atom_site_refinement_flags_occupancy
_atom_site_disorder_assembly
_atom_site_disorder_group
S1 S 0.43616(8) 0.57510(4) 0.72067(6) 0.02593(14) Uani 1 1 d . . . . .
O1 O 0.5272(3) 0.66968(12) 0.7563(2) 0.0337(4) Uani 1 1 d . . . . .
O2 O 0.2088(3) 0.55750(13) 0.7215(2) 0.0374(4) Uani 1 1 d . . . . .
N1 N 0.4710(3) 0.54907(13) 0.5416(2) 0.0271(4) Uani 1 1 d D . . . .
C2 C 0.382(2) 0.4561(7) 0.469(2) 0.0397(12) Uani 0.711(12) 1 d D . P A 1
H2A H 0.2781 0.4668 0.3655 0.048 Uiso 0.711(12) 1 calc R U P A 1
H2B H 0.3061 0.4197 0.5417 0.048 Uiso 0.711(12) 1 calc R U P A 1
C3 C 0.5888(9) 0.4034(3) 0.4442(9) 0.0455(15) Uani 0.711(12) 1 d D . P A 1
H3A H 0.6662 0.3723 0.5445 0.055 Uiso 0.711(12) 1 calc R U P A 1
H3B H 0.5531 0.3539 0.3590 0.055 Uiso 0.711(12) 1 calc R U P A 1
C4 C 0.7254(14) 0.4850(7) 0.3945(18) 0.0417(19) Uani 0.711(12) 1 d D . P A 1
H4A H 0.6740 0.5011 0.2797 0.050 Uiso 0.711(12) 1 calc R U P A 1
H4B H 0.8832 0.4670 0.4131 0.050 Uiso 0.711(12) 1 calc R U P A 1
C2' C 0.394(6) 0.4523(19) 0.478(5) 0.0397(12) Uani 0.289(12) 1 d D . P A 2
H2A' H 0.2333 0.4524 0.4345 0.048 Uiso 0.289(12) 1 calc R U P A 2
H2B' H 0.4287 0.4023 0.5622 0.048 Uiso 0.289(12) 1 calc R U P A 2
C3' C 0.522(2) 0.4349(11) 0.345(2) 0.052(4) Uani 0.289(12) 1 d D . P A 2
H3A' H 0.5342 0.3650 0.3241 0.062 Uiso 0.289(12) 1 calc R U P A 2
H3B' H 0.4511 0.4678 0.2450 0.062 Uiso 0.289(12) 1 calc R U P A 2
C4' C 0.746(3) 0.4788(19) 0.415(5) 0.0417(19) Uani 0.289(12) 1 d D . P A 2
H4A' H 0.8261 0.4952 0.3298 0.050 Uiso 0.289(12) 1 calc R U P A 2
H4B' H 0.8365 0.4338 0.4920 0.050 Uiso 0.289(12) 1 calc R U P A 2
C5 C 0.6895(3) 0.5698(2) 0.5008(2) 0.0266(4) Uani 1 1 d D . . . .
H5 H 0.8065 0.5697 0.6007 0.032 Uiso 1 1 calc R U . A 1
C6 C 0.6880(5) 0.6662(2) 0.4167(3) 0.0386(6) Uani 1 1 d . . . . .
H6 H 0.6474 0.7177 0.4877 0.046 Uiso 1 1 calc R U . . .
F6 F 0.5296(3) 0.66360(17) 0.2757(2) 0.0709(7) Uani 1 1 d . . . . .
C7 C 0.9074(5) 0.6899(2) 0.3801(4) 0.0433(7) Uani 1 1 d . . . . .
H7 H 1.0289 0.6934 0.4681 0.052 Uiso 1 1 calc R U . . .
C8 C 0.9468(6) 0.7063(3) 0.2387(4) 0.0587(9) Uani 1 1 d . . . . .
H8A H 0.8302 0.7036 0.1472 0.070 Uiso 1 1 calc R U . . .
H8B H 1.0923 0.7210 0.2266 0.070 Uiso 1 1 calc R U . . .
C9 C 0.5943(4) 0.49336(16) 0.8554(3) 0.0241(5) Uani 1 1 d . . . . .
C10 C 0.5006(4) 0.40726(18) 0.8927(3) 0.0307(5) Uani 1 1 d . . . . .
H10 H 0.3501 0.3935 0.8493 0.037 Uiso 1 1 calc R U . . .
C11 C 0.6286(4) 0.34199(16) 0.9934(3) 0.0329(5) Uani 1 1 d . . . . .
H11 H 0.5648 0.2833 1.0195 0.040 Uiso 1 1 calc R U . . .
C12 C 0.8501(4) 0.36087(17) 1.0574(3) 0.0287(5) Uani 1 1 d . . . . .
C13 C 0.9393(4) 0.44697(18) 1.0178(3) 0.0302(5) Uani 1 1 d . . . . .
H13 H 1.0900 0.4606 1.0603 0.036 Uiso 1 1 calc R U . . .
C14 C 0.8141(4) 0.51328(17) 0.9181(3) 0.0289(5) Uani 1 1 d . . . . .
H14 H 0.8779 0.5721 0.8926 0.035 Uiso 1 1 calc R U . . .
C15 C 0.9867(5) 0.2902(2) 1.1707(4) 0.0436(6) Uani 1 1 d . . . . .
H15A H 0.9286 0.2248 1.1472 0.065 Uiso 0.711(12) 1 calc R U P A 1
H15B H 0.9803 0.3071 1.2813 0.065 Uiso 0.711(12) 1 calc R U P A 1
H15C H 1.1400 0.2927 1.1573 0.065 Uiso 0.711(12) 1 calc R U P A 1
H15D H 0.8891 0.2470 1.2152 0.065 Uiso 0.289(12) 1 calc R U P A 2
H15E H 1.0815 0.3256 1.2580 0.065 Uiso 0.289(12) 1 calc R U P A 2
H15F H 1.0784 0.2521 1.1126 0.065 Uiso 0.289(12) 1 calc R U P A 2
loop_
_atom_site_aniso_label
_atom_site_aniso_U_11
_atom_site_aniso_U_22
_atom_site_aniso_U_33
_atom_site_aniso_U_23
_atom_site_aniso_U_13
_atom_site_aniso_U_12
S1 0.0242(2) 0.0254(2) 0.0306(3) 0.0026(3) 0.01138(19) 0.0039(2)
O1 0.0413(10) 0.0244(9) 0.0388(10) 0.0003(7) 0.0162(8) 0.0039(7)
O2 0.0257(8) 0.0457(12) 0.0442(9) 0.0081(8) 0.0148(7) 0.0080(7)
N1 0.0237(9) 0.0308(11) 0.0276(10) 0.0008(7) 0.0069(8) -0.0009(7)
C2 0.034(2) 0.0472(18) 0.038(2) -0.0109(15) 0.0082(17) -0.0131(14)
C3 0.049(3) 0.033(2) 0.057(4) -0.013(2) 0.019(3) -0.0073(19)
C4 0.043(2) 0.036(2) 0.051(4) -0.007(2) 0.022(2) 0.0013(16)
C2' 0.034(2) 0.0472(18) 0.038(2) -0.0109(15) 0.0082(17) -0.0131(14)
C3' 0.041(6) 0.052(8) 0.063(10) -0.027(7) 0.010(6) -0.007(5)
C4' 0.043(2) 0.036(2) 0.051(4) -0.007(2) 0.022(2) 0.0013(16)
C5 0.0231(9) 0.0301(11) 0.0284(10) 0.0024(11) 0.0093(8) 0.0034(11)
C6 0.0405(15) 0.0382(15) 0.0406(15) 0.0106(12) 0.0165(12) 0.0064(12)
F6 0.0441(10) 0.1018(17) 0.0647(13) 0.0492(13) 0.0062(9) 0.0060(11)
C7 0.0446(16) 0.0411(15) 0.0475(16) 0.0072(12) 0.0172(13) -0.0057(12)
C8 0.0534(19) 0.070(2) 0.059(2) 0.0192(17) 0.0263(16) 0.0009(16)
C9 0.0267(11) 0.0245(11) 0.0232(11) -0.0007(9) 0.0095(9) 0.0005(9)
C10 0.0271(11) 0.0313(13) 0.0348(13) 0.0018(10) 0.0082(10) -0.0063(9)
C11 0.0404(14) 0.0238(12) 0.0358(13) 0.0029(10) 0.0107(11) -0.0050(10)
C12 0.0345(12) 0.0283(12) 0.0250(11) -0.0010(9) 0.0099(9) 0.0056(10)
C13 0.0230(11) 0.0385(14) 0.0296(12) 0.0006(10) 0.0068(9) -0.0005(10)
C14 0.0302(12) 0.0292(12) 0.0290(12) -0.0001(9) 0.0103(10) -0.0061(10)
C15 0.0516(17) 0.0360(15) 0.0416(15) 0.0054(12) 0.0058(12) 0.0105(12)
loop_
_atom_type_symbol
_atom_type_description
_atom_type_scat_dispersion_real
_atom_type_scat_dispersion_imag
_atom_type_scat_source
C C 0.0033 0.0016 'International Tables Vol C Tables 4.2.6.8 and 6.1.1.4'
H H 0.0000 0.0000 'International Tables Vol C Tables 4.2.6.8 and 6.1.1.4'
N N 0.0061 0.0033 'International Tables Vol C Tables 4.2.6.8 and 6.1.1.4'
O O 0.0106 0.0060 'International Tables Vol C Tables 4.2.6.8 and 6.1.1.4'
F F 0.0171 0.0103 'International Tables Vol C Tables 4.2.6.8 and 6.1.1.4'
S S 0.1246 0.1234 'International Tables Vol C Tables 4.2.6.8 and 6.1.1.4'
loop_
_geom_angle_atom_site_label_1
_geom_angle_atom_site_label_2
_geom_angle_atom_site_label_3
_geom_angle
O2 S1 O1 119.99(10)
O2 S1 N1 106.61(10)
O1 S1 N1 106.25(9)
O2 S1 C9 107.77(10)
O1 S1 C9 107.82(11)
N1 S1 C9 107.88(10)
C2 N1 C5 110.3(3)
C2' N1 C5 109.1(8)
C2 N1 S1 118.4(5)
C2' N1 S1 116.7(12)
C5 N1 S1 118.43(14)
N1 C2 C3 102.8(6)
N1 C2 H2A 111.2
C3 C2 H2A 111.2
N1 C2 H2B 111.2
C3 C2 H2B 111.2
H2A C2 H2B 109.1
C4 C3 C2 102.3(6)
C4 C3 H3A 111.3
C2 C3 H3A 111.3
C4 C3 H3B 111.3
C2 C3 H3B 111.3
H3A C3 H3B 109.2
C3 C4 C5 104.4(7)
C3 C4 H4A 110.9
C5 C4 H4A 110.9
C3 C4 H4B 110.9
C5 C4 H4B 110.9
H4A C4 H4B 108.9
N1 C2' C3' 103.7(11)
N1 C2' H2A' 111.0
C3' C2' H2A' 111.0
N1 C2' H2B' 111.0
C3' C2' H2B' 111.0
H2A' C2' H2B' 109.0
C4' C3' C2' 102.5(19)
C4' C3' H3A' 111.3
C2' C3' H3A' 111.3
C4' C3' H3B' 111.3
C2' C3' H3B' 111.3
H3A' C3' H3B' 109.2
C3' C4' C5 103.8(11)
C3' C4' H4A' 111.0
C5 C4' H4A' 111.0
C3' C4' H4B' 111.0
C5 C4' H4B' 111.0
H4A' C4' H4B' 109.0
N1 C5 C6 111.16(19)
N1 C5 C4 103.8(3)
C6 C5 C4 112.6(6)
N1 C5 C4' 104.9(8)
C6 C5 C4' 118.7(18)
N1 C5 H5 109.7
C6 C5 H5 109.7
C4 C5 H5 109.7
F6 C6 C7 109.8(2)
F6 C6 C5 108.8(2)
C7 C6 C5 112.0(2)
F6 C6 H6 108.7
C7 C6 H6 108.7
C5 C6 H6 108.7
C8 C7 C6 125.8(3)
C8 C7 H7 117.1
C6 C7 H7 117.1
C7 C8 H8A 120.0
C7 C8 H8B 120.0
H8A C8 H8B 120.0
C14 C9 C10 120.4(2)
C14 C9 S1 119.77(17)
C10 C9 S1 119.81(18)
C11 C10 C9 119.3(2)
C11 C10 H10 120.4
C9 C10 H10 120.4
C10 C11 C12 121.1(2)
C10 C11 H11 119.5
C12 C11 H11 119.5
C13 C12 C11 118.4(2)
C13 C12 C15 121.0(2)
C11 C12 C15 120.6(2)
C14 C13 C12 121.4(2)
C14 C13 H13 119.3
C12 C13 H13 119.3
C13 C14 C9 119.4(2)
C13 C14 H14 120.3
C9 C14 H14 120.3
C12 C15 H15A 109.5
C12 C15 H15B 109.5
H15A C15 H15B 109.5
C12 C15 H15C 109.5
H15A C15 H15C 109.5
H15B C15 H15C 109.5
C12 C15 H15D 109.5
C12 C15 H15E 109.5
H15D C15 H15E 109.5
C12 C15 H15F 109.5
H15D C15 H15F 109.5
H15E C15 H15F 109.5
loop_
_geom_bond_atom_site_label_1
_geom_bond_atom_site_label_2
_geom_bond_distance
S1 O2 1.4315(16)
S1 O1 1.4336(18)
S1 N1 1.6243(19)
S1 C9 1.761(2)
N1 C2 1.485(5)
N1 C2' 1.487(11)
N1 C5 1.492(2)
C2 C3 1.525(11)
C2 H2A 0.9900
C2 H2B 0.9900
C3 C4 1.523(11)
C3 H3A 0.9900
C3 H3B 0.9900
C4 C5 1.526(6)
C4 H4A 0.9900
C4 H4B 0.9900
C2' C3' 1.522(15)
C2' H2A' 0.9900
C2' H2B' 0.9900
C3' C4' 1.521(15)
C3' H3A' 0.9900
C3' H3B' 0.9900
C4' C5 1.529(11)
C4' H4A' 0.9900
C4' H4B' 0.9900
C5 C6 1.514(4)
C5 H5 1.0000
C6 F6 1.389(3)
C6 C7 1.491(4)
C6 H6 1.0000
C7 C8 1.297(4)
C7 H7 0.9500
C8 H8A 0.9500
C8 H8B 0.9500
C9 C14 1.386(3)
C9 C10 1.391(3)
C10 C11 1.380(3)
C10 H10 0.9500
C11 C12 1.395(3)
C11 H11 0.9500
C12 C13 1.384(3)
C12 C15 1.508(3)
C13 C14 1.377(3)
C13 H13 0.9500
C14 H14 0.9500
C15 H15A 0.9800
C15 H15B 0.9800
C15 H15C 0.9800
C15 H15D 0.9800
C15 H15E 0.9800
C15 H15F 0.9800
loop_
_geom_torsion_atom_site_label_1
_geom_torsion_atom_site_label_2
_geom_torsion_atom_site_label_3
_geom_torsion_atom_site_label_4
_geom_torsion
O2 S1 N1 C2 -48.0(8)
O1 S1 N1 C2 -177.1(8)
C9 S1 N1 C2 67.5(8)
O2 S1 N1 C2' -52(2)
O1 S1 N1 C2' 179(2)
C9 S1 N1 C2' 63(2)
O2 S1 N1 C5 174.17(17)
O1 S1 N1 C5 45.10(19)
C9 S1 N1 C5 -70.31(19)
C5 N1 C2 C3 22.8(12)
S1 N1 C2 C3 -118.2(7)
N1 C2 C3 C4 -37.7(13)
C2 C3 C4 C5 39.5(12)
C5 N1 C2' C3' -22(3)
S1 N1 C2' C3' -159.4(18)
N1 C2' C3' C4' 37(4)
C2' C3' C4' C5 -39(3)
C2 N1 C5 C6 122.9(9)
C2' N1 C5 C6 127(2)
S1 N1 C5 C6 -96.2(2)
C2 N1 C5 C4 1.6(11)
S1 N1 C5 C4 142.5(7)
C2' N1 C5 C4' -2(3)
S1 N1 C5 C4' 134.3(19)
C3 C4 C5 N1 -25.5(9)
C3 C4 C5 C6 -145.8(7)
C3' C4' C5 N1 26(3)
C3' C4' C5 C6 -99(2)
N1 C5 C6 F6 -60.5(3)
C4 C5 C6 F6 55.6(4)
C4' C5 C6 F6 61.3(10)
N1 C5 C6 C7 177.9(2)
C4 C5 C6 C7 -66.0(4)
C4' C5 C6 C7 -60.3(10)
F6 C6 C7 C8 0.2(4)
C5 C6 C7 C8 121.2(3)
O2 S1 C9 C14 -158.98(18)
O1 S1 C9 C14 -28.1(2)
N1 S1 C9 C14 86.26(19)
O2 S1 C9 C10 23.9(2)
O1 S1 C9 C10 154.73(18)
N1 S1 C9 C10 -90.91(19)
C14 C9 C10 C11 0.3(3)
S1 C9 C10 C11 177.41(18)
C9 C10 C11 C12 -0.3(4)
C10 C11 C12 C13 0.1(4)
C10 C11 C12 C15 178.4(2)
C11 C12 C13 C14 0.2(3)
C15 C12 C13 C14 -178.1(2)
C12 C13 C14 C9 -0.3(3)
C10 C9 C14 C13 0.0(3)
S1 C9 C14 C13 -177.12(18)
