#------------------------------------------------------------------------------
#$Date: 2019-10-28 11:08:19 +0200 (Mon, 28 Oct 2019) $
#$Revision: 219979 $
#$URL: file:///home/coder/svn-repositories/cod/cif/4/51/48/4514818.cif $
#------------------------------------------------------------------------------
#
# This file is available in the Crystallography Open Database (COD),
# http://www.crystallography.net/
#
# All data on this site have been placed in the public domain by the
# contributors.
#
data_4514818
loop_
_publ_author_name
'Yu, Zhunzhun'
'Mendoza, Abraham'
_publ_section_title
;
 Enantioselective Assembly of Congested Cyclopropanes using Redox-Active
 Aryldiazoacetates
;
_journal_issue                   9
_journal_name_full               'ACS Catalysis'
_journal_page_first              7870
_journal_paper_doi               10.1021/acscatal.9b02615
_journal_volume                  9
_journal_year                    2019
_chemical_absolute_configuration ad
_chemical_formula_moiety         'C19 H20 O'
_chemical_formula_sum            'C19 H20 O'
_chemical_formula_weight         264.35
_space_group_crystal_system      monoclinic
_space_group_IT_number           4
_space_group_name_Hall           'P 2yb'
_space_group_name_H-M_alt        'P 1 21 1'
_symmetry_space_group_name_Hall  'P 2yb'
_symmetry_space_group_name_H-M   'P 1 21 1'
_atom_sites_solution_hydrogens   geom
_audit_creation_date             2019-01-17
_audit_creation_method
;
Olex2 1.2
(compiled May 18 2018 14:05:52 for OlexSys, GUI svn.r5506)
;
_cell_angle_alpha                90
_cell_angle_beta                 104.94(2)
_cell_angle_gamma                90
_cell_formula_units_Z            2
_cell_length_a                   8.803(2)
_cell_length_b                   5.4591(11)
_cell_length_c                   15.567(5)
_cell_measurement_reflns_used    6000
_cell_measurement_temperature    100(2)
_cell_measurement_theta_max      78.77
_cell_measurement_theta_min      2.94
_cell_volume                     722.8(3)
_computing_cell_refinement       'SAINT V8.38A (Bruker, 2016)'
_computing_data_reduction        'SAINT V8.38A (Bruker, 2016)'
_computing_molecular_graphics    'Olex2 (Dolomanov et al., 2009)'
_computing_publication_material  'Olex2 (Dolomanov et al., 2009)'
_computing_structure_refinement  'ShelXL (Sheldrick, 2015)'
_computing_structure_solution    'SHELXT 2014/5 (Sheldrick, 2014)'
_diffrn_ambient_temperature      100(1)
_diffrn_measured_fraction_theta_full 0.989
_diffrn_measured_fraction_theta_max 0.978
_diffrn_measurement_device_type  'Bruker APEX-II CCD'
_diffrn_measurement_method       '\f and \w scans'
_diffrn_radiation_type           CuK\a
_diffrn_radiation_wavelength     1.54178
_diffrn_reflns_av_R_equivalents  0.0464
_diffrn_reflns_av_unetI/netI     0.0494
_diffrn_reflns_Laue_measured_fraction_full 0.989
_diffrn_reflns_Laue_measured_fraction_max 0.978
_diffrn_reflns_limit_h_max       11
_diffrn_reflns_limit_h_min       -10
_diffrn_reflns_limit_k_max       6
_diffrn_reflns_limit_k_min       -6
_diffrn_reflns_limit_l_max       19
_diffrn_reflns_limit_l_min       -18
_diffrn_reflns_number            7659
_diffrn_reflns_point_group_measured_fraction_full 0.975
_diffrn_reflns_point_group_measured_fraction_max 0.943
_diffrn_reflns_theta_full        67.679
_diffrn_reflns_theta_max         79.634
_diffrn_reflns_theta_min         2.938
_diffrn_standards_number         0
_exptl_absorpt_coefficient_mu    0.560
_exptl_absorpt_correction_T_max  1.0000
_exptl_absorpt_correction_T_min  0.8290
_exptl_absorpt_correction_type   multi-scan
_exptl_absorpt_process_details
;
SADABS-2016/2 (Bruker,2016) was used for absorption correction.
wR2(int) was 0.1282 before and 0.0647 after correction.
The Ratio of minimum to maximum transmission is 0.8290.
The \l/2 correction factor is Not present.
;
_exptl_crystal_colour            colourless
_exptl_crystal_density_diffrn    1.215
_exptl_crystal_description       prism
_exptl_crystal_F_000             284
_exptl_crystal_size_max          0.322
_exptl_crystal_size_mid          0.121
_exptl_crystal_size_min          0.08
_refine_diff_density_max         0.293
_refine_diff_density_min         -0.372
_refine_diff_density_rms         0.076
_refine_ls_abs_structure_details
;
 Flack x determined using 1117 quotients [(I+)-(I-)]/[(I+)+(I-)]
 (Parsons, Flack and Wagner, Acta Cryst. B69 (2013) 249-259).
;
_refine_ls_abs_structure_Flack   -0.03(18)
_refine_ls_extinction_method     none
_refine_ls_goodness_of_fit_ref   1.182
_refine_ls_hydrogen_treatment    constr
_refine_ls_matrix_type           full
_refine_ls_number_parameters     182
_refine_ls_number_reflns         2949
_refine_ls_number_restraints     1
_refine_ls_restrained_S_all      1.182
_refine_ls_R_factor_all          0.0562
_refine_ls_R_factor_gt           0.0506
_refine_ls_shift/su_max          0.000
_refine_ls_shift/su_mean         0.000
_refine_ls_structure_factor_coef Fsqd
_refine_ls_weighting_details
'w=1/[\s^2^(Fo^2^)+(0.0645P)^2^+0.4484P] where P=(Fo^2^+2Fc^2^)/3'
_refine_ls_weighting_scheme      calc
_refine_ls_wR_factor_gt          0.1385
_refine_ls_wR_factor_ref         0.1466
_reflns_Friedel_coverage         0.740
_reflns_Friedel_fraction_full    0.958
_reflns_Friedel_fraction_max     0.899
_reflns_number_gt                2785
_reflns_number_total             2949
_reflns_threshold_expression     'I > 2\s(I)'
_cod_data_source_file            cs9b02615_si_003.cif
_cod_data_source_block           cu_am_zzy_mvk_0m
_cod_database_code               4514818
_shelx_shelxl_version_number     2018/3
_shelx_space_group_comment
;
The symmetry employed for this shelxl refinement is uniquely defined
by the following loop, which should always be used as a source of
symmetry information in preference to the above space-group names.
They are only intended as comments.
;
_shelx_estimated_absorpt_t_max   0.957
_shelx_estimated_absorpt_t_min   0.719
_olex2_refinement_description
;
1. Fixed Uiso
 At 1.2 times of:
  All C(H) groups, All C(H,H) groups
 At 1.5 times of:
  All C(H,H,H) groups
2.a Ternary CH refined with riding coordinates:
 C6(H6)
2.b Secondary CH2 refined with riding coordinates:
 C3(H3A,H3B), C4(H4A,H4B), C11(H11A,H11B)
2.c Aromatic/amide H refined with riding coordinates:
 C8(H8), C9(H9), C10(H10), C13(H13), C14(H14), C15(H15), C16(H16), C17(H17),
 C18(H18), C19(H19)
2.d Idealised Me refined as rotating group:
 C1(H1A,H1B,H1C)
;
_shelx_res_file
;
TITL cu_AM_ZZY_MVK_0m_a.res in P2(1)
    cu_am_zzy_mvk_0m.res
    created by SHELXL-2018/3 at 11:06:11 on 17-Jan-2019
CELL 1.54178 8.803 5.4591 15.5666 90 104.936 90
ZERR 2 0.0023 0.0011 0.0047 0 0.023 0
LATT -1
SYMM -X,0.5+Y,-Z
SFAC C H O
UNIT 38 40 2

L.S. 30
PLAN  -1 0 0
SIZE 0.08 0.322 0.631
TEMP 20
HTAB
BOND $H
CONF
fmap 2
acta
REM <olex2.extras>
REM <HklSrc "%./cu_AM_ZZY_MVK_0m.hkl">
REM </olex2.extras>

WGHT    0.064500    0.448400
FVAR       1.16200
O1    3    1.142356    0.309224    0.957654    11.00000    0.02647    0.03387 =
         0.02583    0.00924   -0.00149    0.00235
C1    1    1.279857    0.677784    0.942348    11.00000    0.01936    0.03782 =
         0.02127   -0.00338    0.00240    0.00086
AFIX 137
H1A   2    1.360424    0.612045    0.990612    11.00000   -1.50000
H1B   2    1.248892    0.836200    0.958586    11.00000   -1.50000
H1C   2    1.319496    0.692768    0.890623    11.00000   -1.50000
AFIX   0
C2    1    1.139557    0.508530    0.922260    11.00000    0.02072    0.03083 =
         0.01376   -0.00141    0.00169    0.00460
C3    1    0.996362    0.604300    0.855109    11.00000    0.02134    0.01846 =
         0.01819   -0.00038    0.00283    0.00136
AFIX  23
H3A   2    1.022297    0.628071    0.798785    11.00000   -1.20000
H3B   2    0.968586    0.762730    0.874843    11.00000   -1.20000
AFIX   0
C4    1    0.853929    0.434387    0.840666    11.00000    0.01938    0.01944 =
         0.01667    0.00337    0.00265    0.00232
AFIX  23
H4A   2    0.876157    0.284241    0.812877    11.00000   -1.20000
H4B   2    0.836673    0.392040    0.897929    11.00000   -1.20000
AFIX   0
C5    1    0.705061    0.548896    0.782924    11.00000    0.01461    0.02144 =
         0.01524   -0.00021    0.00037    0.00158
C6    1    0.554359    0.495385    0.810784    11.00000    0.01952    0.02457 =
         0.01501    0.00209    0.00467    0.00286
AFIX  13
H6    2    0.572910    0.398094    0.865415    11.00000   -1.20000
AFIX   0
C7    1    0.395667    0.455587    0.750614    11.00000    0.01825    0.02109 =
         0.01503   -0.00211    0.00611    0.00260
C8    1    0.323954    0.616415    0.681909    11.00000    0.01857    0.01752 =
         0.01900   -0.00200    0.00719    0.00114
AFIX  43
H8    2    0.379422    0.751912    0.670176    11.00000   -1.20000
AFIX   0
C9    1    0.171818    0.576758    0.631221    11.00000    0.02022    0.02074 =
         0.01675    0.00027    0.00450    0.00378
AFIX  43
H9    2    0.125412    0.686695    0.586511    11.00000   -1.20000
AFIX   0
C10   1    0.087980    0.371912    0.647145    11.00000    0.01616    0.02205 =
         0.02525   -0.00601    0.00560    0.00175
AFIX  43
H10   2   -0.014065    0.344691    0.613055    11.00000   -1.20000
AFIX   0
C11   1    0.630721    0.746949    0.825836    11.00000    0.01755    0.02966 =
         0.01697   -0.00449    0.00079    0.00358
AFIX  23
H11A  2    0.578809    0.880454    0.788499    11.00000   -1.20000
H11B  2    0.683159    0.793080    0.886396    11.00000   -1.20000
AFIX   0
C12   1    0.701196    0.571664    0.685787    11.00000    0.01514    0.01421 =
         0.01683    0.00371    0.00387    0.00512
C13   1    0.640093    0.384028    0.625422    11.00000    0.01571    0.01348 =
         0.01932    0.00038    0.00410    0.00143
AFIX  43
H13   2    0.594901    0.247215    0.644477    11.00000   -1.20000
AFIX   0
C14   1    0.646379    0.400413    0.536945    11.00000    0.01624    0.01454 =
         0.01651   -0.00383    0.00224    0.00198
AFIX  43
H14   2    0.604783    0.275390    0.497262    11.00000   -1.20000
AFIX   0
C15   1    0.714657    0.603141    0.508115    11.00000    0.01731    0.01838 =
         0.01569    0.00265    0.00368    0.00418
AFIX  43
H15   2    0.720046    0.613282    0.449336    11.00000   -1.20000
AFIX   0
C16   1    0.775015    0.791143    0.567460    11.00000    0.01636    0.01466 =
         0.02305    0.00446    0.00403    0.00038
AFIX  43
H16   2    0.820968    0.926989    0.548289    11.00000   -1.20000
AFIX   0
C17   1    0.766854    0.776580    0.655254    11.00000    0.01591    0.01430 =
         0.02023   -0.00125    0.00099    0.00162
AFIX  43
H17   2    0.805519    0.904639    0.694147    11.00000   -1.20000
AFIX   0
C18   1    0.309093    0.252702    0.765304    11.00000    0.02258    0.01897 =
         0.02309    0.00312    0.01038    0.00608
AFIX  43
H18   2    0.354233    0.143870    0.810668    11.00000   -1.20000
AFIX   0
C19   1    0.158028    0.209280    0.714200    11.00000    0.01814    0.01748 =
         0.03134   -0.00267    0.01041   -0.00056
AFIX  43
H19   2    0.103478    0.071376    0.724741    11.00000   -1.20000
AFIX   0
HKLF 4




REM  cu_AM_ZZY_MVK_0m_a.res in P2(1)
REM wR2 = 0.1466, GooF = S = 1.182, Restrained GooF = 1.182 for all data
REM R1 = 0.0506 for 2785 Fo > 4sig(Fo) and 0.0562 for all 2949 data
REM 182 parameters refined using 1 restraints

END

WGHT      0.0644      0.4488

REM No hydrogen bonds found for HTAB generation

REM Highest difference peak  0.293,  deepest hole -0.372,  1-sigma level  0.076
Q1    1   0.0403  0.0895  0.3354  11.00000  0.05    0.29
;
_shelx_res_checksum              5687
_shelx_hkl_file
;
   1   0   0    7.27    0.47
  -1   0   0    7.17    0.43
  -1   0   0    7.57    0.51
   1   0   0    6.83    0.43
  -1   0   0    7.00    0.44
  -2   0   0 4451.70  223.27
   2   0   0 4708.87  223.84
   2   0   0 4341.76  223.74
  -2   0   0 4233.99  223.24
   2   0   0 5122.21  225.02
   3   0   0  472.71   24.01
   3   0   0  490.91   23.92
   3   0   0  501.76   24.71
   5   0   0   62.45    5.21
   6   0   0  336.06   18.35
   6   0   0  382.99   19.09
   6   0   0  330.44   17.99
   6   0   0  336.79   19.27
   6   0   0  341.74   17.84
   7   0   0  371.91   21.44
   7   0   0  357.06   18.74
   7   0   0  367.05   18.70
   7   0   0  339.22   18.84
   7   0   0  345.22   20.59
   8   0   0   29.33    5.59
   8   0   0   29.23    3.77
   8   0   0   28.52    3.86
   8   0   0   -9.25   28.71
   8   0   0   28.04    3.74
   9   0   0    8.53    3.27
   9   0   0    9.33    2.11
   9   0   0   28.75   26.64
  10   0   0   22.99    2.51
  10   0   0   20.82    2.60
  10   0   0   10.69   23.99
  10   0   0   23.07    4.45
   0  -1   0   -0.05    0.32
   0   1   0    0.00    0.24
   1  -1   0 1747.88   77.79
  -1  -1   0 1670.84   77.00
   1  -1   0 1349.35   76.68
  -1   1   0 1473.98   76.62
   1   1   0 1599.26   76.92
   2  -1   0 1404.07   75.50
   2  -1   0 1650.18   75.71
   2   1   0 1433.32   75.34
   2   1   0 1679.55   75.81
   3  -1   0  174.26    9.45
   3  -1   0  168.04    9.02
   3   1   0  186.27    9.64
   3   1   0  170.01    8.81
   4  -1   0  185.83   11.99
   4  -1   0  193.07   10.53
   4   1   0  229.87   11.57
   4   1   0  208.95   10.36
   5  -1   0   48.11    4.80
   5  -1   0   54.27    4.00
   5   1   0   51.99    5.07
   6  -1   0  109.08    6.84
   6  -1   0   84.22    7.78
   6  -1   0  114.61    9.30
   6  -1   0   99.83    7.91
   6  -1   0  106.10    6.38
   6   1   0   96.89    6.61
   6   1   0  102.41    6.49
   6   1   0   99.68    8.31
   7  -1   0   88.21    8.18
   7  -1   0   79.24    5.75
   7  -1   0   57.39    8.23
   7  -1   0   80.19    8.95
   7  -1   0   74.26    5.33
   7   1   0   72.86    5.45
   7   1   0   85.64    5.62
   7   1   0   77.74    6.72
   7   1   0   61.85    8.77
   8  -1   0    4.80    2.23
   8  -1   0    1.73    3.88
   8  -1   0   -4.58   30.71
   8   1   0    5.79    1.96
   8   1   0    7.32    3.04
   8   1   0   -1.97   29.94
   8   1   0    4.47    2.58
   8   1   0    5.18    2.22
   9  -1   0   29.67    6.32
   9  -1   0   21.60    3.08
   9  -1   0   22.36    3.26
   9  -1   0   40.16   24.17
  -9  -1   0   15.18    4.27
   9   1   0   28.85    3.22
   9   1   0   27.41    4.37
   9   1   0   31.70   29.23
  10  -1   0   17.09    2.74
  10  -1   0   16.87    2.57
  10  -1   0   17.40    4.48
  10   1   0   18.08    2.25
  10   1   0   17.45    2.19
  10   1   0   14.21    3.44
   0  -2   0   37.94    2.32
   0   2   0   31.67    2.01
  -1  -2   0  111.93    5.63
   1   2   0  100.15    5.50
   2  -2   0  496.36   25.06
  -2  -2   0  515.07   24.65
  -2   2   0  495.82   24.55
  -2   2   0  496.50   24.61
   2   2   0  496.45   24.76
   3  -2   0  446.15   20.68
   3  -2   0  375.20   20.28
   3   2   0  389.36   19.96
  -3   2   0  390.34   19.58
   4  -2   0  748.60   37.24
   4  -2   0  732.74   37.67
   4   2   0  755.45   38.04
   5  -2   0  143.74    8.10
   5  -2   0  149.90    8.18
   5  -2   0  147.17   12.24
   5  -2   0  125.22    9.99
   5  -2   0  146.13    9.34
   5   2   0  139.98    9.00
   5   2   0  139.27    9.69
   5   2   0  139.97    8.30
   5   2   0  144.61    8.39
   6  -2   0   81.01    6.45
   6  -2   0   79.49    7.33
   6  -2   0   74.95    5.29
   6  -2   0   90.28   10.44
   6   2   0   75.76    5.84
   6   2   0   73.45    8.55
   6   2   0   77.14    5.64
   6   2   0   77.70    5.65
   7  -2   0  477.49   23.83
   7  -2   0  501.09   24.43
   7  -2   0  440.47   27.01
   7  -2   0  454.88   24.75
   7  -2   0  489.65   26.35
   7   2   0  451.89   27.24
   7   2   0  482.84   24.18
   7   2   0  468.81   24.17
   8  -2   0  166.11    9.52
   8  -2   0  154.98    9.17
  -8  -2   0  152.05    9.94
   8   2   0  171.46    9.31
   8   2   0  150.49   10.55
   8   2   0  168.41    9.30
   8   2   0  163.97   10.02
   9  -2   0   50.92    4.20
  -9  -2   0   46.69    4.85
   9  -2   0   34.20    3.93
   9   2   0   39.85    3.53
   9   2   0   47.39    3.62
   9   2   0   49.64    4.36
  10   2   0  110.63    6.41
  10   2   0  104.43    5.97
   0  -3   0    0.18    0.90
   0   3   0    0.40    0.67
   1  -3   0  677.57   34.20
  -1  -3   0  707.25   34.02
  -1   3   0  667.27   33.71
   1   3   0  680.59   33.82
   2  -3   0   42.05    3.39
  -2  -3   0   44.64    3.05
   2   3   0   38.49    2.82
  -2   3   0   45.86    2.61
  -3  -3   0   38.98    5.14
   3  -3   0   48.32    3.65
  -3   3   0   38.87    2.48
   3   3   0   43.29    4.26
   3   3   0   45.10    3.14
   4  -3   0  141.83    8.24
  -4  -3   0  127.43    8.90
   4  -3   0  131.72    9.56
  -4  -3   0  146.65   10.64
   4  -3   0  137.92    8.29
   4   3   0  145.46   10.08
   4   3   0  143.61    7.89
   4   3   0  139.03    8.41
   4   3   0  143.37    7.79
   4   3   0  138.28    8.20
   5  -3   0  450.65   25.05
  -5  -3   0  422.69   25.07
   5  -3   0  486.14   24.78
   5  -3   0  497.17   24.11
   5   3   0  514.47   24.00
   5   3   0  510.75   24.52
   5   3   0  428.31   25.03
   5   3   0  508.15   26.68
   6  -3   0  182.83   11.87
  -6  -3   0  188.83   11.66
   6  -3   0  195.99   10.50
   6   3   0  190.23   15.58
   6   3   0  203.76   10.91
   6   3   0  204.84   10.41
   6   3   0  201.69   11.00
   6   3   0  193.06   11.19
  -7  -3   0   39.82    5.19
   7  -3   0   50.17    4.17
   7   3   0   49.80    4.37
   7   3   0   49.81    4.56
  -8  -3   0   95.37    6.73
   8   3   0  112.50    6.87
   8   3   0  102.40    6.41
   8   3   0   98.26    6.20
  -9  -3   0  202.36   11.65
   9   3   0  221.51   11.48
   0  -4   0  137.40    8.80
   0  -4   0  147.10    8.78
   0  -4   0  139.42    8.08
   0  -4   0  129.89    8.98
   0   4   0  131.48    9.32
   0   4   0  136.44    7.54
  -1  -4   0   83.59    6.50
   1  -4   0   89.12    5.90
  -1  -4   0   88.74    6.98
  -1  -4   0   98.15    6.02
   1  -4   0   92.10    6.72
   1  -4   0   89.80    6.79
  -1  -4   0   86.89    6.69
   1  -4   0   86.34    7.00
   1   4   0   93.19    6.56
  -1   4   0   83.55    5.18
   1   4   0   89.26    5.39
  -2  -4   0  105.72    7.59
   2  -4   0   93.87    7.36
  -2  -4   0  103.48    7.05
   2  -4   0  103.20    7.01
   2  -4   0  100.90    7.60
  -2  -4   0  100.92    7.08
   2  -4   0   99.06    6.64
   2   4   0  102.10    6.77
   2   4   0  103.31    9.61
  -2   4   0   98.75    5.78
   2   4   0  108.17    6.21
   3  -4   0  174.62   11.94
   3  -4   0  208.98   11.61
   3   4   0  204.77   11.05
   3   4   0  214.00   14.18
  -4  -4   0  117.45    8.10
  -4  -4   0  125.61    8.92
   4  -4   0  113.76    8.43
   4  -4   0  119.73    8.10
   4   4   0  131.61   13.10
   4   4   0  117.83    7.49
   4   4   0  120.28    6.86
   4   4   0  124.84    8.05
   5  -4   0   31.93    5.34
  -5  -4   0   38.21    6.04
  -5  -4   0   42.32    4.93
   5   4   0   46.49    3.31
   5   4   0   42.94    3.91
  -6  -4   0   33.65    4.49
   6   4   0   31.71    3.38
  -7  -4   0   24.39    3.48
  -8  -4   0   19.29    2.47
   8   4   0   22.74    2.59
   8   4   0   21.10    2.79
   0  -5   0   -0.49    2.14
   0  -5   0    0.87    2.36
   0   5   0    0.39    2.66
   0   5   0   -1.85    2.34
   1  -5   0  338.65   17.31
  -1  -5   0  332.25   17.71
  -1  -5   0  352.45   17.68
   1  -5   0  333.54   17.97
  -1  -5   0  331.78   17.86
   1  -5   0  323.48   18.71
   1   5   0  323.54   17.60
   1   5   0  312.78   17.52
  -1   5   0  349.32   17.80
  -2  -5   0  334.43   18.51
   2  -5   0  333.20   18.59
  -2  -5   0  341.07   18.36
   2   5   0  365.11   17.80
   2   5   0  360.68   18.24
  -3  -5   0  104.11    7.37
   3  -5   0  100.97    7.50
  -3  -5   0  110.29    7.16
   3   5   0  110.64    6.17
   3   5   0  102.88    6.73
  -4  -5   0   95.38    8.47
  -4  -5   0  114.91    7.02
   4   5   0  105.35    6.12
   4   5   0  105.71    6.85
  -5  -5   0    4.20    2.34
  -5  -5   0    5.65    1.96
   5  -5   0    3.35    2.73
   5   5   0    6.67    1.64
   5   5   0    8.22    1.31
  -6  -5   0    1.99    2.11
  -6  -5   0    1.99    1.52
   6   5   0    1.32    1.12
  -7  -5   0   43.59    3.06
   7   5   0   41.25    3.80
   0  -6   0  226.74   11.59
   0   6   0  216.52   11.41
  -1  -6   0    7.48    1.83
   1  -6   0    8.15    1.93
   1   6   0    8.07    1.35
   2  -6   0   76.20    5.59
  -2   6   0   76.20    4.86
   2   6   0  102.24    5.45
   2   6   0   88.30    4.85
  -3  -6   0  114.81    6.57
  -3  -6   0  107.20    6.43
   3  -6   0  107.39    6.61
   3   6   0  118.59    7.76
   3   6   0  106.23    5.90
   3   6   0  111.49    6.28
  -4  -6   0   49.80    3.58
  -4  -6   0   52.26    4.73
   4   6   0   47.64    2.94
  -5  -6   0   35.52    2.95
   5   6   0   28.79    1.96
  10   0  -1    9.56    3.02
  10   0  -1    9.32    1.82
  10   0  -1   16.31    2.50
  10   0  -1   -2.68   19.31
   9   0  -1   12.88    2.97
   8   0  -1    7.89    9.85
   8   0  -1    2.02    2.54
   8   0  -1   -7.74   31.06
   8   0  -1   -2.81    2.87
   8   0  -1   -4.16    2.18
   8   0  -1    2.41    1.97
   7   0  -1  347.86   20.46
   7   0  -1  381.86   19.00
   7   0  -1  370.86   21.11
   7   0  -1  355.91   19.19
   7   0  -1  366.43   20.38
   6   0  -1   90.53    6.32
   6   0  -1   50.02   41.21
   6   0  -1   93.52    7.74
   6   0  -1   95.12    7.56
   6   0  -1  103.33    6.30
   6   0  -1  101.68    7.04
   5   0  -1  159.21    9.65
   4   0  -1  155.49    8.94
   3   0  -1  912.80   44.04
  -3   0   1  860.83   43.38
   2   0  -1    3.97    0.53
   2   0  -1    5.13    1.12
   1   0  -1  504.12   25.72
  -1   0   1  543.33   25.66
   0   0   1  146.58    7.29
   0   0  -1  149.71    7.35
   0   0   1  149.50    7.34
   0   0  -1  149.37    7.30
   1   0   1  240.09   11.66
   1   0   1  222.32   11.73
   1   0   1  245.20   11.96
  -1   0  -1  244.22   11.68
   2   0   1 3039.85  139.38
   2   0   1 3179.06  141.29
  -2   0  -1 2476.91  139.12
   2   0   1 2715.72  139.71
   3   0   1   23.02    2.39
   3   0   1   24.59    1.54
   4   0   1    8.41    1.09
   5   0   1  285.88   15.80
   6   0   1    6.87    2.16
   6   0   1   46.16   36.94
   6   0   1    9.06    3.79
   6   0   1   10.43    3.55
   6   0   1    7.03    2.25
   7   0   1  482.75   27.68
   7   0   1  545.21   26.87
   7   0   1  489.71   25.64
   7   0   1  503.77   25.87
   8   0   1  120.88    7.57
   8   0   1  121.48    8.97
   8   0   1  128.05    7.68
   9   0   1  157.63    8.74
   9   0   1  152.93    8.78
   9   0   1  158.40   10.04
  10   0   1   12.58    2.14
  10   0   1   10.49   23.89
  10   0   1   13.56    3.48
  10   0   1   14.49    2.19
  10  -1  -1   10.52    2.22
  10  -1  -1    6.06   18.90
  10  -1  -1   10.40    1.78
  10   1  -1   10.94    2.17
  10   1  -1    6.28    2.40
  10   1  -1   13.84    2.22
   9  -1  -1   31.68    6.17
   9  -1  -1   23.41    3.39
   9  -1  -1   19.29    3.47
   9   1  -1   21.72    3.36
   9   1  -1   23.41    3.24
   9   1  -1   25.39   32.53
   9   1  -1   16.62    2.83
   8  -1  -1   10.64    2.43
   8  -1  -1   17.10    4.18
   8  -1  -1    5.73   30.75
   8   1  -1    7.08    2.33
   8   1  -1  -10.24   32.48
   7  -1  -1  171.60   12.68
   7  -1  -1  164.18   10.14
   7  -1  -1  181.42   11.33
   7  -1  -1  186.95   12.03
   7   1  -1  176.00   10.14
   7   1  -1  170.07   13.02
   7   1  -1  207.97   11.26
   7   1  -1  165.47   10.01
   6  -1  -1   75.77    6.78
   6  -1  -1   82.77    5.86
   6  -1  -1   66.32    5.58
   6  -1  -1   77.15    6.48
   6  -1  -1   27.42   35.38
   6  -1  -1   87.51    7.96
   6   1  -1   72.60    5.55
   6   1  -1   83.30    5.39
   6   1  -1   84.02    7.26
   6   1  -1   52.96   49.77
   5  -1  -1 1204.71   58.46
   5   1  -1 1128.89   58.60
   4  -1  -1  586.52   29.76
   4  -1  -1  626.66   30.42
   4   1  -1  585.86   29.57
  -3  -1   1  315.43   15.63
   3  -1  -1  323.07   16.11
   3  -1  -1  305.87   15.76
   3   1  -1  312.19   15.61
  -2  -1   1  476.15   23.41
  -2  -1   1  440.28   23.48
   2  -1  -1  472.83   23.64
   2  -1  -1  540.40   23.79
   2   1  -1  461.75   23.50
  -2   1   1  472.73   23.31
  -1  -1   1   59.54    3.08
  -1  -1   1   56.37    3.03
  -1   1   1   58.03    2.94
   0  -1  -1 7934.93  381.62
   0  -1   1 8013.08  382.12
   0  -1   1 7507.27  380.91
   0   1   1 7748.13  381.04
   1  -1   1  800.60   41.52
   1  -1   1  881.00   41.62
   1   1   1  909.50   41.62
   1   1   1  761.65   41.33
  -1   1  -1  870.81   41.26
   2  -1   1  523.01   27.80
  -2   1  -1  613.30   27.43
   2   1   1  548.02   27.60
   3  -1   1 2100.73  102.17
   3  -1   1 2010.89  101.78
   3   1   1 2116.64  102.26
  -3   1  -1 2087.68  101.41
   3   1   1 2072.58  101.53
   4  -1   1  950.23   46.07
   4  -1   1  923.60   45.40
   4   1   1  911.00   45.08
   4   1   1  889.09   46.16
   5  -1   1  231.80   12.92
   5  -1   1  270.29   14.13
   5   1   1  247.48   14.28
   6  -1   1  152.55   10.81
   6  -1   1  134.03    9.29
   6  -1   1  136.19    7.65
   6  -1   1  127.47    8.16
   6   1   1  123.25    9.79
   6   1   1  122.64    8.10
   6   1   1  138.50    7.90
   7  -1   1  213.58   13.72
   7  -1   1  213.62   11.42
   7  -1   1  205.48   14.16
   7  -1   1  229.99   11.87
   7   1   1  215.16   12.73
   7   1   1  207.99   11.66
   7   1   1  202.04   11.94
   7   1   1  214.80   11.65
   7   1   1  192.72   14.36
   8  -1   1   47.92    4.27
   8  -1   1   44.90    7.77
   8  -1   1   44.80    4.30
   8   1   1   52.01    5.84
   8   1   1   46.46    4.33
   8   1   1    8.88   35.77
   8   1   1   56.13    4.58
  -9  -1  -1  125.94    8.54
   9  -1   1  137.99    7.86
   9  -1   1  134.87    7.59
   9   1   1  139.17    8.68
   9   1   1  130.90    7.70
   9   1   1  142.84    7.78
  10  -1   1   52.78    3.98
  10  -1   1   55.32    3.58
  10   1   1   41.88    4.93
  10   1   1   55.53    3.44
  10   1   1   48.93    3.46
  10  -2  -1    8.76    2.26
  10  -2  -1    4.44   17.43
  10   2  -1    9.37    2.12
  10   2  -1    6.35    1.71
   9  -2  -1    3.96    2.75
   9  -2  -1   -2.91   20.69
   9  -2  -1    2.06    4.55
  -9  -2   1    9.36    3.07
   9   2  -1    3.80    1.64
   9   2  -1    8.55    1.79
   9   2  -1    6.95    2.01
   9   2  -1    5.41    2.17
  -8  -2   1  140.92    9.28
   8  -2  -1  143.15    8.38
   8  -2  -1  119.52    9.11
   8  -2  -1  150.21   11.21
   8  -2  -1  147.20    8.75
   8   2  -1  141.66    8.43
   8   2  -1  149.73    8.51
   8   2  -1  162.83    9.44
   7  -2  -1  510.56   26.42
   7  -2  -1  528.22   28.19
   7  -2  -1  490.79   29.55
   7  -2  -1  474.09   26.59
   7  -2  -1  531.22   25.97
   7   2  -1  498.12   29.18
   7   2  -1  540.49   26.30
   7   2  -1  536.99   26.28
   6  -2  -1  779.47   37.14
   6  -2  -1  722.21   38.12
   6  -2  -1  701.66   37.19
   6  -2  -1  732.97   36.56
   6  -2  -1  758.19   38.62
   6   2  -1  683.11   40.20
   6   2  -1  741.90   36.83
   6   2  -1  716.10   36.87
   6   2  -1  759.18   36.46
   6   2  -1  743.52   36.93
   5  -2  -1  350.86   19.88
   5  -2  -1  382.26   19.28
   5  -2  -1  395.59   20.17
   5  -2  -1  395.54   20.78
   5   2  -1  372.82   19.36
   5   2  -1  381.83   20.62
   5   2  -1  345.51   19.29
   4  -2  -1  365.49   18.63
   4  -2  -1  359.70   19.10
   4   2  -1  369.70   19.58
   3  -2  -1  710.53   35.10
   3   2  -1  704.26   34.78
   3   2  -1  711.81   36.00
  -3   2   1  689.22   34.39
   2  -2  -1   73.51    4.37
  -2  -2   1   78.12    4.11
   2   2  -1   75.84    4.12
  -2   2   1   71.78    3.84
   1  -2  -1  667.78   31.79
  -1  -2   1  651.65   31.71
  -1   2   1  615.85   31.45
   1   2  -1  627.88   31.56
   0  -2   1   21.71    1.74
   0  -2  -1   22.77    1.66
   0   2  -1   20.57    1.45
   0   2   1   20.88    1.42
  -1  -2  -1  210.09   10.45
   1  -2   1  196.76   10.72
   1   2   1  213.19   10.43
   2  -2   1  160.46    8.44
   2   2   1  149.05    8.04
  -2   2  -1  155.29    7.86
   2   2   1  163.27    8.87
   3  -2   1  323.73   17.55
  -3   2  -1  338.49   16.81
   3   2   1  336.56   17.18
   3   2   1  373.17   18.18
   4  -2   1   49.54    4.49
   4  -2   1   45.36    3.58
   5  -2   1   78.25    5.26
   5  -2   1   83.21    6.79
   5  -2   1   81.52    5.34
   5  -2   1   82.34    7.16
   5   2   1   77.13    5.68
   5   2   1   81.15    7.29
   5   2   1   77.95    5.75
   6  -2   1  185.27   15.84
   6  -2   1  152.43   11.28
   6  -2   1  183.54    9.96
   6  -2   1  209.11   10.92
   6  -2   1  177.78   12.49
   6   2   1  177.37   13.16
   6   2   1  202.80   10.57
   6   2   1  170.68   10.85
   7  -2   1  240.88   17.24
   7  -2   1  261.26   14.05
   7  -2   1  277.12   13.48
   7  -2   1  222.69   17.63
   7   2   1  265.52   13.86
   7   2   1  246.53   17.95
   7   2   1  270.91   13.85
   8  -2   1    9.15   26.26
   8   2   1   37.69    4.50
   8   2   1   37.35    3.98
   8   2   1   49.38    4.02
   8   2   1   35.27    4.63
   9  -2   1  321.05   16.89
   9  -2   1  328.04   17.22
  -9  -2  -1  311.70   17.34
   9   2   1  356.64   17.65
   9   2   1  346.78   17.08
   9   2   1  335.38   17.03
  10  -2   1   -3.91   12.58
  10   2   1   14.32    2.30
  10   2   1    9.09    2.13
  -9  -3   1   31.03    4.87
   9   3  -1   40.77    3.60
   9   3  -1   34.05    3.54
   8  -3  -1  101.34    9.00
  -8  -3   1   81.53    6.49
   8   3  -1   99.81    6.36
   8   3  -1   93.39    6.28
   8   3  -1   82.85    5.72
   7  -3  -1  184.14   11.75
   7  -3  -1  172.49   14.32
  -7  -3   1  198.09   11.45
   7  -3  -1  185.35   11.60
   7   3  -1  202.55   10.96
   7   3  -1  203.31   10.88
   7   3  -1  200.92   10.25
   6  -3  -1   18.24    6.96
   6  -3  -1   19.71   30.24
  -6  -3   1   13.99    3.45
   6  -3  -1   13.64    3.48
   6   3  -1   12.95    2.62
   6   3  -1   17.92    2.62
   6   3  -1   15.97    2.50
   6   3  -1   14.29    7.03
  -5  -3   1  196.46   14.80
   5  -3  -1  164.76   10.49
   5  -3  -1  153.24    9.52
  -5  -3   1  156.13    9.99
   5  -3  -1  155.86   14.59
   5   3  -1  162.38   10.10
   5   3  -1  156.93    9.33
   5   3  -1  160.31    9.29
   5   3  -1  172.97    8.84
   5   3  -1  166.98   12.08
  -4  -3   1  193.29   12.41
   4  -3  -1  195.87   16.21
  -4  -3   1  165.72   10.67
   4  -3  -1  180.58   10.12
   4  -3  -1  166.07   11.08
   4   3  -1  184.27    9.60
   4   3  -1  176.60   10.10
   4   3  -1  171.53   10.04
   4   3  -1  180.28    9.79
   4   3  -1  190.22   11.81
   3  -3  -1  253.70   13.41
  -3  -3   1  227.00   14.05
   3   3  -1  260.40   14.60
   3   3  -1  253.42   13.05
  -3   3   1  263.04   12.55
  -2  -3   1   10.22    1.56
   2  -3  -1    7.72    1.44
   2   3  -1    5.61    1.09
  -2   3   1    9.18    1.13
   1  -3  -1  302.30   15.19
   1   3  -1  289.74   14.84
  -1   3   1  288.05   14.72
   0  -3  -1  139.34    7.70
   0  -3   1  153.56    7.91
   0   3  -1  137.41    7.39
   0   3   1  135.17    7.37
  -1  -3  -1   70.71    4.01
   1  -3   1   64.05    4.34
  -1   3  -1   62.79    3.66
   1   3   1   60.69    3.74
   2  -3   1  300.23   15.93
   2   3   1  325.70   16.60
  -2   3  -1  283.67   15.17
   2   3   1  305.58   15.41
   3  -3   1   84.09    5.56
   3   3   1   79.40    5.90
   3   3   1   81.82    7.06
  -3   3  -1   82.63    4.40
   3   3   1   85.80    4.95
   4  -3   1   50.73    4.35
   4  -3   1   54.02    4.57
  -4  -3  -1   46.86    8.16
   4  -3   1   41.15    6.86
   4   3   1   51.08    4.22
   4   3   1   49.69    4.18
   4   3   1   54.63    4.60
   4   3   1   57.27    5.02
   4   3   1   59.24    7.19
   4   3   1   56.73    4.03
   5  -3   1  136.83    8.03
   5  -3   1  125.96    9.86
   5  -3   1  132.82    8.44
   5   3   1  125.41    7.48
   5   3   1  145.78    8.96
   5   3   1  141.93    8.37
   5   3   1  116.49   11.01
   6  -3   1  556.41   30.10
  -6  -3  -1  585.57   30.04
   6  -3   1  594.84   29.02
   6   3   1  597.10   29.44
   6   3   1  597.86   29.51
   6   3   1  562.31   32.92
   6   3   1  563.65   29.41
  -7  -3  -1  355.23   19.42
   7  -3   1  347.59   18.51
   7   3   1  360.51   18.84
   7   3   1  387.56   18.94
  -8  -3  -1  436.31   22.76
   8  -3   1  421.71   22.14
   8   3   1  446.94   22.41
   8   3   1  473.40   22.96
   8   3   1  446.39   22.36
   8   3   1  425.08   22.30
   9   3   1    3.61    1.47
  -8  -4   1  113.61    6.70
   8   4  -1  119.12    6.95
  -7  -4   1   17.01    3.36
   7  -4  -1   12.44    3.24
   7   4  -1   14.69    1.81
   7   4  -1   15.77    3.70
  -6  -4   1   39.78    4.54
   6  -4  -1   35.59    5.85
   6   4  -1   36.11    2.91
   6   4  -1   35.15    3.59
  -5  -4   1   55.04    5.38
  -5  -4   1   52.82    6.43
   5  -4  -1   52.84    5.98
   5   4  -1   58.23    4.55
   5   4  -1   58.61    3.89
   4  -4  -1  139.60    9.19
  -4  -4   1  131.48    8.66
   4  -4  -1  136.07    8.77
  -4  -4   1  144.15    9.31
   4   4  -1  128.02   12.62
   4   4  -1  151.03    8.75
   4   4  -1  132.42    7.50
   4   4  -1  134.20    8.16
  -3  -4   1   79.86    8.47
   3  -4  -1   67.48    7.27
   3  -4  -1   84.33    6.15
   3   4  -1   98.53    9.82
   3   4  -1   90.64    5.77
   3   4  -1   89.04    5.99
  -2  -4   1   11.87    3.31
  -2  -4   1    6.35    2.36
   2  -4  -1    8.20    2.98
   2  -4  -1    4.55    2.96
  -2  -4   1    6.06    2.41
   2  -4  -1    6.13    1.99
   2   4  -1    8.49    1.80
  -2   4   1    7.34    1.52
   2   4  -1    8.48    2.51
  -1  -4   1  110.73    7.25
   1  -4  -1  111.68    7.59
   1  -4  -1  112.49    6.81
   1  -4  -1   86.49   16.46
  -1  -4   1   99.88    7.45
  -1  -4   1  109.08    7.50
   1  -4  -1  109.07    7.77
  -1  -4   1  113.34    6.91
   1   4  -1  105.47    6.27
   1   4  -1  106.72    7.47
  -1   4   1  111.13    6.12
   0  -4   1  219.44   11.84
   0  -4   1  209.12   12.08
   0  -4  -1  206.53   12.07
   0  -4  -1  182.74   17.79
   0  -4   1  205.12   11.51
   0  -4   1  206.92   11.89
   0  -4  -1  218.72   11.47
   0  -4  -1  215.56   12.15
   0  -4  -1  202.38   12.05
   0   4   1  206.31   10.92
   0   4   1  209.32   12.17
   0   4  -1  203.74   10.93
   1  -4   1   76.70    6.07
   1  -4   1   67.77    6.38
  -1  -4  -1   78.31    6.17
   1  -4   1   81.19    5.84
   1  -4   1   76.66    5.36
  -1  -4  -1   67.04    6.19
  -1  -4  -1   68.42    6.02
   1   4   1   64.68    8.25
   1   4   1   75.40    4.68
  -1   4  -1   70.08    4.50
   1   4   1   78.86    5.99
  -2  -4  -1  296.79   16.27
  -2  -4  -1  287.98   16.51
   2  -4   1  286.03   16.40
  -2  -4  -1  304.02   16.17
   2  -4   1  337.71   16.72
   2  -4   1  321.48   16.97
   2  -4   1  274.28   15.59
   2   4   1  291.46   15.92
   2   4   1  280.69   17.84
  -2   4  -1  301.06   15.18
   3  -4   1   55.71    5.16
   3  -4   1   72.05    5.60
  -3  -4  -1   69.55    6.11
   3   4   1   72.05    5.56
   3   4   1   71.60    5.12
   3   4   1   64.53    5.18
   3   4   1   73.29   10.52
   4  -4   1  283.33   15.57
  -4  -4  -1  307.54   16.58
  -4  -4  -1  293.71   16.93
   4  -4   1  282.57   16.64
   4  -4   1  308.21   16.74
   4   4   1  297.11   20.99
   4   4   1  306.72   15.46
   4   4   1  309.82   16.21
   4   4   1  318.71   16.06
   5  -4   1  215.41   12.26
  -5  -4  -1  247.94   13.49
  -5  -4  -1  241.47   13.89
   5  -4   1  216.09   13.62
   5   4   1  237.35   12.16
   5   4   1  246.94   12.79
  -6  -4  -1   44.27    4.62
   6  -4   1   41.14    3.65
  -6  -4  -1   48.39    6.84
   6   4   1   35.89    3.15
   6   4   1   40.51    3.66
  -7  -4  -1    1.98    1.99
  -8  -4  -1   38.45    3.25
   8   4   1   39.84    3.44
  -7  -5   1   35.32    3.48
  -6  -5   1  173.97    9.19
   6  -5  -1  175.74   10.24
  -6  -5   1  155.42    9.36
   6   5  -1  162.26    9.60
   6   5  -1  162.59    8.53
  -5  -5   1   62.82    5.39
  -5  -5   1   73.46    4.97
   5  -5  -1   62.43    5.59
   5   5  -1   65.19    3.99
   5   5  -1   68.97    4.63
  -4  -5   1   16.57    2.97
  -4  -5   1   13.02    2.63
   4   5  -1   14.24    2.92
   4   5  -1   15.18    2.14
   3  -5  -1    0.43    2.42
  -3  -5   1    5.88    2.45
  -3  -5   1    2.78    2.35
   3   5  -1    2.53    1.93
   3   5  -1    2.84    1.46
  -2  -5   1  432.85   22.05
   2  -5  -1  382.07   22.23
  -2  -5   1  435.36   22.13
   2   5  -1  431.20   21.42
   2   5  -1  428.68   21.83
  -1  -5   1  114.72    7.09
  -1  -5   1  101.24    6.83
   1  -5  -1  107.47    7.55
  -1  -5   1  107.67    7.21
   1  -5  -1  109.54    6.69
  -1   5   1  105.42    7.61
   1   5  -1   97.82    7.12
  -1   5   1   89.31    6.94
   1   5  -1  100.95    7.19
   0  -5  -1  194.53   11.59
   0  -5  -1  196.74   11.28
   0  -5  -1  199.61   11.31
   0  -5   1  196.45   11.09
   0  -5   1  206.09   11.58
   0   5   1  204.03   11.42
   0   5   1  195.45   11.02
   0   5  -1  195.75   11.09
  -1  -5  -1   23.95    4.10
   1  -5   1   24.85    3.38
  -1  -5  -1   21.44    4.23
   1  -5   1   18.60    6.32
   1   5   1   24.83    3.81
   1   5   1   26.64    4.93
  -2  -5  -1   60.44    5.25
  -2  -5  -1   62.35    5.59
   2  -5   1   58.05    4.67
   2  -5   1   57.59    5.60
   2   5   1   65.61    4.97
  -3  -5  -1   90.28    6.77
   3  -5   1   87.12    6.80
   3  -5   1   88.47    6.23
  -3  -5  -1   92.72    6.49
   3   5   1   92.29    6.14
   3   5   1   94.37    5.47
   4  -5   1   35.82    4.83
  -5  -5  -1   22.61    3.18
  -5  -5  -1   15.21    2.77
   5   5   1   16.62    2.61
   5   5   1   15.46    1.93
  -6  -5  -1   -0.13    3.27
  -6  -5  -1    5.40    1.75
   6   5   1    2.18    1.31
  -7  -5  -1   24.09    2.26
   7   5   1   18.01    2.75
  -5  -6   1   12.42    1.80
   5   6  -1   12.53    1.25
  -4  -6   1  239.37   12.87
   4  -6  -1  243.10   12.94
  -4  -6   1  272.97   12.92
   4   6  -1  239.80   12.49
   3  -6  -1   -0.31    1.77
  -3  -6   1    2.30    1.59
  -3  -6   1    0.11    1.38
  -3   6   1    0.21    1.36
   3   6  -1    2.13    1.55
   3   6  -1    2.17    0.97
   3   6  -1    3.59    2.01
   2  -6  -1  466.70   24.54
  -2  -6   1  492.22   24.39
   2   6  -1  490.08   24.06
  -1  -6   1   34.14    3.14
   1  -6  -1   38.25    3.72
   1   6  -1   35.34    2.61
   0  -6  -1  104.54    6.31
   0  -6   1  109.11    6.26
   0   6  -1  111.57    6.02
   0   6   1  112.11    6.05
  -1  -6  -1   12.75    2.70
  -1   6  -1   15.42    2.03
   1   6   1   14.06    2.07
   1   6   1   14.71    1.89
  -2  -6  -1   92.17    5.53
   2   6   1   87.42    5.33
  -2   6  -1   79.28    4.93
   2   6   1   90.09    4.90
  -3  -6  -1    3.36    1.86
  -3  -6  -1    4.73    1.61
   3   6   1    3.73    1.37
   3   6   1    3.39    1.01
  -4  -6  -1    4.22    1.49
  -4  -6  -1    6.17    1.86
   4   6   1    7.09    1.92
   4   6   1    5.94    1.33
  -5  -6  -1   35.21    3.19
  11   0  -2    6.81    1.36
  10   0  -2  140.60    7.97
  10   0  -2  150.04    9.05
  10   0  -2  138.65    7.88
   9   0  -2   53.55    4.29
   9   0  -2   41.44    7.12
   9   0  -2   50.54    6.00
   8   0  -2  171.75   10.92
   8   0  -2  182.30   10.60
   8   0  -2  205.11   15.75
   8   0  -2  196.83   10.83
   8   0  -2  202.90   12.06
   7   0  -2   35.00    4.10
   7   0  -2   33.04    3.91
   7   0  -2   32.59    4.39
   7   0  -2   22.70   35.17
   7   0  -2   26.39    5.31
   7   0  -2   34.24    7.39
   5   0  -2   40.31    4.27
   4   0  -2    2.28    1.69
  -4   0   2    2.51    0.61
  -3   0   2  238.01   12.08
   3   0  -2  215.66   12.05
   3   0  -2  279.46   12.78
  -2   0   2   14.91    0.94
  -1   0   2  125.18    6.19
   0   0   2 1389.06   67.76
   0   0   2 1376.54   67.98
   1   0   2 1056.13   49.74
   1   0   2  948.49   49.53
   1   0   2 1031.06   49.40
   2   0   2  627.54   29.99
   2   0   2  620.94   29.38
   2   0   2  553.27   29.53
   3   0   2 1919.92   93.70
   3   0   2 1907.02   94.55
   3   0   2 1931.99   93.88
   4   0   2  112.62    5.92
   4   0   2  113.72    7.11
   5   0   2   10.93    3.02
   6   0   2   12.99    2.48
   6   0   2    6.81    4.07
   6   0   2    7.22    3.69
   7   0   2  112.21    7.36
   7   0   2  107.50   10.05
   7   0   2  122.26    7.17
   7   0   2  132.97    9.11
   8   0   2   50.06    4.54
   8   0   2   59.70    6.79
   8   0   2   54.63    4.53
   9   0   2   36.34    5.67
   9   0   2   33.96    3.35
   9   0   2   34.12    3.23
  10   0   2    4.05   21.13
  10   0   2   34.64    3.28
  10  -1  -2   12.90    3.04
  10  -1  -2   17.00    2.57
  10   1  -2   14.69    2.61
  10   1  -2   16.39    2.36
  10   1  -2   11.63    2.58
   9  -1  -2   69.90    6.18
   9  -1  -2   70.51    5.19
   9   1  -2   65.93    5.40
   9   1  -2  128.59   41.51
   8  -1  -2  153.49    9.42
   8  -1  -2  162.47   11.15
   8  -1  -2  155.83    9.20
   8  -1  -2  156.54    9.80
   8   1  -2  169.61    9.38
   8   1  -2  170.03   10.33
   8   1  -2  157.18    9.35
   8   1  -2  158.79    9.32
   7  -1  -2  431.26   23.17
   7  -1  -2  499.60   23.89
   7  -1  -2  410.95   24.98
   7   1  -2  492.57   24.40
   7   1  -2  495.61   24.56
   7   1  -2  404.63   25.41
   6  -1  -2  239.26   40.12
   6  -1  -2  273.95   15.35
   6  -1  -2  295.42   15.16
   6  -1  -2  281.49   16.27
   6  -1  -2  275.00   15.01
   6  -1  -2  283.00   16.03
   6   1  -2  262.93   16.32
   6   1  -2  293.34   15.06
   6   1  -2  317.80   15.97
   6   1  -2  282.28   14.97
   5  -1  -2   49.68    4.64
   5   1  -2   49.69    4.89
  -4  -1   2   26.43    1.93
   4  -1  -2   23.09    2.90
   4   1  -2   22.01    1.93
  -4   1   2   24.93    1.41
  -3  -1   2 1358.79   71.68
   3  -1  -2 1420.22   71.82
   3  -1  -2 1398.01   72.05
  -3  -1   2 1464.49   71.71
  -3   1   2 1645.93   71.49
   3   1  -2 1418.71   71.70
   3   1  -2 1548.38   72.33
  -2  -1   2 1047.01   53.30
   2  -1  -2  993.83   53.36
   2  -1  -2 1235.82   53.45
  -2  -1   2 1023.48   53.25
  -2   1   2 1140.23   53.24
   1  -1  -2  775.01   38.38
  -1  -1   2  807.40   38.28
  -1  -1   2  760.75   38.39
  -1   1   2  783.12   38.20
   0  -1   2   92.39    5.23
   0  -1   2  101.47    5.04
   0   1   2  105.90    5.05
   1  -1   2  979.79   44.59
   1  -1   2  882.91   44.13
  -1   1  -2  848.09   44.15
   2  -1   2 2010.29  108.74
   2  -1   2 2217.98  108.97
   2   1   2 2125.37  108.49
  -2   1  -2 2505.25  108.64
   2   1   2 2250.11  109.00
   3  -1   2  917.92   45.34
   3  -1   2  877.46   44.95
   3   1   2  938.37   45.49
  -3   1  -2  903.24   44.51
   3   1   2  914.25   44.64
   4  -1   2  357.94   18.06
   4  -1   2  348.88   18.67
   4   1   2  357.81   18.94
   4   1   2  357.38   17.68
   5  -1   2   25.67    2.78
   5  -1   2   27.73    3.34
   5  -1   2   32.62    4.10
   5   1   2   31.88    3.57
   5   1   2   25.98    4.43
   6  -1   2  193.09   12.96
   6  -1   2  176.49    9.81
   6  -1   2  187.49   12.00
   6  -1   2  173.34   10.37
   6   1   2  168.18   10.24
   6   1   2  176.15   10.08
   6   1   2  186.45   13.79
   7  -1   2   89.95    9.82
   7  -1   2   91.12    6.31
   7  -1   2   83.60    5.86
   7  -1   2  100.56    9.61
   7   1   2   88.02    6.23
   7   1   2   91.45    6.21
   7   1   2   89.07   10.05
   7   1   2  106.28    7.62
   8  -1   2    7.47    2.08
   8  -1   2    8.16    1.95
   8  -1   2   12.42    5.71
   8  -1   2   -3.35   26.59
   8   1   2   12.45    3.29
   8   1   2    6.87    2.20
   8   1   2    6.41    2.10
   8   1   2  -13.31   31.32
   9  -1   2   15.48    2.73
   9   1   2   16.56    2.54
   9   1   2   51.42   26.45
   9   1   2   15.38    2.67
  10  -1   2   70.07    4.20
  10  -1   2   63.36    4.42
  10   1   2   68.40    4.18
  10   1   2   76.41    4.13
  10  -2  -2   24.55    3.39
  10   2  -2   33.28    3.17
  10   2  -2   29.63    3.38
   9  -2  -2    4.39    2.05
   9  -2  -2   25.80   23.83
  -9  -2   2    0.70    3.34
   9  -2  -2    2.01    3.91
   9   2  -2    2.15    1.77
   9   2  -2    1.84    1.73
   9   2  -2    3.18    1.68
   9   2  -2    1.75    2.11
   8  -2  -2   13.20    4.73
   8  -2  -2   30.31   27.20
  -8  -2   2    5.80    3.59
   8  -2  -2    6.23    2.36
   8  -2  -2   12.71    3.14
   8   2  -2   11.31    3.11
   8   2  -2    8.87    2.23
   8   2  -2    8.69    2.13
   7  -2  -2   82.26    8.99
   7  -2  -2   76.94    5.81
   7  -2  -2   62.98    6.74
  -7  -2   2   65.20    6.45
   7  -2  -2   55.90    6.15
   7   2  -2   69.12   10.03
   7   2  -2   74.35    5.42
   7   2  -2   64.60    4.75
   7   2  -2   77.52    6.25
   7   2  -2   62.09    5.12
   6  -2  -2   36.20    5.96
   6  -2  -2   29.08    5.86
   6  -2  -2   25.06    4.92
   6  -2  -2   27.51    4.47
   6  -2  -2    2.81   29.55
   6   2  -2   30.92    4.35
   6   2  -2   26.65    3.79
   6   2  -2   29.24    3.25
   6   2  -2   29.13    3.62
   5  -2  -2  234.99   13.17
   5  -2  -2  260.29   15.44
   5  -2  -2  207.46   12.96
   5  -2  -2  245.74   13.77
   5   2  -2  233.68   13.72
   5   2  -2  203.49   12.30
   5   2  -2  219.78   12.34
   5   2  -2  235.06   12.01
   5   2  -2  231.55   12.06
   4  -2  -2  209.66   11.83
   4   2  -2  236.32   13.01
   4   2  -2  234.18   11.95
   3  -2  -2  139.26    7.66
  -3  -2   2  149.11    7.34
   3   2  -2  138.86    7.46
  -3   2   2  140.35    7.06
   2  -2  -2   41.32    2.58
  -2  -2   2   38.00    2.43
  -2   2   2   34.31    2.01
   2   2  -2   30.51    2.31
   1  -2  -2  435.91   21.31
  -1  -2   2  447.57   21.37
  -1  -2   2  415.75   21.11
  -1   2   2  406.87   21.02
   0  -2  -2  370.22   17.89
   0  -2   2  362.12   18.08
   0   2   2  341.16   17.71
   1  -2   2  530.88   26.15
   1   2   2  551.88   26.19
   1   2   2  481.92   25.73
   2   2   2  225.77   12.10
   2   2   2  225.93   11.42
   3  -2   2  197.06   11.29
   3  -2   2  191.27   10.90
   3   2   2  226.69   11.62
   4  -2   2  127.16    7.75
   4  -2   2  131.84    8.43
   4   2   2  131.05    7.24
   4   2   2  150.72    9.06
   5  -2   2  217.11   11.84
   5  -2   2  232.37   12.32
   5  -2   2  230.62   13.47
   5   2   2  203.75   13.83
   5   2   2  229.71   12.28
   5   2   2  236.81   12.43
   6  -2   2  569.24   29.88
   6  -2   2  550.51   27.74
   6   2   2  546.76   28.06
   6   2   2  512.67   30.22
   6   2   2  563.32   28.20
   6   2   2  573.61   28.18
   7  -2   2   45.50    5.10
   7  -2   2   50.13    3.98
   7   2   2   53.18    4.84
   7   2   2   55.48   40.21
   7   2   2   54.14    4.54
   8  -2   2   22.59    3.89
   8  -2   2   26.37    3.02
   8   2   2   71.99   39.80
   9  -2   2  132.32    7.13
   9  -2   2  131.66    8.28
  -9  -2  -2  116.60    7.52
   9   2   2  123.72    7.09
   9   2   2  131.66    7.79
   9   2   2  133.88    7.15
  -9  -3   2   80.02    7.69
   9   3  -2   81.64    4.88
   9   3  -2   79.34    5.42
   8  -3  -2   85.04    6.66
  -8  -3   2   78.33    6.02
   8  -3  -2   79.21    6.39
   8  -3  -2   59.98    9.65
   8   3  -2   85.99    6.10
  -7  -3   2  157.82    9.79
   7  -3  -2  161.55    9.94
   7  -3  -2  147.57   12.61
   7  -3  -2  156.95   10.29
   7   3  -2  157.34    8.50
   7   3  -2  161.70    9.14
   6  -3  -2  -10.42   29.05
   6  -3  -2   24.29    6.52
   6  -3  -2   16.90    3.76
  -6  -3   2   24.19    3.83
   6  -3  -2   21.68    4.24
   6   3  -2   26.26    7.01
   6   3  -2   24.43    3.40
   6   3  -2   19.93    2.54
   6   3  -2   28.13    3.38
  -5  -3   2   32.27    6.07
  -5  -3   2   18.37    3.51
   5  -3  -2   19.14    3.80
   5  -3  -2   -9.52   30.28
   5  -3  -2   20.62    6.81
   5   3  -2   25.12    3.44
   5   3  -2   18.28    3.19
   5   3  -2   22.31    3.00
   5   3  -2   25.33    5.98
   5   3  -2   16.88    2.56
   4  -3  -2   56.86    6.06
   4  -3  -2   54.15    4.24
   4  -3  -2   37.36   35.75
   4  -3  -2   55.12   11.44
  -4  -3   2   57.41    7.82
  -4  -3   2   56.17    5.28
   4   3  -2   61.95    6.87
   4   3  -2   53.08    4.54
   4   3  -2   55.62    4.09
   4   3  -2   62.55    3.94
   4   3  -2   49.97    4.60
  -3  -3   2  205.62   12.14
   3  -3  -2  203.75   11.37
   3   3  -2  221.74   11.16
  -3   3   2  216.84   10.60
   3   3  -2  208.82   11.18
   2  -3  -2   17.32    2.11
  -2  -3   2   12.72    2.21
   2   3  -2   15.53    1.75
  -2   3   2   13.81    1.39
  -1  -3   2   47.29    3.70
   1  -3  -2   51.88    3.41
   1   3  -2   47.52    3.14
  -1   3   2   48.02    2.92
   0  -3   2   27.74    2.57
   0  -3  -2   28.43    2.32
   0   3   2   25.10    1.93
   0   3  -2   23.98    2.06
   1  -3   2   69.01    4.52
  -1   3  -2   63.12    3.87
   1   3   2   71.09    3.94
   2  -3   2  310.28   16.35
  -2   3  -2  301.79   15.55
   2   3   2  317.35   15.76
   2   3   2  312.73   16.86
   3  -3   2   11.78    2.59
   3  -3   2   13.41    2.39
  -3  -3  -2    9.45    4.65
   3   3   2    9.84    1.65
   3   3   2   10.53    3.84
  -3   3  -2    8.12    1.43
   3   3   2    5.82    3.19
   3   3   2    8.61    2.33
  -4  -3  -2  362.77   20.12
   4  -3   2  353.64   17.69
   4  -3   2  342.20   18.33
   4   3   2  324.82   19.58
   4   3   2  351.03   17.65
   4   3   2  330.55   18.02
   4   3   2  340.49   17.56
   4   3   2  322.80   17.92
   4   3   2  364.09   17.98
   5  -3   2   89.83    6.61
   5  -3   2   78.98    5.35
   5   3   2   83.21   10.40
   5   3   2   78.39    8.75
   5   3   2   86.89    5.87
   5   3   2   87.51    6.05
   6  -3   2  142.28    8.21
   6   3   2  149.11    8.82
   6   3   2  160.84    9.02
   6   3   2  145.74    8.70
   7  -3   2   -9.43   35.85
   8  -3   2   90.05    5.38
  -8  -3  -2   94.06    6.22
   8   3   2   89.73    5.60
   8   3   2   87.85    5.60
   8   3   2   93.93    6.14
  -9  -3  -2   96.37    5.84
   9   3   2  106.61    6.05
  -8  -4   2   29.41    3.21
   8   4  -2   28.76    3.58
   7  -4  -2   24.59    4.69
  -7  -4   2   22.25    3.32
   7   4  -2   24.26    4.06
   7   4  -2   20.13    2.13
   6  -4  -2   16.38    3.29
  -6  -4   2   16.38    4.44
  -6  -4   2   19.03    3.74
   6   4  -2   16.12    2.98
   6   4  -2   19.93    2.28
   5  -4  -2   76.05    6.48
  -5  -4   2   72.51    6.99
  -5  -4   2   70.32    5.94
   5  -4  -2   54.40   12.25
   5   4  -2   74.06    4.63
   5   4  -2   76.91    5.37
   5   4  -2  101.65   15.72
  -4  -4   2   11.22    2.85
   4  -4  -2   -0.84    7.58
   4  -4  -2    6.38    3.05
   4   4  -2   11.37    3.21
   4   4  -2    9.34    6.64
   4   4  -2    8.56    2.09
   4   4  -2    9.60    1.72
   3  -4  -2  139.21   15.51
   3  -4  -2  167.71    9.46
  -3  -4   2  158.41   10.53
   3   4  -2  157.00    9.19
  -3   4   2  159.30    8.26
   3   4  -2  145.40   11.99
   3   4  -2  158.22    9.02
  -2  -4   2  100.55    6.78
   2  -4  -2  101.37    7.67
   2  -4  -2   97.47    7.28
   2  -4  -2  106.33    6.65
  -2  -4   2  101.29    6.94
  -2  -4   2  100.07    7.33
   2   4  -2   97.74    6.85
   2   4  -2  103.13    6.48
  -2   4   2  106.83    5.80
   1  -4  -2   53.77    5.79
  -1  -4   2   52.10    4.61
  -1  -4   2   59.32    5.51
  -1  -4   2   51.15    5.27
  -1  -4   2   56.35    4.89
   1  -4  -2   53.23    5.73
   1  -4  -2   55.55    4.45
  -1   4   2   57.65    3.71
   1   4  -2   53.49    3.87
   1   4  -2   56.59    5.96
   0  -4   2  186.91   10.79
   0  -4   2  193.33   10.80
   0  -4   2  185.14   10.70
   0  -4  -2  176.89   11.12
   0  -4  -2  184.67   16.41
   0  -4   2  182.06   11.09
   0  -4  -2  205.83   12.85
   0  -4  -2  186.58   11.16
   0   4   2  187.06    9.97
   0   4  -2  191.34   10.05
   1  -4   2  252.03   14.07
   1  -4   2  235.76   14.33
  -1  -4  -2  253.48   14.36
   1  -4   2  245.93   13.65
  -1  -4  -2  253.01   14.48
  -1  -4  -2  274.43   14.33
   1   4   2  262.98   13.31
  -1   4  -2  263.97   13.25
   1   4   2  257.22   14.10
   2  -4   2  466.50   23.23
   2  -4   2  415.50   23.83
   2  -4   2  447.03   23.88
  -2  -4  -2  471.06   24.01
  -2  -4  -2  465.56   23.74
  -2  -4  -2  461.57   24.21
   2   4   2  469.42   23.62
   2   4   2  450.53   23.53
   2   4   2  462.00   25.50
   2   4   2  438.33   23.11
  -2   4  -2  466.08   22.87
   3  -4   2  246.32   18.41
  -3  -4  -2  295.13   16.28
   3  -4   2  288.60   15.93
   3  -4   2  279.99   14.97
  -3  -4  -2  300.02   16.03
   3   4   2  278.32   18.98
   3   4   2  291.15   15.54
   3   4   2  292.16   15.42
   3   4   2  302.30   15.18
   4  -4   2  165.61   13.60
  -4  -4  -2  140.19    9.79
   4  -4   2  139.94    8.17
  -4  -4  -2  138.95    9.19
   4  -4   2  146.51    9.67
   4   4   2  149.98    9.21
   4   4   2  142.26    8.60
   4   4   2  143.57    7.93
  -5  -4  -2   74.91    7.64
  -5  -4  -2   80.08    6.40
   5  -4   2   81.34    5.14
   5  -4   2   16.12   70.59
   5   4   2   80.18    5.59
   5   4   2   83.41    5.02
   6  -4   2    9.42    1.88
  -7  -4  -2    9.50    2.17
   7  -4   2    8.42    2.34
  -8  -4  -2   20.72    2.38
   8   4   2   19.24    2.70
  -7  -5   2    3.83    1.86
   6  -5  -2   30.11    3.86
  -6  -5   2   20.69    3.60
  -6  -5   2   28.03    3.00
   6   5  -2   25.58    2.05
   5  -5  -2   57.22    5.09
  -5  -5   2   46.36    4.76
  -5  -5   2   60.73    4.47
   5   5  -2   53.08    3.98
   5   5  -2   56.41    3.47
  -4  -5   2   46.06    4.50
  -4  -5   2   47.47    4.93
   4  -5  -2   45.99    5.07
   4   5  -2   51.15    5.16
   4   5  -2   47.96    3.46
   3  -5  -2   11.16    3.04
  -3  -5   2    9.33    2.63
  -3  -5   2   15.97    2.80
   3   5  -2   13.58    1.97
   3   5  -2    9.91    2.26
   2  -5  -2  148.35    8.18
  -2  -5   2  149.98    8.62
   2  -5  -2  111.26   14.97
  -2  -5   2  158.67    8.82
   2  -5  -2  128.70    9.19
  -2   5   2  119.00    9.11
   2   5  -2  160.34    8.64
   2   5  -2  143.65    7.92
  -1  -5   2  144.72    7.97
  -1  -5   2  117.95    7.88
  -1  -5   2  128.47    8.18
   1  -5  -2  131.68    8.66
   1  -5  -2  119.50    7.87
  -1   5   2  126.41    8.46
   1   5  -2  129.12    7.28
   0  -5  -2  526.99   26.52
   0  -5   2  511.29   26.52
   0  -5  -2  521.77   26.76
   0  -5   2  508.95   26.13
   0   5   2  524.93   26.46
   0   5  -2  486.54   27.06
   0   5   2  518.26   26.42
  -1  -5  -2  471.97   24.07
   1  -5   2  467.12   23.99
   1  -5   2  440.70   23.35
  -1  -5  -2  459.90   24.09
   1  -5   2  452.09   23.32
  -1  -5  -2  468.87   23.89
   1   5   2  465.85   23.81
   2  -5   2  262.81   13.90
   2  -5   2  246.42   14.58
  -2  -5  -2  271.19   14.56
  -2  -5  -2  275.90   14.84
   2   5   2  273.23   14.36
   3  -5   2   29.75    4.15
  -3  -5  -2   21.98    4.36
  -3  -5  -2   24.84    3.95
   3  -5   2   16.98    4.43
   3   5   2   26.08    3.52
   3   5   2   28.79    2.75
  -4  -5  -2   59.90    5.46
  -4  -5  -2   61.82    6.62
   4  -5   2   64.42    4.34
   4   5   2   65.31    4.03
  -5  -5  -2   16.35    3.13
  -5  -5  -2    8.62    2.56
   5   5   2   14.76    1.68
   5   5   2   13.73    2.33
  -6  -5  -2   27.54    2.84
  -6  -5  -2   20.53    3.90
  -7  -5  -2   24.95    2.02
  -5  -6   2  119.16    6.50
   5   6  -2  116.37    6.03
  -4  -6   2   61.00    3.89
   4  -6  -2   58.15    4.62
  -4  -6   2   53.67    3.77
   4   6  -2   51.84    3.22
  -3  -6   2    0.32    1.36
   3  -6  -2    2.48    1.61
   3   6  -2    2.65    1.01
   3   6  -2    0.88    1.80
  -2  -6   2  308.97   15.74
   2  -6  -2  307.47   16.00
   2   6  -2  298.18   15.36
  -1  -6   2    8.30    1.83
  -1  -6   2    9.78    1.86
   1  -6  -2    7.54    1.87
   1   6  -2    7.26    1.28
   0  -6   2   60.41    3.98
   0  -6  -2   47.47    3.95
   0  -6   2   53.18    3.89
   0   6  -2   57.45    3.45
   0   6   2   54.35    4.51
  -1  -6  -2   45.97    3.93
   1   6   2   51.39    3.89
  -1   6  -2   52.62    3.29
   1   6   2   49.68    3.26
  -2  -6  -2   11.45    2.49
   2   6   2    7.34    1.24
   2   6   2   12.84    1.81
  -3  -6  -2   52.17    3.77
  -3  -6  -2   50.38    4.53
   3   6   2   45.50    3.01
   3   6   2   51.47    3.42
  -4  -6  -2   16.82    2.68
  -4  -6  -2   17.33    2.88
   4   6   2   16.74    1.50
   4   6   2   11.72    1.91
  11   0  -3   33.76    2.76
  11   0  -3   39.54    4.07
  10   0  -3   29.85    3.88
  10   0  -3   25.97    4.20
  10   0  -3   20.05    3.24
  10   0  -3   22.02    2.77
   9   0  -3   -1.48    2.92
   9   0  -3    4.02    1.85
   8   0  -3  204.76   11.77
   8   0  -3  209.27   11.71
   8   0  -3  193.28   16.58
   8   0  -3  204.80   11.51
   8   0  -3  228.22   12.88
   7   0  -3   68.53    5.38
   7   0  -3   65.06    5.33
   7   0  -3   67.53    5.38
   7   0  -3   70.45    6.64
   6   0  -3  557.04   29.50
   6   0  -3  543.78   29.95
   6   0  -3  594.50   28.94
   6   0  -3  549.99   28.92
   6   0  -3  603.15   29.60
   5   0  -3  153.58    9.51
  -5   0   3  159.41    8.06
   4   0  -3  108.15    6.68
   4   0  -3  103.32    5.85
  -4   0   3  116.19    5.67
   3   0  -3  358.79   18.42
  -3   0   3  366.82   17.89
  -2   0   3 4126.43  196.94
   2   0  -3 3924.28  197.98
  -1   0   3  756.64   36.99
   0   0   3   13.19    1.13
   0   0   3   13.69    0.85
   1   0   3 1761.99   87.12
   2   0   3   26.93    1.66
   2   0   3   21.71    1.64
   3   0   3  381.18   20.26
   3   0   3  375.63   19.57
   3   0   3  422.28   19.35
   4   0   3   65.46    5.11
   4   0   3   63.43    3.80
   5   0   3   32.67    3.65
   5   0   3   27.94    4.37
   5   0   3   34.34    4.55
   6   0   3  519.10   27.20
   6   0   3  567.92   28.28
   6   0   3  511.47   26.86
   7   0   3   18.49    3.51
   7   0   3   -1.37   32.39
   7   0   3   24.60    6.78
   7   0   3   17.44    2.77
   7   0   3   27.02    6.23
   8   0   3   28.68    3.68
   8   0   3   34.99    7.37
   8   0   3    4.62   28.80
   8   0   3   29.13    3.53
   9   0   3   16.14    2.51
   9   0   3   16.22    2.51
   9   0   3   11.37    4.03
  10   0   3   34.14    2.70
  10   0   3   35.16    2.68
  10   0   3   37.40   23.81
  11  -1  -3    7.87    2.07
  11   1  -3    6.53    2.09
  10  -1  -3   74.00    4.88
  10  -1  -3   68.00    6.23
  10   1  -3   75.22    4.74
  10   1  -3   74.48    4.83
  10   1  -3   83.62    5.09
  10   1  -3   77.58    5.67
   9  -1  -3   12.26    3.21
   9  -1  -3   15.96    2.89
   9   1  -3   23.09    4.34
   9   1  -3   22.83    5.30
   8  -1  -3   99.33    8.35
   8  -1  -3   80.68    6.91
   8  -1  -3   93.13    6.60
   8  -1  -3  115.09    6.76
   8   1  -3  102.65    6.39
   8   1  -3  106.61    6.53
   8   1  -3   91.72    7.41
   8   1  -3   85.88    6.32
   8   1  -3   49.18   38.53
   7  -1  -3   91.22   10.41
   7  -1  -3   90.74    7.98
   7  -1  -3   86.09    6.49
   7   1  -3   76.78    9.16
   6  -1  -3   17.16    4.13
   6  -1  -3   12.42    2.66
   6  -1  -3   19.92   34.72
   6  -1  -3   13.33    3.03
   6  -1  -3   26.05    5.65
   6   1  -3   14.61    3.56
   6   1  -3   17.84    3.03
   6   1  -3   16.20    2.62
   6   1  -3   12.12    2.72
  -5  -1   3   15.31    1.73
   5  -1  -3   15.29    3.15
   5   1  -3   15.62    3.69
  -5   1   3   16.80    1.35
   4  -1  -3 1188.13   57.50
  -4  -1   3 1014.06   57.38
  -4   1   3 1264.73   56.66
   4   1  -3 1166.54   56.90
   3  -1  -3  127.89    6.86
  -3  -1   3  120.75    6.45
   3   1  -3  127.30    7.37
  -3   1   3  122.61    6.21
  -2  -1   3 3974.17  199.29
  -2   1   3 4172.23  199.16
  -1  -1   3 4446.73  221.22
  -1  -1   3 4594.13  220.26
  -1   1   3 4455.67  219.91
   0  -1   3  710.63   34.18
   0  -1   3  707.18   34.47
   0   1   3  692.33   34.18
   0   1   3  681.40   34.25
   1  -1   3  258.27   13.12
   2  -1   3  483.19   23.69
   2  -1   3  460.74   23.46
   2   1   3  446.93   23.10
   2   1   3  485.11   23.74
   3  -1   3  423.50   21.23
   3   1   3  420.22   20.82
   3   1   3  418.91   21.81
   4  -1   3  116.79    7.20
   4  -1   3  103.87    6.70
   4   1   3  122.74    7.61
   5  -1   3   16.02    3.81
   5  -1   3   12.73    2.20
   5  -1   3   18.17    2.58
   5  -1   3   17.09    3.12
   5   1   3   18.28    4.54
   5   1   3   16.18    2.66
   6  -1   3  391.60   20.03
   6  -1   3  405.09   21.86
   6  -1   3  405.27   20.52
   6   1   3  395.08   20.23
   6   1   3  385.19   22.17
   6   1   3  372.74   20.43
   7  -1   3   11.24    2.39
   7  -1   3    8.65    2.07
   7  -1   3   13.33    6.32
   7  -1   3    9.08   30.29
   7  -1   3    8.65    6.30
   7   1   3   13.90    2.59
   7   1   3   11.28    7.02
   7   1   3   11.38    3.45
   7   1   3    9.85    2.19
   8  -1   3   31.68    4.16
   8  -1   3   31.75    3.38
   8   1   3   38.41    6.23
   8   1   3   34.00   36.93
   8   1   3   29.58    3.40
   8   1   3   37.81    3.79
   9  -1   3  -11.57   20.08
   9  -1   3    6.52    1.52
   9  -1   3    4.72    1.65
   9   1   3   32.79   24.66
   9   1   3    2.60    1.39
   9   1   3    6.26    1.57
   9   1   3    1.65    2.72
  10  -1   3   89.68    5.02
  10   1   3   92.96    4.96
  10   1   3   88.36    4.97
  10  -2  -3   11.51    2.70
  10  -2  -3   21.24    4.18
  10   2  -3   20.65    3.18
  10   2  -3   18.82    2.59
  10   2  -3   12.74    2.89
   9  -2  -3    2.63    2.01
   9  -2  -3    5.95    2.45
   9  -2  -3   36.03   21.64
   9  -2  -3    3.94    3.79
   9   2  -3    5.61    1.68
   9   2  -3    8.53    2.52
   9   2  -3    7.23    1.81
   9   2  -3    6.95    2.00
   8  -2  -3   52.04    7.56
   8  -2  -3   63.31    5.31
  -8  -2   3   52.42    6.51
   8  -2  -3   64.49    5.82
   8  -2  -3   24.88   29.61
   8   2  -3   65.49    5.94
   8   2  -3   57.95    4.95
   8   2  -3   62.96    4.80
   7  -2  -3  299.28   17.77
  -7  -2   3  300.47   16.48
   7  -2  -3  292.22   16.17
   7  -2  -3  316.96   16.07
   7   2  -3  275.20   15.70
   7   2  -3  314.45   16.49
   7   2  -3  279.22   18.94
   7   2  -3  286.83   15.64
   7   2  -3  290.81   15.17
   6  -2  -3  102.40    7.55
  -6  -2   3   90.36    7.81
   6  -2  -3  119.39   10.04
   6  -2  -3  107.69    7.48
   6   2  -3  104.40    6.20
   6   2  -3  110.04    6.89
   6   2  -3  111.05   10.04
   6   2  -3  112.82    7.45
   5  -2  -3    5.52    3.42
   5  -2  -3   34.23   30.03
   5  -2  -3    3.37    3.06
   5  -2  -3    4.49    2.75
  -5  -2   3    9.64    3.70
   5   2  -3    1.43    3.16
   5   2  -3    1.74    1.94
   5   2  -3    4.93    1.69
   5   2  -3    2.71    2.31
   5   2  -3    3.87    1.89
  -4  -2   3  161.38    9.63
   4   2  -3  183.48    9.95
  -4   2   3  185.60    9.14
   4   2  -3  209.56   11.26
  -3  -2   3  796.91   38.80
   3  -2  -3  801.54   38.98
  -3  -2   3  779.80   38.80
   3   2  -3  772.35   38.93
  -3   2   3  776.24   38.44
  -2  -2   3   73.57    4.43
   2  -2  -3   78.56    4.48
  -2  -2   3   74.51    4.27
  -2   2   3   86.03    4.08
  -1  -2   3 1487.71   76.96
   1  -2  -3 1672.90   76.91
  -1  -2   3 1519.65   76.69
  -1   2   3 1586.38   76.61
   0  -2   3  304.21   15.68
   0  -2   3  326.67   16.13
   0   2   3  325.99   15.70
   0   2   3  305.83   15.91
   1  -2   3  143.14    7.81
   1   2   3  143.12    7.83
   1   2   3  140.89    7.31
   2  -2   3  772.88   41.07
   2   2   3  837.83   40.73
   2   2   3  864.64   41.28
   3  -2   3  133.25    7.86
   3   2   3  144.91    7.42
   4  -2   3   39.58    3.59
   4  -2   3   37.47    4.55
   4  -2   3   44.26    3.84
   4   2   3   31.82    6.05
   4   2   3   41.66    6.40
   4   2   3   41.13    2.97
   4   2   3   37.94    3.97
   5  -2   3    6.17    3.78
   5  -2   3    8.32    2.40
   5  -2   3   22.08   35.61
   5  -2   3   11.93    2.09
   5   2   3   11.74    2.15
   5   2   3   10.93    2.75
   5   2   3   11.91    2.64
   5   2   3   11.64    4.89
   6  -2   3  153.64   11.33
   6  -2   3  153.79    8.21
   6  -2   3  155.79    9.37
   6   2   3  141.79    8.70
   6   2   3  147.23   12.16
   6   2   3  135.58    8.79
   6   2   3  139.76    8.80
   7  -2   3   14.94   31.96
   7  -2   3    1.32    2.36
   7  -2   3    1.66    1.68
   7   2   3   -0.25    1.70
   7   2   3    1.10    2.17
   8  -2   3   37.87    3.31
   8  -2   3   40.90    4.43
   8   2   3   42.73    3.71
   8   2   3   39.96    3.54
   8   2   3   50.08    4.66
   9  -2   3   19.65   20.47
  -9  -2  -3   25.33    3.30
   9  -2   3   28.48    2.83
   9   2   3   25.84    2.54
   9   2   3   28.12    2.53
   9   2   3   31.03    3.60
  -9  -3   3   72.22    5.99
   9  -3  -3   56.33   11.89
   9  -3  -3   76.82    6.32
   9  -3  -3   64.33    6.16
   9   3  -3   80.32    5.33
   9   3  -3   83.17    4.67
   8  -3  -3   50.03    5.32
   8  -3  -3   34.38   27.25
   8  -3  -3   57.69    5.78
   8  -3  -3   62.55    8.41
  -8  -3   3   59.93    5.28
   8   3  -3   63.16    5.11
   7  -3  -3   42.63    5.79
   7  -3  -3   40.44    5.20
  -7  -3   3   35.52    4.90
   7  -3  -3   36.37    8.08
   7   3  -3   39.30    4.06
   7   3  -3   37.52    3.08
   7   3  -3   37.04    5.25
  -6  -3   3   22.63    3.70
   6  -3  -3   19.62    3.67
   6  -3  -3    9.95    5.62
   6  -3  -3   16.47    3.92
   6   3  -3   19.00    2.45
   6   3  -3   15.83    6.91
   6   3  -3   21.80    3.01
   6   3  -3   21.58    3.14
   5  -3  -3  175.25   13.21
  -5  -3   3  149.68    9.73
   5  -3  -3  148.97   10.03
   5  -3  -3  163.61   11.25
  -5  -3   3  158.68   11.90
   5   3  -3  165.07    9.16
   5   3  -3  166.57    9.16
   5   3  -3  152.56   11.51
   5   3  -3  155.89    9.35
   5   3  -3  162.06    8.58
   4  -3  -3   61.00   10.82
  -4  -3   3   59.78    5.53
  -4  -3   3   66.06    7.55
   4  -3  -3   63.14    6.22
   4   3  -3   64.72    5.11
   4   3  -3   70.95    7.25
   4   3  -3   63.62    4.24
   4   3  -3   79.96    4.81
   3  -3  -3  533.91   25.15
   3  -3  -3  444.85   25.54
  -3  -3   3  468.15   25.40
  -3   3   3  524.18   24.35
   3   3  -3  515.75   24.86
   3   3  -3  470.04   24.66
   2  -3  -3  433.40   21.02
  -2   3   3  405.67   20.43
   2   3  -3  395.72   20.73
   1  -3  -3  138.40    7.39
  -1  -3   3  133.86    7.60
  -1   3   3  130.20    6.94
   1   3  -3  128.22    7.12
   0  -3   3  558.65   28.88
   0   3  -3  598.51   28.38
   0   3   3  611.00   28.33
   0   3   3  515.10   28.73
   1  -3   3  203.02   10.34
  -1   3  -3  169.85    9.50
   1   3   3  196.84    9.59
   1   3   3  169.20   10.58
   2  -3   3  144.07    8.49
  -2   3  -3  141.51    7.62
   2   3   3  153.41    7.82
   2   3   3  149.08    9.36
   2   3   3  140.54    8.88
  -3  -3  -3   78.62    8.44
   3  -3   3   58.03    4.61
   3  -3   3   58.83    4.92
  -3  -3  -3   55.33    7.43
   3   3   3   46.10    6.27
   3   3   3   62.16    5.09
   3   3   3   68.59    7.00
   3   3   3   69.29    5.13
   3   3   3   64.43    4.07
  -3   3  -3   63.35    3.73
   4  -3   3   97.23   50.96
   4  -3   3  146.18    8.64
  -4  -3  -3  163.65   12.57
   4  -3   3  177.71   12.35
   4   3   3  155.37    9.10
   4   3   3  155.13   11.63
   4   3   3  156.58    8.99
   4   3   3  153.62    8.76
   4   3   3  146.29    8.64
   4   3   3  152.95    9.38
   5  -3   3   -9.27   41.44
   5  -3   3   44.27    5.48
   5  -3   3   37.17    3.57
   5   3   3   56.23    9.42
   5   3   3   47.60    4.41
   5   3   3   41.81    4.78
   6  -3   3   51.45   38.28
   7  -3   3   60.26    4.14
   7   3   3   66.75    4.62
   7   3   3   49.95    5.78
   8  -3   3   19.22   21.75
   8  -3   3    1.87    1.55
  -8  -3  -3   -2.23    1.96
   8   3   3    0.43    1.53
   8   3   3    2.24    1.80
   8   3   3   -0.46    1.55
  -9  -3  -3   15.86    2.41
   9   3   3   18.81    2.64
  -8  -4   3  126.57    6.94
   8  -4  -3  102.00    9.23
   8   4  -3  126.02    7.43
   7  -4  -3   35.28    4.75
  -7  -4   3   33.35    3.82
   7   4  -3   31.23    2.60
   7   4  -3   35.35    4.64
   6  -4  -3   24.13    7.29
  -6  -4   3   42.53    5.87
   6  -4  -3   39.16    5.12
  -6  -4   3   42.67    4.43
   6   4  -3   38.19    2.95
  -5  -4   3  252.17   14.44
   5  -4  -3  236.80   14.32
  -5  -4   3  267.24   14.06
   5   4  -3  260.17   13.07
   5   4  -3  237.37   14.03
   5   4  -3  258.35   13.63
   4  -4  -3   73.89   12.03
   4  -4  -3   80.60    6.92
  -4  -4   3   78.32    6.00
  -4  -4   3   78.99    6.80
   4   4  -3   97.40    6.56
   4   4  -3   79.91   10.42
   4   4  -3   82.52    5.03
   4   4  -3   83.73    5.73
  -3  -4   3  309.51   17.28
   3  -4  -3  261.86   19.79
   3   4  -3  316.88   15.85
   3   4  -3  310.90   15.92
   3   4  -3  293.67   18.38
   3   4  -3  290.51   15.84
  -2  -4   3   46.95    4.29
   2  -4  -3   51.81    5.67
   2  -4  -3   44.88    5.66
   2  -4  -3   51.47   11.92
  -2   4   3   36.15    3.19
   2   4  -3   51.75    5.27
   2   4  -3   41.36    3.47
  -1  -4   3  141.02    8.65
   1  -4  -3  142.31    9.12
  -1  -4   3  138.02    8.45
  -1  -4   3  148.55    8.66
   1  -4  -3  132.93    8.98
  -1  -4   3  139.43    8.86
   1  -4  -3  134.16   14.22
   1   4  -3  137.55    7.88
  -1   4   3  142.50    7.65
   0  -4   3  148.77    8.94
   0  -4   3  133.88    9.19
   0  -4   3  150.32    8.71
   0  -4   3  147.03    8.75
   0  -4  -3  138.36    9.45
   0  -4  -3  152.55    9.43
   0  -4  -3  134.61   14.45
   0   4  -3  144.24    8.06
   0   4   3  150.86    7.98
  -1  -4  -3  141.76    9.14
   1  -4   3  118.49    8.91
  -1  -4  -3  133.10    9.03
   1  -4   3  132.51    7.89
   1  -4   3  126.41    8.36
  -1  -4  -3  141.81    8.65
   1   4   3  125.05    8.27
  -1   4  -3  131.38    7.36
   1   4   3  124.22    8.71
  -2  -4  -3   27.32    4.78
   2  -4   3   24.70    3.68
   2  -4   3   22.20    4.23
  -2  -4  -3   23.61    4.07
   2  -4   3   21.45    3.50
   2   4   3   26.10    3.10
   2   4   3   29.11    3.60
   3  -4   3    8.71    2.20
  -3  -4  -3    9.02    3.22
   3  -4   3    9.86    3.11
  -3  -4  -3    5.84    3.48
   3   4   3    5.53    1.99
   3   4   3    5.86    2.39
   3   4   3    8.35    2.71
  -4  -4  -3  183.24   11.33
   4  -4   3  154.77   11.02
  -4  -4  -3  169.96   10.50
   4  -4   3  173.59    9.39
   4   4   3  169.38    9.21
   4   4   3  171.78    9.81
   4   4   3  169.93   10.59
  -5  -4  -3  107.21    8.82
   5  -4   3  116.15    6.53
  -5  -4  -3  110.31    7.75
   5   4   3  112.72    6.45
   5   4   3  114.94    6.99
   6  -4   3   -1.41    1.42
  -6  -4  -3    1.93    2.53
   6   4   3    0.10    1.37
   7  -4   3   39.07    3.89
  -7  -4  -3   43.50    3.81
  -8  -4  -3   66.22    4.12
   8   4   3   67.29    4.34
  -7  -5   3   48.73    3.79
   7  -5  -3   43.89    4.39
   7   5  -3   46.37    2.76
  -6  -5   3   20.46    3.43
  -6  -5   3   17.59    2.55
   6  -5  -3   20.75    3.54
   6   5  -3   17.49    1.75
  -5  -5   3   15.72    3.00
  -5  -5   3   18.90    3.43
   5  -5  -3   21.67    3.79
   5   5  -3   14.85    1.96
  -4  -5   3   74.26    5.72
  -4  -5   3   76.40    5.39
   4  -5  -3   81.10    6.18
   4  -5  -3   59.89   11.83
   4   5  -3   76.09    4.63
  -3  -5   3   33.81    4.19
  -3  -5   3   26.78    3.59
   3  -5  -3   21.25    3.42
   3  -5  -3   30.84    8.12
   3   5  -3   27.33    2.65
   3   5  -3   29.85    3.72
   2  -5  -3   15.26    3.34
  -2  -5   3   20.60    3.28
   2  -5  -3   16.25    3.57
   2  -5  -3   18.09    7.47
  -2  -5   3   18.56    3.71
   2   5  -3   17.31    3.26
   2   5  -3   13.15    1.95
  -2   5   3   14.22    2.93
  -1  -5   3   55.86    4.67
  -1  -5   3   60.39    4.93
   1  -5  -3   55.82   11.40
   1  -5  -3   62.37    5.19
   0  -5   3   73.81    5.32
   0  -5  -3   70.03    5.94
   0  -5  -3   75.44    6.08
   0  -5   3   81.06    6.04
   0   5  -3   76.80    4.89
   0   5   3   70.50    5.71
   1  -5   3   82.43    5.22
  -1  -5  -3   82.83    6.09
  -1  -5  -3   79.35    6.31
   1  -5   3   70.57    5.30
  -1  -5  -3   80.46    6.29
   1  -5   3   75.12    6.32
   1   5   3   74.78    5.84
  -1   5  -3   81.54    5.12
   2  -5   3    1.82    2.94
  -2  -5  -3    2.99    2.49
  -2  -5  -3    3.37    2.68
   2  -5   3    0.58    1.73
   2   5   3    0.63    1.81
  -3  -5  -3   79.29    7.76
  -3  -5  -3   71.30    5.99
   3   5   3   70.70    5.21
   3   5   3   74.29    4.62
  -4  -5  -3   36.60    4.05
  -4  -5  -3   31.43    4.32
   4  -5   3   40.08    3.11
   4   5   3   33.01    2.75
   4   5   3   33.88    3.26
  -5  -5  -3  149.10    9.05
  -5  -5  -3  170.18    8.90
   5  -5   3  143.60    8.18
   5   5   3  151.73    8.01
   5   5   3  155.22    8.40
  -6  -5  -3   14.89    2.76
  -6  -5  -3   15.72    2.42
  -5  -6   3   39.10    3.02
   5  -6  -3   39.92    3.50
   5   6  -3   36.70    2.24
   4  -6  -3   36.42    3.40
   4   6  -3   31.52    3.33
   4   6  -3   36.69    2.32
   3  -6  -3   11.00    2.02
  -3  -6   3   16.72    2.51
   3   6  -3   14.27    2.27
   3   6  -3   12.61    1.57
  -2  -6   3   38.92    3.21
   2  -6  -3   32.33    3.36
   2   6  -3   29.69    2.39
   1  -6  -3   19.18    3.07
  -1  -6   3   16.18    2.53
  -1  -6   3   13.02    2.48
  -1   6   3   17.60    3.53
   1   6  -3   17.90    1.94
   0  -6   3   34.31    3.34
   0  -6  -3   33.54    3.28
   0  -6   3   41.28    3.15
   0   6  -3   36.06    2.63
   0   6   3   27.89    3.48
   1  -6   3  129.88    7.49
  -1  -6  -3  132.98    7.82
  -1   6  -3  148.57    7.37
   1   6   3  141.79    7.75
   1   6   3  139.22    7.37
  -2  -6  -3    1.65    1.59
   2   6   3    3.52    1.07
   2   6   3    4.41    1.32
  -3  -6  -3   46.64    3.55
   3   6   3   47.99    2.86
   3   6   3   42.29    3.03
  -4  -6  -3    0.37    1.40
   4   6   3    0.99    0.94
  11   0  -4   14.28    3.36
  10   0  -4   48.38    4.87
  10   0  -4   50.46    3.79
  10   0  -4   42.31    4.14
   9   0  -4  422.70   21.68
   9   0  -4  406.76   22.34
   9   0  -4  416.37   21.49
   8   0  -4  104.18    7.07
   8   0  -4  101.57   14.16
   8   0  -4  108.37    7.13
   8   0  -4  104.44    7.13
   8   0  -4  121.67    8.48
   7   0  -4   74.42    5.73
   7   0  -4  102.62   13.24
   7   0  -4   80.50    5.88
   7   0  -4   73.15    6.19
   7   0  -4   81.16    7.02
   6   0  -4   46.90    4.53
   6   0  -4   42.61    5.47
   6   0  -4   47.25    4.35
   6   0  -4   45.00    5.69
  -6   0   4   40.66    3.04
  -5   0   4   22.53    1.88
   5   0  -4   28.87    4.05
  -4   0   4   73.89    3.79
   4   0  -4   69.30    4.87
   4   0  -4   66.29    3.91
   3   0  -4   96.96    6.09
  -3   0   4  120.14    5.56
  -2   0   4 1015.08   49.64
  -1   0   4 9999.00  488.30
   0   0   4   68.79    3.99
   0   0   4   77.84    3.76
   1   0   4 1297.14   63.99
   1   0   4 1307.38   63.63
   2   0   4   38.05    2.63
   2   0   4   44.10    2.29
   3   0   4  811.66   40.90
   3   0   4  845.44   42.44
   4   0   4   48.50    4.46
   5   0   4  763.77   38.07
   5   0   4  766.27   39.30
   6   0   4  145.70   10.56
   6   0   4  133.18   10.24
   7   0   4  112.87    9.29
   7   0   4  115.13    7.04
   7   0   4  109.67    6.70
   7   0   4   88.11   10.73
   8   0   4   11.01    4.19
   8   0   4   11.81    2.74
   9   0   4   26.61   22.10
  10   0   4   25.94    2.09
  11  -1  -4   19.75    2.46
  11   1  -4   19.14    3.88
  10  -1  -4   65.12    4.62
  10  -1  -4   67.22    5.89
  10  -1  -4   64.36    4.96
  10   1  -4   71.66    5.40
  10   1  -4   68.73    4.55
  10   1  -4   70.23    4.64
   9  -1  -4   21.18    6.65
   9  -1  -4   22.31    4.18
   9   1  -4   22.76    4.69
   9   1  -4   23.47    4.08
   8  -1  -4  320.01   16.55
   8  -1  -4  288.13   16.56
   8  -1  -4  308.45   17.76
   8  -1  -4  247.33   34.99
   8   1  -4  314.53   16.39
   8   1  -4  292.02   16.19
   8   1  -4  312.76   16.41
   8   1  -4  362.76   25.69
   8   1  -4  321.06   17.27
   7  -1  -4   83.50    6.74
   7  -1  -4   96.57   10.17
   7   1  -4   94.79    9.70
   6  -1  -4  221.68   12.61
   6  -1  -4  228.45   12.73
   6  -1  -4  233.18   13.81
   6  -1  -4  222.74   13.53
   6  -1  -4  230.35   38.12
   6   1  -4  228.85   13.95
   6   1  -4  257.29   13.36
   6   1  -4  215.02   12.56
   6   1  -4  232.95   12.04
   6   1  -4  223.78   12.59
  -5  -1   4  213.48   10.35
   5   1  -4  200.68   11.69
  -5   1   4  180.81   10.43
  -4  -1   4  472.41   23.11
   4  -1  -4  452.31   23.57
  -4   1   4  482.61   22.84
   4   1  -4  449.93   23.10
  -3  -1   4  704.42   37.90
   3  -1  -4  882.62   38.15
  -3   1   4  725.60   37.73
  -2  -1   4 1190.41   57.33
  -2   1   4 1150.53   57.20
  -1  -1   4 1731.83   82.01
  -1  -1   4 1452.58   82.25
  -1   1   4 1849.28   82.20
   0  -1   4   44.83    2.37
   0  -1   4   38.71    2.71
   0   1   4   45.80    2.55
   0   1   4   42.01    2.32
   1  -1   4  436.81   20.44
   1  -1   4  378.22   20.82
   1  -1   4  407.00   20.94
   1   1   4  420.60   20.85
   1   1   4  433.21   20.49
   2  -1   4  198.66   10.32
   2  -1   4  184.70   10.01
   2   1   4  179.75   10.26
   2   1   4  198.19    9.59
   3  -1   4  491.97   26.14
   3  -1   4  548.19   26.62
   3   1   4  520.56   25.68
   4  -1   4  106.40    6.78
   4  -1   4   95.31    5.88
   4   1   4   91.48    6.89
   5  -1   4  478.64   25.24
   5  -1   4  505.87   23.93
   5  -1   4  475.07   24.48
   5   1   4  482.25   24.12
   5   1   4  430.69   25.35
   5   1   4  473.55   24.21
   6  -1   4  143.59   10.62
   6  -1   4  144.70    8.14
   6  -1   4  140.76    8.82
   6   1   4  126.40   10.97
   6   1   4  163.61    8.83
   6   1   4  148.11    8.52
   7  -1   4   77.94    5.26
   7  -1   4   76.53    5.77
   7   1   4   77.32    5.70
   7   1   4   76.34    5.65
   7   1   4   86.15    7.29
   8  -1   4   16.50    2.94
   8  -1   4   13.97    2.31
   8   1   4   18.89   27.40
   8   1   4   15.38    3.53
   9  -1   4   50.55    3.87
   9  -1   4   51.59    3.54
   9   1   4   56.82    3.64
   9   1   4   51.73    3.49
   9   1   4   43.97    6.90
  10  -2  -4    2.35    2.62
  10  -2  -4    5.22    1.89
  10  -2  -4    8.78    4.44
  10   2  -4    3.13    2.55
  10   2  -4    4.30    1.82
  10   2  -4    7.22    2.22
   9  -2  -4    6.55    3.59
   9  -2  -4   -2.04   21.84
   9  -2  -4    2.61    2.26
   9  -2  -4   -0.99    1.82
   9   2  -4    1.19    1.46
   9   2  -4    1.16    1.97
   9   2  -4    4.71    1.79
   9   2  -4    2.43    2.27
   8  -2  -4   53.03    4.97
   8  -2  -4   44.31    5.26
  -8  -2   4   45.67    6.38
   8  -2  -4   35.68    7.03
   8   2  -4   49.79    4.37
   8   2  -4   56.57    4.77
   8   2  -4   47.59    5.35
   7  -2  -4  169.68   11.99
   7  -2  -4  171.83   10.18
  -7  -2   4  165.21   10.90
   7  -2  -4  170.22   10.34
   7   2  -4  179.37    9.22
   7   2  -4  156.17   13.79
   7   2  -4  174.55   10.07
   7   2  -4  168.13   10.53
   7   2  -4  177.16    9.74
   6  -2  -4   83.68    8.57
   6  -2  -4   65.72    5.96
   6  -2  -4   72.31    6.09
  -6  -2   4   57.22    6.66
   6   2  -4   71.55    5.42
   6   2  -4   69.88    4.49
   6   2  -4   74.38    6.32
   5  -2  -4  341.50   17.43
   5  -2  -4  350.29   18.87
  -5  -2   4  302.90   17.52
   5  -2  -4  293.92   17.15
   5   2  -4  325.44   16.29
   5   2  -4  308.83   16.75
   5   2  -4  332.78   18.11
   5   2  -4  311.57   16.76
   5   2  -4  319.53   16.54
  -4  -2   4   93.59    5.48
  -4   2   4   99.35    5.00
   4   2  -4   94.29    5.55
  -3  -2   4  340.10   16.44
  -3  -2   4  302.74   16.23
  -3   2   4  322.69   15.92
  -2  -2   4   10.76    1.58
  -2  -2   4   13.96    1.45
  -2   2   4   12.66    1.06
  -1  -2   4  121.72    6.38
  -1  -2   4  114.66    6.72
  -1   2   4  129.27    6.27
   0  -2   4   72.75    4.38
   0  -2   4   69.75    3.92
   0   2   4   74.54    3.88
   0   2   4   69.55    4.26
   1  -2   4  485.07   23.32
   1   2   4  389.41   21.94
   2  -2   4  296.81   15.53
   2   2   4  307.96   15.73
   2   2   4  285.41   14.90
   3  -2   4  311.22   16.80
   3   2   4  313.34   16.14
   3   2   4  337.77   17.43
   4  -2   4   33.36   41.33
   4  -2   4   27.56    3.35
   4  -2   4   23.59    3.34
   4   2   4   25.08    2.73
   4   2   4   32.84    3.89
   4   2   4   35.78    4.90
   4   2   4   30.45    3.61
   5  -2   4  127.27    9.37
   5  -2   4  119.86    8.29
   5  -2   4  122.80    7.21
   5   2   4  134.26    7.62
   5   2   4  127.82    7.84
   5   2   4  128.06    8.21
   6  -2   4  327.42   16.32
   6  -2   4  309.05   19.27
   6   2   4  323.24   16.81
   6   2   4  324.96   16.71
   6   2   4  314.28   16.84
   6   2   4  296.04   20.12
   7  -2   4   14.02    3.79
   7  -2   4   16.08    2.77
   7   2   4   19.47    2.64
   7   2   4   21.29    3.68
   8  -2   4    4.42    1.45
   8  -2   4   -1.91   22.65
   8   2   4    3.42    1.48
   8   2   4    6.10    1.73
   8   2   4   20.64   27.24
   8   2   4    3.07    2.52
   9  -2   4   24.88    2.44
   9  -2   4   13.27   22.95
  -9  -2  -4   24.20    3.03
   9   2   4   30.58    2.96
   9   2   4   31.60    3.20
   9   2   4   19.67    3.08
   9  -3  -4   50.28    4.49
   9  -3  -4   42.24    5.67
   9  -3  -4   32.44    6.68
   9   3  -4   45.01    4.23
   9   3  -4   46.48    3.29
  -8  -3   4   41.05    4.47
   8  -3  -4   41.36    7.52
   8  -3  -4   35.97    5.05
   8  -3  -4   43.37    4.75
   8   3  -4   48.04    4.79
  -7  -3   4   38.39    4.88
   7  -3  -4   20.60    5.51
   7  -3  -4   12.75   24.74
   7  -3  -4   33.78    5.44
   7  -3  -4   31.75    4.88
   7   3  -4   30.39    4.87
   7   3  -4   28.35    2.71
   6  -3  -4   99.97    7.20
   6  -3  -4   88.53    7.83
  -6  -3   4   83.45    6.65
   6  -3  -4   90.59   10.22
   6   3  -4   93.38    5.33
   6   3  -4   81.46    9.83
  -5  -3   4  103.09    9.21
   5  -3  -4  103.42    8.99
  -5  -3   4   97.98    7.36
   5  -3  -4  107.68    7.79
   5  -3  -4   98.41   10.78
   5   3  -4  113.27    9.79
   5   3  -4  115.82    6.20
   5   3  -4  112.37    7.34
   5   3  -4  112.29    8.24
   5   3  -4  112.03    6.90
  -4  -3   4   76.15    7.37
   4  -3  -4   77.77   10.34
   4  -3  -4   81.76    9.02
   4  -3  -4   70.30    6.02
  -4  -3   4   70.98    5.79
   4   3  -4   69.06    5.38
   4   3  -4   72.87    5.09
  -4   3   4   73.04    3.99
   4   3  -4   73.58    4.55
   4   3  -4   76.03    7.65
   3  -3  -4    3.58    5.96
  -3  -3   4    9.34    3.69
   3  -3  -4    6.28    3.07
   3   3  -4    4.61    1.62
   3   3  -4    5.38    1.59
  -3   3   4    4.74    0.92
  -2  -3   4   51.68    4.14
   2   3  -4   63.20    3.74
  -2   3   4   51.07    3.21
  -1  -3   4  504.82   25.92
  -1   3   4  511.78   25.24
   0  -3   4  609.75   29.91
   0   3   4  566.76   29.14
   1  -3   4  126.90    7.37
   1   3   4  117.85    6.46
   1   3   4  114.86    7.99
  -2  -3  -4  148.02   10.07
   2  -3   4  144.19    8.72
  -2  -3  -4  164.78   11.58
  -2  -3  -4  176.32   12.73
   2  -3   4  156.59    9.11
   2   3   4  154.08   10.07
   2   3   4  160.56    8.26
   2   3   4  146.75    9.16
   2   3   4  149.00    9.30
   3  -3   4   28.72    3.40
   3  -3   4   25.26    3.75
  -3  -3  -4   26.48    5.82
   3   3   4   31.28    4.63
   3   3   4   24.04    2.73
   3   3   4   27.39    3.69
   3   3   4   27.32    6.68
   3   3   4   26.35    3.81
  -3   3  -4   19.85    2.39
   4  -3   4  325.56   17.59
  -4  -3  -4  310.21   18.67
  -4  -3  -4  307.18   19.37
   4   3   4  345.27   17.04
   4   3   4  312.90   17.10
   5  -3   4  -21.94   43.59
   5  -3   4    0.28    1.61
   5  -3   4   -1.06    3.59
   5   3   4    0.16    1.97
   5   3   4    9.20    9.13
   5   3   4    3.09    2.77
   5   3   4    0.80    1.82
   6  -3   4  115.79    6.88
   6   3   4  121.32    7.55
   6   3   4  123.88    7.43
   6   3   4  120.68    7.56
  -7  -3  -4   14.79    2.94
   7  -3   4   17.42    2.50
   7  -3   4    4.53   28.97
   7   3   4   15.12    2.39
   7   3   4   21.09    2.83
   8  -3   4   71.28    4.18
  -8  -3  -4   59.12    4.62
   8   3   4   70.79    4.36
   8   3   4   67.17    4.81
   9   4  -4   15.43    1.94
   8  -4  -4   50.94    4.71
  -8  -4   4   59.06    3.92
   8   4  -4   40.40    6.30
   7  -4  -4   25.64    4.43
  -7  -4   4   26.26    3.55
   7  -4  -4   17.36    6.13
   7   4  -4   28.33    2.28
   7   4  -4   33.24    4.69
  -6  -4   4   46.15    4.62
  -6  -4   4   50.87    6.93
   6  -4  -4   38.09    7.42
   6  -4  -4   51.04    5.55
   6   4  -4   52.72    3.38
   6   4  -4   41.70    8.29
  -5  -4   4  127.15    8.19
   5  -4  -4  123.28    8.82
  -5  -4   4  147.07    8.82
   5  -4  -4  123.32   12.52
   5   4  -4  128.39    8.44
   5   4  -4  127.01    7.17
   5   4  -4  130.79    7.81
   4  -4  -4   29.31    5.14
   4  -4  -4   30.87    7.20
  -4  -4   4   39.69    5.31
  -4  -4   4   35.90    4.22
   4   4  -4   34.23    3.98
   4   4  -4   36.43    9.56
   4   4  -4   40.71    5.20
   4   4  -4   36.07    2.99
  -3  -4   4    0.50    2.09
   3  -4  -4    1.89    2.99
   3  -4  -4    0.80    9.37
  -3  -4   4    3.92    2.86
   3   4  -4    2.39    2.29
   3   4  -4    0.36    1.39
   3   4  -4    1.87    2.64
  -3   4   4   -2.40    1.59
  -2  -4   4   78.20    5.54
   2  -4  -4   81.97    6.37
   2  -4  -4   56.38    9.03
   2  -4  -4   58.09    6.35
   2   4  -4   63.37    4.95
   2   4  -4   76.34    4.66
   1  -4  -4   16.60    7.28
  -1  -4   4   11.65    3.27
   1  -4  -4   18.62    3.76
  -1  -4   4   20.76    3.06
  -1  -4   4   17.96    3.37
   1   4  -4   21.13    2.93
  -1   4   4   22.94    3.66
   0  -4  -4   73.87   11.56
   0  -4   4   89.13    5.85
   0  -4  -4   83.90    6.74
   0  -4   4   82.65    6.26
   0  -4   4   66.68    7.02
   0  -4  -4   78.72    6.78
   0  -4   4   85.52    5.91
   0   4   4   77.03    6.83
   1  -4   4   77.37    5.65
   1  -4   4   80.85    6.26
   1   4   4   73.72    4.87
  -2  -4  -4   98.14    7.66
  -2  -4  -4   99.49    9.13
   2  -4   4   82.93    5.66
  -2  -4  -4   84.75    6.44
   2  -4   4   89.23    6.95
   2   4   4   89.08    6.35
  -2   4  -4   78.73    5.64
   2   4   4   93.63    7.13
   2   4   4   90.42    5.67
  -3  -4  -4   82.10    6.61
  -3  -4  -4   79.27    7.52
   3  -4   4   83.22    5.30
   3  -4   4   80.24    7.14
   3   4   4   72.37    5.92
   3   4   4   76.77    5.83
   3   4   4   89.07    5.88
   4  -4   4  159.39    9.03
  -4  -4  -4  163.96   11.10
  -4  -4  -4  160.36   10.21
   4   4   4  160.27    9.50
   4   4   4  161.64    8.90
   4   4   4  177.16    9.42
   5  -4   4   71.23    4.52
  -5  -4  -4   68.65    5.89
   5   4   4   70.78    4.94
   5   4   4   51.41    6.24
  -6  -4  -4   10.31    2.52
   6  -4   4    7.94    1.59
   6   4   4    8.38    1.69
   7  -4   4    7.21    1.99
  -7  -4  -4    7.21    2.03
   8   4   4   11.66    2.48
  -7  -5   4    2.99    2.90
   7  -5  -4    2.73    2.05
  -7  -5   4    2.83    1.76
   7   5  -4    0.45    0.78
  -6  -5   4   23.93    2.60
  -6  -5   4   22.39    3.42
   6  -5  -4   24.99    3.76
   6   5  -4   24.85    1.99
   5  -5  -4   14.02    7.12
  -5  -5   4   12.78    2.47
   5  -5  -4    9.48    2.55
  -5  -5   4   18.49    2.75
   5   5  -4   16.13    1.88
   5   5  -4   16.76    2.54
   4  -5  -4   10.76    7.98
  -4  -5   4    8.92    2.90
  -4  -5   4    6.56    2.23
   4  -5  -4    6.73    3.10
   4   5  -4    9.27    1.64
   3  -5  -4   47.69   11.50
   3  -5  -4   68.92    5.99
  -3  -5   4   65.34    4.82
  -3  -5   4   56.27    4.95
   3   5  -4   50.81    5.03
   3   5  -4   61.30    4.00
   2  -5  -4    4.74    2.94
   2  -5  -4   13.49    6.69
   2   5  -4    5.55    1.59
   1  -5  -4   51.29    5.05
   1  -5  -4   53.09    5.53
  -1  -5   4   48.85    4.47
   1  -5  -4   46.98   10.75
  -1   5   4   54.47    5.20
   1   5  -4   58.45    3.78
   0  -5   4    7.03    2.10
   0  -5  -4    5.73    2.77
   0  -5  -4    8.13    2.77
   0   5   4    6.57    2.48
   0   5  -4    9.43    1.98
  -1  -5  -4  143.05    8.62
   1  -5   4  126.29    7.84
  -1  -5  -4  135.47    8.91
   1  -5   4  141.24    7.84
   1   5   4  138.29    8.44
  -1   5  -4  137.73    7.71
  -2  -5  -4    6.48    2.83
   2  -5   4    6.92    1.90
  -2  -5  -4    5.62    2.87
   2   5   4   12.85    3.96
   2   5   4    6.10    1.86
  -3  -5  -4    8.10    2.64
   3  -5   4   14.34    2.87
   3   5   4   14.58    3.14
  -4  -5  -4   25.42    3.77
  -4  -5  -4   22.55    3.85
   4  -5   4   26.02    2.68
   4   5   4   22.69    2.50
   4   5   4   24.22    2.86
  -5  -5  -4   14.17    2.66
   5  -5   4   13.88    2.37
  -5  -5  -4   10.94    2.17
   5   5   4   15.02    2.16
  -6  -5  -4   46.91    3.54
   5  -6  -4    5.68    1.64
  -5  -6   4    2.15    1.31
   5   6  -4    2.82    0.73
  -4  -6   4   35.48    3.11
   4  -6  -4   33.25    3.29
   4   6  -4   32.37    2.24
   4   6  -4   39.19    3.10
  -3  -6   4   18.27    2.44
   3  -6  -4   18.07    2.77
   3   6  -4   19.04    2.60
   3   6  -4   21.64    1.76
   2  -6  -4    5.96    1.80
  -2  -6   4    8.81    1.69
   2   6  -4    5.91    1.10
   2   6  -4    9.56    1.94
   1  -6  -4   34.23    3.49
  -1  -6   4   31.87    2.71
  -1  -6   4   34.58    2.99
  -1   6   4   29.46    3.45
   1   6  -4   30.70    2.42
   0  -6   4    8.94    1.65
   0  -6  -4    7.55    1.83
   0   6  -4    7.81    1.36
   0   6   4    8.06    1.74
  -1  -6  -4   52.85    4.02
   1  -6   4   55.57    3.62
   1   6   4   52.03    3.81
   1   6   4   54.83    3.40
  -2  -6  -4   23.86    2.76
   2  -6   4   24.18    2.61
   2   6   4   19.57    1.90
   2   6   4   22.74    2.41
  -3  -6  -4   50.29    3.75
   3   6   4   44.41    2.88
   3   6   4   51.03    3.22
  -3   6  -4   50.59    4.48
  -4  -6  -4   35.11    3.09
   4   6   4   45.39    2.70
  11   0  -5   -0.67    2.12
  11   0  -5    1.01    1.40
  10   0  -5   28.06    3.14
  10   0  -5   30.39    4.34
  10   0  -5   33.68    3.59
   9   0  -5   45.49    5.83
   9   0  -5   60.89    4.62
   9   0  -5   53.45    4.75
   9   0  -5   53.85    5.27
   8   0  -5  207.57   12.77
   8   0  -5  207.86   11.78
   8   0  -5  234.49   11.99
   8   0  -5  189.79   11.77
   7   0  -5   42.03   33.87
   7   0  -5    9.13    3.58
   7   0  -5    7.53    3.31
   7   0  -5    6.05    8.96
   7   0  -5    9.64    2.70
   6   0  -5   22.94    5.40
   6   0  -5   51.53   69.61
   6   0  -5   21.55    3.25
  -6   0   5   26.31    2.44
   6   0  -5   26.18    5.16
   6   0  -5   29.93    4.34
  -5   0   5  481.85   23.31
   5   0  -5  455.62   24.45
   4   0  -5   32.63    3.52
  -4   0   5   32.76    2.12
   3   0  -5  315.43   15.38
  -3   0   5  282.25   14.81
  -2   0   5  413.30   20.36
  -1   0   5 2506.53  122.69
   0   0   5    2.05    0.47
   1   0   5  646.57   32.39
   1   0   5  657.31   31.99
   2   0   5  138.19    7.64
   2   0   5  133.22    7.89
   2   0   5  156.51    7.25
   3   0   5   16.07    2.02
   3   0   5   17.32    2.77
   4   0   5  117.47    7.69
   5   0   5    6.21    1.99
   5   0   5    5.01    3.32
   6   0   5  142.60   11.08
   6   0   5  152.60    9.05
   6   0   5  152.43    8.62
   6   0   5  155.09   11.39
   7   0   5  137.15    8.15
   7   0   5  133.36   10.53
   7   0   5  134.21    7.92
   8   0   5  190.24   10.40
   8   0   5  189.25   10.28
   9   0   5  175.99    9.12
   9   0   5  170.21    9.19
  11  -1  -5    4.64    1.46
  11   1  -5    8.46    2.08
  10  -1  -5   20.45    4.35
  10  -1  -5   22.60    2.77
  10  -1  -5   27.33    3.39
  10   1  -5   16.48    2.86
  10   1  -5   21.60    3.64
  10   1  -5   24.02    2.80
   9  -1  -5   76.99    9.86
   9  -1  -5   84.56    7.38
   9   1  -5   77.19    5.54
   9   1  -5   80.72    8.85
   8  -1  -5   88.80    8.16
   8  -1  -5  105.75    6.79
   8  -1  -5   87.38    6.64
   8   1  -5   94.46    6.47
   8   1  -5  111.16    6.72
   8   1  -5   91.94    7.49
   8   1  -5   90.06    6.24
   7  -1  -5    4.00    3.44
   7  -1  -5    8.67    2.59
   7  -1  -5    9.38   51.06
   7  -1  -5    4.29    2.24
   7   1  -5    8.08    5.99
   7   1  -5    7.61    3.24
  -6  -1   5  369.30   18.74
   6  -1  -5  384.00   20.58
   6  -1  -5  340.61   19.19
   6  -1  -5  388.79   19.37
   6  -1  -5  382.02   20.27
   6   1  -5  343.00   19.18
   6   1  -5  394.99   19.94
  -6   1   5  368.52   18.35
   6   1  -5  353.97   19.27
   6   1  -5  361.39   20.52
   6   1  -5  360.29   18.63
  -5  -1   5   35.36    2.72
   5  -1  -5   45.94    4.87
  -5   1   5   36.99    2.37
   5   1  -5   34.38    4.80
  -4  -1   5   25.95    2.04
  -3  -1   5   49.44    2.98
  -3   1   5   52.21    2.75
  -2  -1   5  482.16   24.03
  -2   1   5  490.48   23.92
  -1  -1   5  458.29   22.15
  -1  -1   5  426.25   21.67
  -1   1   5  432.76   21.61
   0  -1   5  686.15   38.59
   0  -1   5  802.57   38.21
   0   1   5  892.80   38.59
   0   1   5  732.07   38.16
   1  -1   5  228.96   12.89
   1  -1   5  255.99   12.43
   1   1   5  262.28   12.85
   1   1   5  250.32   12.44
   2  -1   5  314.98   15.84
   2  -1   5  266.18   15.07
   2   1   5  296.94   14.59
   3  -1   5  181.81    9.75
   3  -1   5  161.43    9.21
   3   1   5  161.05    8.59
   4  -1   5  147.15    8.59
   4  -1   5  149.15    9.34
   4  -1   5  142.16    8.31
   4   1   5  155.23    9.65
   4   1   5  157.76   10.68
   4   1   5  151.12    8.78
   5  -1   5   43.12    5.45
   5  -1   5   32.74    5.50
   5  -1   5   39.19    3.49
   5   1   5   44.12    6.20
   5   1   5   42.15    4.08
   5   1   5   37.02    4.17
   6  -1   5  124.16   10.42
   6  -1   5  129.04    7.44
   6  -1   5  136.92    8.28
   6   1   5  128.79    8.04
   6   1   5  132.35    7.85
   6   1   5  128.42   11.17
   7  -1   5   12.84    2.25
   7  -1   5   15.32   29.91
   7  -1   5   15.82    2.63
   7   1   5   17.78    3.77
   7   1   5   19.37    2.77
   7   1   5   18.25    3.24
   8  -1   5   71.85    4.68
   8  -1   5   66.98    4.83
   8   1   5   72.90    4.83
   8   1   5   70.47    4.70
   8   1   5   66.47    6.27
   9  -1   5    0.38   18.54
   9  -1   5    8.97    1.96
   9  -1   5   11.95    1.94
   9   1   5   16.38    2.07
   9   1   5   15.14    2.08
   9   1   5   58.72   29.63
  10  -2  -5   36.69    3.50
  10  -2  -5   39.30    3.96
  10  -2  -5   37.11    5.15
  10   2  -5   37.92    3.00
  10   2  -5   37.78    3.88
   9  -2  -5   16.49    3.97
   9  -2  -5   15.88    2.56
   9  -2  -5   18.71    3.61
   9   2  -5   10.67    1.81
   9   2  -5   12.62    2.48
   9   2  -5   12.27    2.83
   8  -2  -5   56.90    5.31
   8  -2  -5   53.85    5.40
   8  -2  -5   57.47    7.16
   8   2  -5   64.89    6.01
   8   2  -5   56.00    4.75
   8   2  -5   59.37    5.37
   7  -2  -5   63.63    5.95
  -7  -2   5   76.81    7.56
   7  -2  -5   70.72    8.12
   7  -2  -5   84.96    6.27
   7   2  -5   64.03   10.37
   7   2  -5   76.77    4.78
   7   2  -5   85.95    6.61
   7   2  -5   76.47    5.57
  -6  -2   5   34.31    4.67
   6  -2  -5   36.38    4.84
   6  -2  -5   38.22    4.67
   6  -2  -5   30.29    6.81
   6   2  -5   31.88    5.53
   6   2  -5   30.19    8.13
   6   2  -5   30.49    2.79
   6   2  -5   36.55    4.19
   5  -2  -5    8.63    4.36
   5  -2  -5   60.42   33.40
   5  -2  -5   16.90    3.48
  -5  -2   5   17.29    3.97
   5  -2  -5   13.25    2.75
  -5  -2   5   14.55    2.17
   5   2  -5   13.64    2.42
   5   2  -5   12.52    2.76
   5   2  -5    8.03    4.03
   5   2  -5   15.33    2.13
  -5   2   5   15.30    1.54
  -4  -2   5  289.58   14.38
  -4  -2   5  288.67   14.59
  -4   2   5  275.53   13.85
   4   2  -5  275.30   15.74
   4   2  -5  265.95   14.38
  -3  -2   5  404.84   20.76
  -3  -2   5  419.46   20.52
  -3   2   5  400.62   20.15
  -2  -2   5  152.28    8.60
  -2  -2   5  165.36    8.72
  -2   2   5  158.87    8.25
  -1  -2   5  249.54   14.04
  -1  -2   5  283.95   13.50
   0  -2   5  468.63   24.26
   0  -2   5  458.61   23.08
   0   2   5  469.45   23.11
   1  -2   5  426.19   20.37
   1   2   5  386.93   19.60
   1   2   5  370.08   20.05
   2  -2   5  117.15    6.90
   2   2   5  108.98    6.01
   3  -2   5   77.54    5.31
   3  -2   5   78.47    5.57
   3   2   5   81.79    4.62
   3   2   5   80.66    5.84
   3   2   5   82.66    8.36
   4  -2   5   89.72    5.34
   4  -2   5   81.78    6.06
   4   2   5   85.46    5.72
   4   2   5   82.49    7.87
   4   2   5   85.75    6.41
   4   2   5   68.93    6.59
   5  -2   5  274.49   14.61
   5  -2   5  297.74   15.94
   5   2   5  273.27   15.79
   5   2   5  296.64   15.05
   5   2   5  266.78   17.34
   6  -2   5   10.59   34.86
   6  -2   5    0.92    1.55
   6   2   5    2.41    2.13
   6   2   5   -0.49    2.35
   6   2   5    2.75    2.84
   7  -2   5   45.73    3.63
   7   2   5   42.99    4.08
   7   2   5   46.84    5.39
   8  -2   5   52.21    3.59
   8   2   5   53.76    3.74
   8   2   5   54.74    4.84
   8   2   5   46.16    3.75
  -9  -2  -5   19.54    2.57
   9  -2   5    5.05   15.84
   9  -2   5   16.05    2.04
   9   2   5   14.92    1.90
   9   2   5   14.08    2.08
   9  -3  -5   11.57    4.39
   9  -3  -5    9.58    2.54
   9  -3  -5    8.56    2.20
   9   3  -5    5.16    2.20
   9   3  -5    5.14    1.31
   8  -3  -5   25.87    4.40
   8  -3  -5   31.90    7.11
  -8  -3   5   23.60    4.26
   8   3  -5   22.85    4.35
   7  -3  -5   28.40    4.01
   7  -3  -5   35.09    4.85
   7   3  -5   31.87    2.77
   7   3  -5   32.94    5.45
   6  -3  -5   18.14    3.42
   6  -3  -5   22.69    5.57
  -6  -3   5   25.28    4.36
   6  -3  -5   32.77    5.84
   6   3  -5   25.71    4.35
   6   3  -5   22.23    2.47
   6   3  -5   20.89    6.72
  -5  -3   5   87.51    7.82
   5  -3  -5   75.56    7.85
  -5  -3   5   87.90    6.35
   5  -3  -5   82.33   14.28
   5   3  -5   81.00    6.12
   5   3  -5   77.14    6.68
   5   3  -5   79.47    8.85
   4  -3  -5   70.49    8.50
   4  -3  -5   56.45    9.76
  -4  -3   5   61.55    5.25
   4  -3  -5   62.40    5.87
  -4  -3   5   61.46    6.60
   4   3  -5   64.67    3.97
  -4   3   5   59.08    3.57
   4   3  -5   59.18    7.71
   4   3  -5   66.68    4.74
   4   3  -5   65.79    5.18
   4   3  -5   60.36    5.90
  -3  -3   5   82.04    5.99
  -3  -3   5   91.41    7.11
   3  -3  -5   84.54    7.10
  -3  -3   5   98.26    6.31
   3  -3  -5   91.95   10.88
   3  -3  -5   72.16   10.11
  -3   3   5   95.29    4.88
   3   3  -5   87.90    5.53
   3   3  -5   90.67    5.31
  -2  -3   5  187.85   10.55
  -2  -3   5  151.86    9.69
   2  -3  -5  173.52   13.83
  -2  -3   5  167.47    9.27
   2  -3  -5  160.87   10.63
  -2  -3   5  177.97    9.89
  -2   3   5  181.72    8.90
   2   3  -5  177.25    9.30
  -1  -3   5  188.06   10.57
  -1   3   5  186.85    9.66
   0  -3   5   48.13    4.24
   0   3   5   49.41    3.10
   1  -3   5  129.78    7.61
  -1  -3  -5  112.20   11.60
  -1  -3  -5  114.78    8.47
  -1  -3  -5  109.10    9.56
   1   3   5  122.35    7.62
   1   3   5  120.62    6.49
  -2  -3  -5  121.00   10.45
   2  -3   5  140.92    8.38
   2  -3   5  122.78    8.59
  -2  -3  -5  135.62    9.01
   2  -3   5  145.40    7.69
  -2  -3  -5  143.31    9.35
   2   3   5  126.43    8.31
   2   3   5  128.68    7.26
   2   3   5  132.99    8.11
  -3  -3  -5   73.80    7.35
   3  -3   5   69.33    4.91
  -3  -3  -5   71.82    8.84
   3  -3   5   74.61    6.03
   3   3   5   73.02    4.76
  -3   3  -5   71.53    4.57
   3   3   5   79.48    5.49
   3   3   5   73.36    5.75
   4  -3   5  136.92    9.46
   4  -3   5  140.12    7.98
   4   3   5  147.39    8.42
   4   3   5  145.73    8.60
   4   3   5  127.77   10.43
   5  -3   5  100.62    5.90
   5  -3   5   69.02   49.35
   5  -3   5   99.85   10.90
   5   3   5   92.15    6.12
   5   3   5   99.85    6.84
   5   3   5   93.62    6.50
   6  -3   5   54.74    3.90
   6   3   5   54.53    4.67
   6   3   5   48.92    5.05
   7  -3   5   14.92    2.19
  -7  -3  -5   13.72    2.73
   7  -3   5   34.44   29.01
   7   3   5   19.99    3.21
   8  -3   5   -7.02   18.78
  -8  -3  -5   14.12    2.59
   8  -3   5   21.89    2.69
   8   3   5   15.38    2.33
   8   3   5   21.61    3.26
   9   4  -5   40.45    2.69
  -8  -4   5   58.91    4.29
   8  -4  -5   58.49    4.68
   7  -4  -5    1.04    5.29
   7  -4  -5    7.71    2.40
  -7  -4   5    9.24    2.17
   7   4  -5    5.42    1.23
   7   4  -5   11.21    4.71
  -6  -4   5    3.56    2.30
  -6  -4   5    5.96    4.73
   6  -4  -5    3.37    2.89
   6  -4  -5    1.88    5.69
   6   4  -5    2.22    1.27
   5  -4  -5   23.84    6.64
   5  -4  -5   26.78    4.94
  -5  -4   5   22.70    3.71
   5   4  -5   19.59    2.42
   5   4  -5   23.28    4.11
  -4  -4   5   25.68    3.82
   4  -4  -5   26.67    6.85
   4   4  -5   29.86    2.76
   4   4  -5   23.44    7.13
   4   4  -5   31.93    5.20
   4   4  -5   32.09    4.08
   4   4  -5   29.29    4.43
   3  -4  -5   48.32   10.92
  -3  -4   5   66.99    5.06
   3  -4  -5   64.52    6.29
   3   4  -5   62.04    4.12
   3   4  -5   61.31    5.34
  -3   4   5   56.91    4.15
   2  -4  -5   23.61    4.62
  -2  -4   5   18.30    4.56
  -2  -4   5   24.42    4.40
  -2   4   5   30.87    2.79
   2   4  -5   22.83    3.57
   2   4  -5   28.25    4.34
   1  -4  -5  504.13   30.62
  -1  -4   5  575.78   27.54
   1  -4  -5  545.05   28.07
  -1  -4   5  546.77   27.52
   1  -4  -5  531.65   28.01
   1   4  -5  536.01   27.24
  -1   4   5  494.87   27.60
   1   4  -5  530.34   26.91
  -1   4   5  568.38   26.94
   0  -4   5   57.35    6.80
   0  -4  -5   62.77    6.10
   0  -4   5   62.51    5.25
   0  -4  -5   51.70    7.21
   0  -4   5   70.49    6.00
   0  -4  -5   69.56    8.85
   0   4  -5   57.45    4.63
   0   4   5   66.76    5.88
   0   4   5   65.39    4.33
   0   4  -5   69.92    4.86
  -1  -4  -5   41.44    6.03
   1  -4   5   38.01    5.16
  -1   4  -5   28.07    3.54
   1   4   5   34.40    4.36
   1   4   5   38.18    7.00
   1   4   5   36.28    3.39
  -2  -4  -5   35.28    4.56
   2  -4   5   23.22    3.14
  -2  -4  -5   24.57    4.22
  -2  -4  -5   20.06    4.17
   2  -4   5   29.49    5.09
   2   4   5   26.89    3.89
  -2   4  -5   23.97    4.10
   3  -4   5  175.74   12.18
  -3  -4  -5  194.23   11.36
   3  -4   5  186.96   10.24
  -3  -4  -5  187.04   11.99
   3   4   5  205.33   10.61
   3   4   5  181.06   10.66
   3   4   5  181.12   10.75
   4  -4   5   69.02    4.63
  -4  -4  -5   62.30    5.85
  -4  -4  -5   70.23    7.36
   4   4   5   58.04    4.96
   4   4   5   64.06    4.73
  -5  -4  -5   61.43    6.96
   5   4   5   62.48    5.29
  -6  -4  -5   13.00    2.46
   6  -4   5    8.66    1.50
   6   4   5    9.72    1.65
   6   4   5    8.48    2.36
  -7  -4  -5    1.10    1.50
   7  -4   5    2.74    1.17
   7   4   5    3.56    1.78
   7  -5  -5   77.03    5.00
  -7  -5   5   85.06    4.55
  -7  -5   5   73.56    7.06
   7   5  -5   70.95    4.12
  -6  -5   5   99.79    6.29
  -6  -5   5  104.95    5.97
   6  -5  -5   97.86    6.50
   6   5  -5  100.33    5.43
   5  -5  -5   53.87    5.06
   5  -5  -5   56.00    9.62
  -5  -5   5   54.15    4.60
  -5  -5   5   55.10    4.11
   5   5  -5   51.11    4.28
   5   5  -5   53.52    3.40
   4  -5  -5    8.68    6.69
   4   5  -5   15.16    4.46
  -3  -5   5   39.54    3.82
   3  -5  -5   33.61    7.37
   3  -5  -5   40.80    5.25
  -3  -5   5   38.11    4.09
   3   5  -5   37.75    3.00
   2  -5  -5   63.75    8.71
   2  -5  -5   45.14    4.70
  -2  -5   5   48.00    4.56
  -2  -5   5   53.71    4.38
   2  -5  -5   46.23    5.42
   2   5  -5   44.27    3.44
   1  -5  -5   59.37   10.43
   1  -5  -5   64.20    5.82
   1  -5  -5   54.25    5.26
  -1  -5   5   51.67    4.71
   1   5  -5   64.46    4.00
  -1   5   5   60.00    5.29
   0  -5  -5  245.51   14.42
   0  -5   5  248.75   13.65
   0  -5  -5  275.99   14.52
   0   5   5  270.70   14.29
   0   5  -5  254.84   13.36
   1  -5   5   89.78    6.34
   1  -5   5   99.57    6.12
  -1  -5  -5   93.46    7.21
  -1  -5  -5  111.76    7.02
   1   5   5   95.87    6.95
   1   5   5  108.93    6.89
   2  -5   5   14.94    2.64
  -2  -5  -5   14.52    3.17
  -2  -5  -5   12.25    3.14
  -3  -5  -5   21.16    4.04
  -3  -5  -5   21.42    4.17
   3  -5   5   24.29    2.84
   3   5   5   31.11    2.70
   3   5   5   28.88    3.20
   4  -5   5   16.70    2.31
  -4  -5  -5   17.26    3.58
  -4  -5  -5   14.69    3.11
   4   5   5   17.93    2.40
   4   5   5   14.47    2.40
   5  -5   5    8.49    1.64
  -5  -5  -5   13.33    2.18
   5   5   5   11.86    1.93
  -6  -5  -5   41.10    3.44
  -5  -6   5    9.89    2.10
   5   6  -5   10.76    1.08
   4  -6  -5   57.06    3.83
  -4  -6   5   48.37    3.41
   4   6  -5   51.94    2.91
   4   6  -5   44.51    3.44
  -3  -6   5  147.55    8.18
   3  -6  -5  158.85    8.54
   3   6  -5  156.21    7.85
   3   6  -5  147.65    8.21
  -2  -6   5   10.98    2.13
   2  -6  -5    9.95    1.84
  -2   6   5    3.57    3.43
   2   6  -5   11.15    1.93
   2   6  -5    8.99    1.22
  -1  -6   5   11.65    2.54
   1   6  -5   15.93    1.80
  -1   6   5   11.95    1.93
   0  -6   5    2.92    1.33
   0  -6  -5    3.47    1.71
   0   6   5    6.27    1.56
   1  -6   5   35.96    2.73
  -1  -6  -5   38.10    3.23
   1   6   5   33.87    3.02
   1   6   5   34.20    2.50
   2  -6   5   17.35    2.29
  -2  -6  -5   19.84    2.59
   2   6   5   22.97    2.26
  -2   6  -5   18.60    3.05
   2   6   5   18.36    1.75
  -3  -6  -5   15.00    2.73
   3   6   5   15.74    1.81
   4   6   5    3.94    1.36
  11   0  -6   38.85    3.73
  11   0  -6   36.12    3.04
  10   0  -6    5.61    1.81
  10   0  -6    4.76    1.69
  10   0  -6    2.67    2.49
   9   0  -6   51.19    5.80
   9   0  -6   47.00    4.34
   9   0  -6   43.20    4.35
   8   0  -6   33.35    4.08
   8   0  -6   26.14    5.61
   8   0  -6   30.21    3.96
   7   0  -6    5.33    2.65
   7   0  -6   -9.12   41.42
  -7   0   6    6.10    2.13
  -6   0   6   54.56    3.80
   6   0  -6   55.40    6.91
   6   0  -6   63.40    6.36
   6   0  -6   59.61    5.46
   6   0  -6   61.31    4.68
  -5   0   6   13.43    1.62
   5   0  -6   12.09    3.35
   4   0  -6   11.83    2.95
  -4   0   6    6.59    1.14
  -3   0   6  331.54   15.72
   3   0  -6  299.86   16.19
  -2   0   6  503.03   24.78
  -1   0   6  705.22   34.62
   0   0   6  842.40   41.30
   1   0   6  439.81   22.18
   1   0   6  448.34   21.65
   1   0   6  427.35   22.11
   2   0   6  595.65   31.91
   2   0   6  669.42   33.19
   2   0   6  652.66   31.45
   3   0   6   31.37    3.19
   3   0   6   42.89    3.89
   4   0   6    8.87    2.37
   4   0   6    9.38    3.00
   4   0   6    9.34    4.70
   5   0   6   45.21    3.98
   5   0   6   51.74    7.30
   6   0   6    2.49    2.04
   6   0   6    3.52    5.84
   6   0   6    2.67    2.17
   7   0   6   14.18   29.60
   8   0   6   -9.29   20.14
   9   0   6   11.32    1.99
   9   0   6    4.15   22.58
   9   0   6   10.41    1.59
  11  -1  -6    4.10    2.72
  11  -1  -6    3.86    1.53
  10  -1  -6   23.34    2.93
  10  -1  -6   23.44    3.10
  10  -1  -6   20.78    4.08
  10   1  -6   19.39    2.76
  10   1  -6   21.23    3.02
  10   1  -6   21.56    3.81
   9  -1  -6  211.68   12.78
   9   1  -6  191.36   11.33
   8  -1  -6  194.10   12.68
   8  -1  -6  196.79   11.40
   8  -1  -6  193.37   11.37
   8   1  -6  205.38   11.05
   8   1  -6  192.35   11.03
   8   1  -6  210.41   12.19
   8   1  -6  192.84   11.26
   7  -1  -6   94.44    6.67
   7  -1  -6   90.93    8.07
   7  -1  -6   89.09    6.48
   7   1  -6   91.41   10.46
   7   1  -6   98.64    7.43
   7   1  -6   89.17    6.70
   7   1  -6   90.76    7.49
   6  -1  -6   21.09   37.18
   6  -1  -6   49.65    4.84
   6  -1  -6   38.78    6.18
   6  -1  -6   48.64    4.42
  -6  -1   6   43.50    3.61
   6   1  -6   41.24    6.51
   6   1  -6   48.63    6.10
   6   1  -6   45.69    5.55
  -6   1   6   45.87    3.28
   6   1  -6   60.28    5.55
   6   1  -6   49.36    3.61
  -5  -1   6    7.97    1.46
   5  -1  -6    7.58    3.82
   5  -1  -6    6.75    2.77
   5   1  -6    5.94    3.32
   5   1  -6    7.37    2.26
  -5   1   6    6.96    1.10
  -4  -1   6   11.58    1.53
  -4   1   6    9.76    1.09
  -3  -1   6  605.35   30.40
  -3   1   6  622.20   30.49
  -2  -1   6   65.16    3.64
  -2   1   6   65.52    3.49
  -1  -1   6  321.33   15.97
  -1  -1   6  328.52   16.55
  -1   1   6  312.58   15.89
   0  -1   6  531.71   26.46
   0  -1   6  570.93   27.11
   0   1   6  552.78   26.44
   0   1   6  491.74   26.47
   1  -1   6  569.31   27.20
   1   1   6  559.80   27.20
   1   1   6  525.65   27.52
   2  -1   6   82.31    5.55
   2  -1   6   98.45    5.99
   2   1   6   86.29    4.89
   2   1   6  107.35    5.90
   2   1   6   85.22    5.40
   3  -1   6  140.05    7.79
   3  -1   6  124.81    8.12
   3   1   6  133.18    6.94
   3   1   6  127.57    8.19
   4  -1   6  162.45   10.19
   4  -1   6  155.57    8.95
   4  -1   6  150.42    9.66
  -4  -1  -6  138.04   10.31
   4  -1   6  149.91    8.31
   4   1   6  146.85    8.89
   4   1   6  145.26    9.92
   4   1   6  153.93    8.94
   4   1   6  151.64   10.45
   5  -1   6   95.75    6.84
   5  -1   6   81.45    7.80
   5   1   6   85.63    5.83
   5   1   6   86.28    6.00
   5   1   6   75.09    8.41
   6  -1   6   73.15    5.75
   6  -1   6   62.61    9.05
   6  -1   6   74.67    4.84
   6   1   6   74.72    5.53
   6   1   6   72.49    5.33
   6   1   6   61.07   10.43
   7  -1   6    8.20   28.23
   7  -1   6   32.26    3.28
   7   1   6   28.90    3.55
   7   1   6   31.50    3.63
   8  -1   6    5.27   22.51
   8  -1   6   33.06    3.19
   8  -1   6   41.70    3.61
   8   1   6   41.14    3.29
   8   1   6   47.27    6.01
   8   1   6   39.76    3.38
  -9  -1  -6   15.66    2.70
   9  -1   6   15.36    1.83
   9   1   6   19.46    2.06
   9   1   6   14.49    1.86
   9   1   6    0.80   17.76
  10  -2  -6   94.03    7.25
  10  -2  -6  105.03    7.41
  10  -2  -6  103.75    6.31
  10   2  -6  108.75    7.06
  10   2  -6  114.30    5.99
   9  -2  -6    1.97    1.97
   9  -2  -6    0.65    3.01
   9  -2  -6    3.40    1.96
   9   2  -6    0.83    1.33
   9   2  -6   -2.53    2.68
   9   2  -6    5.42    2.59
   8  -2  -6  184.33   11.01
   8  -2  -6  188.85   10.95
   8  -2  -6  171.06   12.28
   8   2  -6  208.18   11.60
   8   2  -6  187.21   10.98
   7  -2  -6   64.26    5.58
   7  -2  -6   65.58    5.78
   7  -2  -6   54.09    7.49
   7   2  -6   61.50    6.34
   7   2  -6   45.45   10.59
   7   2  -6   62.66    4.08
  -6  -2   6    4.91    3.92
   6  -2  -6    4.72    3.07
   6  -2  -6    4.73    3.95
   6  -2  -6    7.41    2.87
   6  -2  -6  -13.45   30.36
   6   2  -6    0.05    3.37
   6   2  -6    2.90    4.56
   6   2  -6    9.12    3.63
   6   2  -6    2.06    1.45
   6   2  -6    5.32    2.67
  -5  -2   6   11.82    2.13
   5  -2  -6   10.39    2.61
   5  -2  -6   23.29   31.19
  -5  -2   6   12.62    4.04
   5  -2  -6    5.77    4.40
   5  -2  -6    9.69    3.27
   5   2  -6    5.54    3.96
   5   2  -6    9.06    1.61
   5   2  -6   14.12    2.62
   5   2  -6   11.15    4.76
   5   2  -6   19.17    3.72
  -5   2   6   10.86    1.56
  -4  -2   6  484.69   23.04
   4  -2  -6  412.76   24.51
  -4  -2   6  424.89   22.01
  -4   2   6  432.60   21.55
   4   2  -6  424.63   21.88
  -3  -2   6  558.75   26.83
  -3  -2   6  494.73   27.59
  -3   2   6  554.62   26.46
  -2  -2   6  215.15   11.28
  -2  -2   6  196.25   10.72
  -2   2   6  211.96   10.48
  -1  -2   6   63.71    3.97
  -1  -2   6   71.74    4.58
  -1   2   6   69.81    3.77
   0  -2   6   85.81    5.62
   0  -2   6   94.08    5.11
   0   2   6   92.61    4.88
   1  -2   6  211.44   10.91
   1   2   6  207.31   10.05
   1   2   6  170.46   11.11
   2  -2   6  144.85    8.70
   2   2   6  148.73    7.72
   3  -2   6   52.85    4.85
  -3  -2  -6   62.18    6.88
   3  -2   6   61.23    4.28
   3   2   6   56.69    6.19
   3   2   6   55.02    4.87
   3   2   6   61.21    3.80
   3   2   6   72.76    7.74
   3   2   6   54.89    6.23
  -4  -2  -6   64.05    7.68
   4  -2   6   56.53    5.52
   4  -2   6   56.15    4.28
   4   2   6   55.27    5.68
   4   2   6   63.03    7.97
   4   2   6   50.74    6.03
   4   2   6   60.48    4.62
   5  -2   6  273.75   13.73
   5   2   6  267.06   14.14
   5   2   6  267.30   14.06
   5   2   6  236.21   17.17
   5   2   6  264.04   14.52
   6  -2   6  160.55    8.52
   6   2   6  151.91    9.01
   6   2   6  146.32    8.95
   7  -2   6   44.85    3.50
   7   2   6   44.26    3.81
   7   2   6   40.40    3.87
   7   2   6   51.48    5.25
   8  -2   6   68.23    4.00
   8   2   6   59.43    4.04
   8   2   6   65.00    4.18
   8   2   6   62.51    5.43
  10   3  -6    2.87    0.83
   9  -3  -6   49.71    4.14
   9  -3  -6   43.18    6.04
   9  -3  -6   44.42    4.45
   9   3  -6   54.57    3.39
   9   3  -6   49.22    5.48
   8  -3  -6   35.71    4.60
   8  -3  -6   35.64    4.46
  -8  -3   6   33.97    4.77
   8   3  -6   35.16    5.12
   7  -3  -6    9.76    3.14
   7  -3  -6    6.70    2.72
  -7  -3   6    6.13    2.91
   7  -3  -6    4.94    4.60
   7   3  -6    4.67    3.54
   7   3  -6    7.55    1.47
   6  -3  -6   87.60    7.05
   6  -3  -6   86.97   10.04
  -6  -3   6   84.49    6.51
   6  -3  -6   86.99    7.54
   6   3  -6   96.35    8.65
   6   3  -6   83.33    6.84
   6   3  -6   92.26    5.20
   6   3  -6   77.35   10.28
   5  -3  -6   83.90    9.48
  -5  -3   6   82.98    7.40
   5  -3  -6   87.72    6.92
   5  -3  -6   81.95   10.05
  -5  -3   6   87.87   10.16
   5   3  -6   90.76    6.96
   5   3  -6   64.76    8.99
   5   3  -6   84.88    4.98
   4  -3  -6  204.19   14.94
  -4  -3   6  209.26   11.80
  -4  -3   6  205.20   12.39
   4  -3  -6  211.87   12.19
   4  -3  -6  189.22   13.32
   4   3  -6  219.96   11.68
  -4   3   6  205.05   10.68
   4   3  -6  212.05   11.88
   4   3  -6  228.98   14.16
   4   3  -6  213.48   10.95
  -3  -3   6   34.45    4.58
  -3  -3   6   41.25    4.96
   3  -3  -6   29.40    6.35
  -3  -3   6   34.19    4.10
  -3  -3   6   36.93    3.49
   3  -3  -6   40.97    7.11
   3  -3  -6   39.05    5.53
   3  -3  -6   42.23    5.46
  -3   3   6   38.22    2.56
   3   3  -6   37.74    3.50
   3   3  -6   40.93    3.15
  -2  -3   6   70.19    4.70
   2  -3  -6   55.62    9.54
   2  -3  -6   60.37   10.17
  -2  -3   6   69.56    5.19
   2  -3  -6   66.12    6.36
  -2  -3   6   65.03    5.36
   2  -3  -6   76.19    6.57
  -2  -3   6   76.17    6.08
   2   3  -6   66.83    4.48
  -2   3   6   74.09    4.04
   1  -3  -6  199.34   12.36
  -1  -3   6  214.41   11.87
   1  -3  -6  214.95   15.33
  -1  -3   6  215.31   11.60
  -1  -3   6  188.63   11.09
  -1  -3   6  216.40   11.90
   1  -3  -6  205.77   12.09
  -1   3   6  218.05   10.76
   0  -3  -6   41.42    9.69
   0  -3  -6   43.04    6.51
   0  -3   6   50.81    5.02
   0  -3  -6   47.01    5.68
   0  -3   6   51.89    4.54
   0   3   6   53.15    3.20
   0   3   6   42.68    4.99
  -1  -3  -6   17.37    5.49
   1  -3   6   20.49    4.42
  -1  -3  -6   35.90    6.21
  -1  -3  -6   27.40    5.07
  -1  -3  -6   18.83    4.54
   1  -3   6   19.94    3.63
   1   3   6   21.50    3.82
   1   3   6   22.00    7.70
   1   3   6   24.42    2.28
   2  -3   6   64.93    5.75
   2  -3   6   52.55    4.27
  -2  -3  -6   53.56    6.67
  -2  -3  -6   45.44    6.06
  -2  -3  -6   60.76    8.13
   2  -3   6   58.70    5.23
   2   3   6   59.78    3.81
   2   3   6   59.47    4.80
   2   3   6   48.44    5.13
   3  -3   6  365.90   19.23
  -3  -3  -6  365.37   19.09
  -3  -3  -6  350.87   20.40
   3   3   6  310.19   19.61
   3   3   6  356.39   18.37
  -4  -3  -6   17.24    4.10
   4  -3   6   19.21    4.39
  -4  -3  -6   23.88    6.16
   4  -3   6   23.62    3.01
   4   3   6   11.66    3.88
   4   3   6   25.31    3.26
   4   3   6   14.47    2.66
   5  -3   6   40.43    3.41
   5  -3   6   42.85   52.63
   5   3   6   41.96    4.48
   5   3   6   37.28    3.65
   5   3   6   33.61    4.76
   7  -3   6   -9.65   28.08
  -7  -3  -6   15.90    3.37
   7  -3   6   19.79    2.33
   7   3   6   22.03    2.40
  -8  -3  -6   13.11    2.45
   8  -3   6   13.53    2.02
   8   3   6   18.79    2.12
   8   3   6   15.14    3.10
   9   4  -6   28.84    2.21
  -8  -4   6   43.48    3.65
   8  -4  -6   42.96    7.27
   8  -4  -6   41.54    4.12
   7  -4  -6   53.04    4.90
  -7  -4   6   52.38    4.19
  -7  -4   6   49.01    7.42
   7   4  -6   45.29    3.16
   6  -4  -6   40.34    7.37
  -6  -4   6   46.95    4.42
   6  -4  -6   48.30    5.45
   6  -4  -6   55.76    8.94
   6   4  -6   52.39    5.15
   6   4  -6   47.24    3.29
  -5  -4   6  160.77    9.87
   5  -4  -6  165.78   10.29
  -5  -4   6  174.13    9.51
   5  -4  -6  143.61   13.13
   5  -4  -6  147.52   11.83
   5   4  -6  158.09    9.31
   5   4  -6  162.26    8.60
  -4  -4   6  116.17    7.31
   4  -4  -6  101.15   12.11
   4  -4  -6   88.29   10.80
  -4  -4   6  119.59    7.82
   4  -4  -6  121.79    8.35
   4   4  -6  109.98   12.22
   4   4  -6  116.42    6.42
   4   4  -6  110.75    7.36
   4   4  -6  120.36    8.36
   3  -4  -6   35.91    5.30
   3  -4  -6   32.89    5.63
   3  -4  -6   48.75    9.95
  -3  -4   6   31.44    3.75
  -3  -4   6   36.29    4.59
   3  -4  -6   32.13    6.98
  -3   4   6   36.45    3.31
   3   4  -6   27.56    4.58
   3   4  -6   31.59    2.89
  -2  -4   6  197.36   12.28
   2  -4  -6  184.54   11.64
  -2  -4   6  199.56   10.79
  -2  -4   6  192.77   10.99
   2  -4  -6  196.63   11.64
   2  -4  -6  166.12   15.39
   2   4  -6  188.63   10.85
   2   4  -6  190.10   10.11
  -2   4   6  196.47   10.16
   1  -4  -6   56.88   10.81
  -1  -4   6   62.13    5.29
   1  -4  -6   60.12    6.49
   1  -4  -6   60.85    5.97
  -1  -4   6   57.93    6.47
  -1   4   6   69.97    6.29
   1   4  -6   62.64    4.97
  -1   4   6   64.11    4.30
   0  -4  -6  198.91   11.76
   0  -4  -6  165.57   14.65
   0  -4  -6  198.85   11.54
   0  -4  -6  186.90   11.92
   0  -4   6  208.24   10.89
   0  -4   6  205.83   12.05
   0   4  -6  195.50   10.46
   0   4  -6  192.29   10.78
   0   4   6  209.54   10.44
   0   4   6  169.33   12.10
   1  -4   6  110.09    8.46
   1  -4   6  107.35    7.08
  -1  -4  -6  110.01    7.79
  -1  -4  -6  115.38    8.61
  -1  -4  -6  109.86    7.85
   1   4   6  116.33    6.70
   1   4   6  116.92    7.33
   1   4   6  112.08    7.46
  -1   4  -6  102.72    6.93
  -2  -4  -6   51.55    6.50
  -2  -4  -6   69.09    6.09
  -2  -4  -6   74.52    7.15
   2  -4   6   62.75    6.89
   2  -4   6   67.74    4.77
   2   4   6   82.91    5.27
   2   4   6   67.28    5.50
   2   4   6   64.46    5.25
   3  -4   6  140.25    7.33
  -3  -4  -6  118.46    8.41
  -3  -4  -6  116.96    9.33
   3   4   6  122.40    7.75
   3   4   6  119.95    7.22
   3   4   6  125.28    7.56
  -4  -4  -6   36.36    6.36
   4  -4   6   33.14    3.21
  -4  -4  -6   28.99    4.62
   4   4   6   31.47    3.71
   4   4   6   33.36    3.42
   5  -4   6   47.34    3.42
  -5  -4  -6   50.71    4.73
  -5  -4  -6   37.14    6.30
   5   4   6   50.16    4.35
   5   4   6   49.58    3.89
   6  -4   6   14.00    2.07
  -6  -4  -6   18.39    2.66
   6   4   6   15.29    3.10
   6   4   6   14.65    2.46
  -7  -4  -6   62.92    4.29
   7  -4   6   73.62    4.03
   7   4   6   72.76    4.61
   7  -5  -6   61.54    4.07
  -6  -5   6   28.03    2.60
   6  -5  -6   15.84    5.91
   6  -5  -6   23.88    3.33
  -6  -5   6   19.09    3.24
   6   5  -6   21.18    1.83
   5  -5  -6    4.29    2.29
  -5  -5   6    1.84    1.83
   5  -5  -6    4.07    5.44
  -5  -5   6    1.71    1.49
   5   5  -6    6.26    1.95
   5   5  -6    1.75    1.04
  -4  -5   6   39.15    5.56
   4  -5  -6   32.51    6.63
  -4  -5   6   41.89    4.55
   4  -5  -6   37.85    9.00
   4   5  -6   37.99    2.88
   4   5  -6   40.09    3.87
  -3  -5   6   27.79    3.40
  -3  -5   6   25.57    3.61
   3  -5  -6   22.96    4.56
   3  -5  -6   22.74    6.75
   3   5  -6   20.86    3.61
   3   5  -6   21.06    2.32
  -2  -5   6   12.57    2.42
   2  -5  -6    3.78    6.12
   2  -5  -6   11.28    2.90
   2  -5  -6   11.96    2.73
   2   5  -6    6.86    1.57
   1  -5  -6   54.76    5.46
  -1  -5   6   52.34    4.36
   1  -5  -6   49.51    5.16
   1  -5  -6   46.19    9.58
   1   5  -6   54.59    3.67
  -1   5   6   53.37    4.86
   0  -5  -6  187.97   11.50
   0  -5  -6  209.82   11.45
   0  -5   6  189.99   10.66
   0   5  -6  172.53   11.52
   0   5   6  215.40   11.29
   1  -5   6    2.44    1.54
  -1  -5  -6    7.25    2.44
  -1  -5  -6    5.57    2.67
   1   5   6    7.21    2.20
   2   5   6   16.53    3.15
  -3  -5  -6   61.77    5.25
  -3  -5  -6   55.24    5.22
   3  -5   6   59.15    4.02
   3   5   6   60.34    4.38
   3   5   6   67.54    4.01
  -4  -5  -6   17.02    2.81
   4  -5   6   20.89    2.17
  -4  -5  -6   14.35    2.64
   4   5   6   15.82    2.33
   5  -5   6   10.57    1.80
  -5  -5  -6    5.78    2.32
  -5  -5  -6    7.44    1.65
  -5  -6   6   -1.19    1.25
   5  -6  -6    2.85    1.37
   5   6  -6    0.56    0.69
  -4  -6   6   23.95    3.35
   4  -6  -6   30.90    3.60
   4   6  -6   36.26    2.06
   4   6  -6   32.71    2.65
   3  -6  -6    5.80    1.61
   3   6  -6    6.47    1.55
   3   6  -6    5.96    1.02
   2  -6  -6   37.76    3.26
  -2  -6   6   34.90    2.69
  -2  -6   6   32.10    2.89
   2   6  -6   36.88    2.90
  -2   6   6   28.26    3.95
   2   6  -6   30.23    2.36
  -1  -6   6    9.48    1.49
  -1  -6   6    9.82    1.94
   1   6  -6    9.49    1.76
   1   6  -6    6.22    1.44
   0  -6  -6   83.27    5.43
   0  -6   6   94.72    5.17
   0   6   6  100.84    5.50
   0   6  -6   88.52    5.41
  -1  -6  -6   55.10    3.99
   1  -6   6   53.86    3.50
   1   6   6   55.45    3.32
   1   6   6   58.82    3.74
  -1   6  -6   59.59    3.84
  -2  -6  -6   39.80    3.56
   2  -6   6   42.61    2.84
   2   6   6   41.94    2.65
  -2   6  -6   45.25    3.67
   2   6   6   42.36    3.28
  -3  -6  -6    2.26    1.35
   3   6   6    0.58    0.95
  11   0  -7    9.50    2.34
  11   0  -7    7.47    1.53
  10   0  -7   33.89    3.28
  10   0  -7   31.85    3.34
   9   0  -7   27.03    5.89
   9   0  -7   19.88    3.85
   8   0  -7   55.24    4.83
   8   0  -7   63.73    6.61
   8   0  -7   60.32    5.24
   7   0  -7    4.55   42.89
   7   0  -7   20.60    3.47
   7   0  -7   28.06    5.64
  -7   0   7   23.09    2.90
  -6   0   7  118.24    6.56
   6   0  -7  118.09    7.11
   6   0  -7  123.79    7.72
   6   0  -7   97.48    9.85
   6   0  -7  121.61    8.80
  -5   0   7  441.15   20.72
   5   0  -7  385.50   21.84
  -4   0   7   21.70    1.68
   4   0  -7   19.37    3.68
  -2   0   7    1.21    0.67
  -1   0   7  994.55   48.77
   0   0   7  960.67   47.12
   1   0   7   54.22    4.01
   1   0   7   55.32    3.11
   2   0   7  852.89   43.30
   2   0   7  878.12   42.55
   3   0   7   49.22    4.18
   3   0   7   50.55    4.82
   4   0   7   63.84    4.78
   4   0   7   68.51    7.44
   4   0   7   69.23    6.59
   5   0   7  184.28   10.00
   5   0   7  178.64   12.43
   6   0   7   17.98    2.81
   6   0   7   12.58    2.41
   7   0   7   14.04   39.65
   8   0   7   12.86    2.40
   8   0   7    5.31   20.60
   8   0   7   15.51    2.28
   9   0   7    4.82   12.76
  11  -1  -7   26.74    2.60
  11  -1  -7   25.00    3.99
  10  -1  -7   69.92    5.83
  10  -1  -7   64.59    4.75
  10  -1  -7   81.07    4.90
  10   1  -7   70.29    5.52
  10   1  -7   73.24    4.67
  10   1  -7   71.80    5.00
   9   1  -7   23.15    5.45
   9   1  -7   31.42    3.81
   8  -1  -7  112.20    7.54
   8  -1  -7  101.93    8.95
   8  -1  -7  116.69    7.41
   8   1  -7  115.00    8.49
   8   1  -7  111.03    7.50
   8   1  -7  116.12    6.98
  -7  -1   7   87.21    6.13
   7  -1  -7   97.84    6.74
   7  -1  -7   88.87    8.05
   7  -1  -7   89.26    6.51
   7   1  -7   86.97   11.29
   7   1  -7   89.28    7.57
   7   1  -7   92.60    6.07
   7   1  -7   93.39    6.89
   7   1  -7   98.92    6.96
  -6  -1   7  168.31    9.30
   6  -1  -7  168.38   11.37
   6  -1  -7  169.31    9.82
   6  -1  -7  173.99   10.24
  -6   1   7  165.05    8.94
   6   1  -7  175.75   10.86
   6   1  -7  168.75   10.67
   6   1  -7  154.61   11.67
   6   1  -7  186.19   10.55
   6   1  -7  167.80   10.93
  -5  -1   7   55.54    3.67
   5  -1  -7   48.62    4.81
   5  -1  -7   14.07   38.72
   5  -1  -7   56.12    5.72
   5  -1  -7   48.90    7.16
  -5   1   7   56.40    3.18
   5   1  -7   54.26    5.84
   5   1  -7   44.74    5.54
   5   1  -7   48.08    3.54
  -4  -1   7  534.18   27.08
  -4   1   7  563.90   26.87
   4   1  -7  532.65   28.08
  -3  -1   7  667.23   32.30
  -3   1   7  637.87   32.11
  -2  -1   7 1136.48   58.48
  -2   1   7 1241.08   58.26
  -1  -1   7  546.73   27.17
  -1   1   7  552.16   27.20
   0  -1   7  543.42   25.37
   0  -1   7  489.32   24.56
   0   1   7  456.85   24.73
   1  -1   7  205.55   11.09
   1  -1   7  206.49   10.33
   1   1   7  197.82   10.77
   1   1   7  201.85   10.36
   2  -1   7  474.07   24.93
   2   1   7  499.27   24.70
   3  -1   7  438.59   23.82
  -3  -1  -7  488.40   24.44
   3  -1   7  455.23   24.19
   3  -1   7  485.99   23.35
   3   1   7  473.86   23.83
   3   1   7  446.18   24.54
   3   1   7  468.54   24.15
   3   1   7  437.45   23.63
   4  -1   7   37.83    7.02
   4  -1   7   26.89    5.22
   4  -1   7   27.28    3.07
  -4  -1  -7   17.00    3.92
   4  -1   7   21.22    4.49
   4  -1   7   32.63    6.18
   4   1   7   21.89    3.08
   4   1   7   24.18    4.59
   4   1   7   33.72    5.91
   4   1   7   26.85    3.98
   5  -1   7  306.71   16.61
   5  -1   7  316.30   15.92
   5  -1   7  298.17   18.12
   5   1   7  289.85   18.47
   5   1   7  331.92   16.33
   5   1   7  301.09   16.13
   6  -1   7   16.85    2.80
   6  -1   7   23.35    4.02
   6   1   7   25.93    3.77
   6   1   7   16.78    2.68
   7  -1   7   19.12    3.18
   7  -1   7    1.78   30.19
   7   1   7   18.79    5.53
   8  -1   7    0.99    1.25
   8  -1   7    4.43   20.31
   8  -1   7   -0.59    1.94
   8   1   7    1.26    1.48
   8   1   7   23.50   22.62
   8   1   7    3.75    1.33
  10  -2  -7   15.50    3.12
  10  -2  -7   14.28    2.16
  10  -2  -7   12.85    3.29
  10   2  -7   15.79    3.72
  10   2  -7   17.15    2.16
   9  -2  -7   51.48    4.41
   9  -2  -7   56.73    4.44
   9  -2  -7   40.49    5.63
   9   2  -7   45.74    5.12
   9   2  -7   52.54    3.76
   8  -2  -7  167.53   10.11
   8  -2  -7  155.50    9.94
   8  -2  -7  172.29   11.60
   8   2  -7  179.15   10.74
   8   2  -7  162.49    9.45
   7  -2  -7   42.08    7.04
   7  -2  -7   45.01    5.00
   7  -2  -7   57.48    5.49
   7   2  -7   49.61    3.55
   7   2  -7   51.25    6.23
  -6  -2   7  154.55    8.91
   6  -2  -7  149.10    9.32
   6  -2  -7  136.00   11.02
   6  -2  -7  166.95    9.77
   6   2  -7  162.21    8.21
   6   2  -7  127.86   11.49
   6   2  -7  142.79   10.52
   6   2  -7  165.48    9.82
  -5  -2   7   29.31    5.50
   5  -2  -7   25.31    4.86
   5  -2  -7   37.66    5.36
   5  -2  -7   28.15    4.39
  -5  -2   7   34.62    3.34
  -5   2   7   31.55    2.37
   5   2  -7   34.88    4.84
   5   2  -7   28.78    4.31
   5   2  -7   35.39    2.81
   5   2  -7   30.04    6.26
  -4  -2   7  114.92    7.00
   4  -2  -7  102.07    8.20
   4  -2  -7  102.42    7.10
   4  -2  -7  118.26   10.29
  -4  -2   7  101.20    6.13
   4   2  -7  102.60    7.28
   4   2  -7  101.74    5.90
  -4   2   7  104.89    5.59
  -3  -2   7  465.95   23.89
  -3  -2   7  446.54   23.30
  -3   2   7  477.70   22.97
  -2  -2   7  851.47   43.87
  -2  -2   7  883.63   43.28
  -2   2   7  888.98   43.02
  -1  -2   7   76.15    5.49
  -1   2   7   90.77    4.60
   0  -2   7   54.27    4.31
   0  -2   7   59.08    3.78
   0   2   7   58.60    3.38
   1  -2   7  135.53    7.93
   1   2   7  124.82    6.86
   2  -2   7   35.87    4.20
   2  -2   7   47.27    6.33
   2  -2   7   45.20    3.65
  -2  -2  -7   32.41    5.72
   2   2   7   41.27    8.23
   2   2   7   41.65    2.86
   2   2   7   45.41    4.47
   2   2   7   29.81    4.66
   3  -2   7   29.13    4.32
  -3  -2  -7   38.87    5.67
   3  -2   7   23.11    3.25
   3   2   7   26.74    3.79
   3   2   7   21.72    4.09
   3   2   7   27.74    3.87
   3   2   7   27.08    2.86
   3   2   7   32.91    6.66
   3   2   7   26.45    6.30
   4  -2   7  117.06    6.84
   4  -2   7  111.12    8.53
  -4  -2  -7  112.87    9.13
   4   2   7  118.54    7.92
   4   2   7  111.24    8.44
   4   2   7  126.77    7.31
   5  -2   7    8.70    1.95
   5  -2   7   33.54   39.76
   5   2   7    8.44    2.12
   5   2   7    8.39    2.96
   6  -2   7   40.45    3.40
   6  -2   7    7.63   35.36
   6   2   7   39.73    4.04
   6   2   7   31.27    4.20
   7  -2   7   54.02    3.65
   7   2   7   47.84    5.09
   7   2   7   51.71    4.05
   7   2   7   49.95    3.86
  -8  -2  -7   28.68    2.97
   8  -2   7   30.71    2.44
   8   2   7   24.90    2.74
   8   2   7   27.42    2.36
  10   3  -7   41.03    2.90
   9  -3  -7   13.72    3.54
   9  -3  -7   11.25    2.45
   9  -3  -7    8.67    2.05
   9   3  -7   12.93    5.24
   9   3  -7   11.26    1.90
   8  -3  -7    2.67    3.83
   8  -3  -7    4.30    2.34
   8  -3  -7    0.65    2.04
   8   3  -7    3.01    3.50
   7  -3  -7   11.78    4.97
   7  -3  -7    6.04    3.03
   7  -3  -7    8.41    2.98
  -7  -3   7   12.91    3.20
   7   3  -7   15.42    2.06
   6  -3  -7   79.34    6.68
   6  -3  -7   69.47    7.16
  -6  -3   7   82.95    8.51
  -6  -3   7   77.35    6.16
   6  -3  -7   71.56    9.51
   6   3  -7   86.94    6.07
   6   3  -7   85.22    4.85
   6   3  -7   73.35   11.25
  -5  -3   7   72.44    5.72
  -5  -3   7   66.93    7.09
   5  -3  -7   80.64    6.32
   5  -3  -7   67.55    7.55
   5  -3  -7   54.49    9.60
   5   3  -7   71.89    5.66
   5   3  -7   76.48    7.02
   5   3  -7   72.54    4.44
   5   3  -7   65.25    9.37
   4  -3  -7  107.24    9.28
   4  -3  -7   99.38    8.82
   4  -3  -7  102.88    7.66
   4  -3  -7   91.50   10.82
  -4  -3   7  105.97    6.89
  -4  -3   7   94.80    7.71
   4   3  -7   97.17    7.06
   4   3  -7  106.66    5.91
  -4   3   7  103.22    5.66
   4   3  -7  122.39    9.69
  -3  -3   7   25.36    3.70
  -3  -3   7   23.12    4.59
  -3  -3   7   18.66    3.63
  -3  -3   7   23.01    3.37
   3  -3  -7   24.63    5.07
   3  -3  -7   21.23    6.08
   3  -3  -7   20.37    3.66
   3   3  -7   22.52    4.21
  -3   3   7   19.63    2.06
   3   3  -7   20.47    2.55
   2  -3  -7   19.27    4.98
  -2  -3   7   18.32    3.25
   2  -3  -7   21.67    3.80
  -2  -3   7   16.80    2.56
  -2  -3   7   23.87    4.35
   2  -3  -7   16.50    3.63
  -2   3   7   15.92    1.92
   2   3  -7   17.05    2.31
   1  -3  -7   23.93    4.43
   1  -3  -7   24.23    3.82
  -1  -3   7   17.17    3.04
  -1  -3   7   23.11    4.02
   1  -3  -7   18.50    5.04
   1  -3  -7   23.57    6.52
   1   3  -7   24.12    3.47
  -1   3   7   21.83    2.06
   0  -3  -7   49.18    5.85
   0  -3   7   55.40    5.21
   0  -3  -7   55.88    7.42
   0  -3   7   62.19    5.37
   0  -3  -7   55.34    8.15
   0   3   7   64.27    5.19
   0   3   7   57.96    3.66
   1  -3   7   68.00    5.90
  -1  -3  -7   69.77   10.00
  -1  -3  -7   57.76    6.29
   1  -3   7   72.34    5.60
  -1  -3  -7   63.23    7.98
   1   3   7   58.59   11.50
   1   3   7   66.08    6.19
   1   3   7   65.53    4.19
   1   3   7   68.09    5.12
   2  -3   7   32.89    4.81
  -2  -3  -7   31.88    5.50
   2  -3   7   31.98    3.47
   2  -3   7   23.23    5.02
  -2  -3  -7   42.90    7.72
   2   3   7   35.58    4.48
   2   3   7   28.83    3.99
  -3  -3  -7    5.86    3.24
   3  -3   7    5.13    3.39
   3   3   7    2.47    2.11
   3   3   7   11.75    2.73
  -4  -3  -7   12.19    5.66
   4  -3   7    5.06    4.54
   4  -3   7    8.81    1.95
  -4  -3  -7    3.70    3.55
   4   3   7   11.63    2.47
   4   3   7   13.19    2.59
   5  -3   7   33.22    3.11
   5   3   7   31.89    3.36
   5   3   7   32.29    4.18
   6  -3   7   15.09    2.26
   6  -3   7   70.46   38.32
   6   3   7   19.11    2.77
   6   3   7   19.85    2.94
   7  -3   7   70.13    4.01
  -7  -3  -7   61.92    4.67
   7   3   7   65.35    4.17
   7   3   7   65.04    4.92
   9   4  -7   35.84    2.61
   8  -4  -7   30.14    6.19
   8  -4  -7   17.56    3.09
   8   4  -7   17.32    2.19
   7  -4  -7   55.05    4.73
   7  -4  -7   40.30    6.43
  -7  -4   7   55.28    4.21
  -7  -4   7   54.64    6.27
   7  -4  -7   52.42    7.49
   7   4  -7   48.66    3.19
  -6  -4   7   62.16    6.05
   6  -4  -7   69.58    7.37
   6   4  -7   67.11    5.10
   6   4  -7   59.86    4.97
   5  -4  -7   61.67    8.67
  -5  -4   7   72.33    6.18
  -5  -4   7   73.00    5.33
   5  -4  -7   64.43   10.36
   5  -4  -7   80.20    6.61
   5   4  -7   75.24    4.43
   5   4  -7   65.41    5.39
   4  -4  -7  124.00   10.75
  -4  -4   7  143.83    8.14
   4  -4  -7  131.51    9.03
  -4  -4   7  132.98    8.42
   4  -4  -7  106.11   12.59
   4   4  -7  126.79    8.15
   4   4  -7  137.34    7.34
   4   4  -7  168.76   13.49
   4   4  -7  139.40   16.46
  -3  -4   7    5.92    2.25
   3  -4  -7    9.96    3.17
   3  -4  -7   15.80    6.56
   3  -4  -7    9.34    3.39
   3  -4  -7    3.92    4.66
  -3  -4   7   12.49    2.94
   3   4  -7    9.81    3.52
   3   4  -7    9.17    2.95
  -3   4   7    7.43    2.21
  -3   4   7   10.23    3.65
   3   4  -7    9.51    1.64
  -2  -4   7  127.10    8.08
   2  -4  -7  136.44   13.71
   2  -4  -7  134.67    8.99
   2  -4  -7  123.52    8.89
  -2  -4   7  135.49    7.80
  -2  -4   7  129.66   10.35
  -2   4   7  123.87    7.27
   2   4  -7  123.44    7.11
   2   4  -7  128.20    8.11
  -2   4   7  121.38    8.36
   1  -4  -7  138.40    9.17
  -1  -4   7  143.51    8.31
   1  -4  -7  136.43    9.49
  -1  -4   7  135.96    9.94
   1  -4  -7  126.69   13.36
   1   4  -7  117.86    8.23
  -1   4   7  131.84    8.50
  -1   4   7  143.44    7.69
   1   4  -7  137.51    7.56
   0  -4  -7   65.48    6.13
   0  -4   7   71.00    5.47
   0  -4  -7   74.56    6.45
   0  -4  -7   74.23    7.18
   0  -4   7   74.42    7.25
   0  -4  -7   70.03   10.67
   0   4   7   71.90    4.90
   0   4   7   69.07    5.61
   0   4  -7   75.08    5.60
   1  -4   7   89.29    5.61
   1  -4   7   84.71    7.90
  -1  -4  -7   89.90    6.99
  -1  -4  -7   87.54    7.76
   1  -4   7   91.85    6.12
  -1  -4  -7   89.31    7.03
   1   4   7   82.51    6.26
   1   4   7   88.77    6.24
   1   4   7   89.81    5.88
  -1   4  -7   82.70    6.46
  -2  -4  -7   78.44    6.48
   2  -4   7   89.23    5.30
  -2  -4  -7   84.22    7.53
  -2  -4  -7   70.66    6.96
   2   4   7   69.18    5.54
   2   4   7   84.62    5.99
  -3  -4  -7  269.45   15.72
  -3  -4  -7  243.12   14.86
   3  -4   7  284.16   14.09
   3   4   7  269.15   14.44
   3   4   7  276.76   14.37
  -4  -4  -7   21.33    4.34
  -4  -4  -7   22.69    4.66
   5  -4   7   17.26    2.19
  -5  -4  -7   18.88    2.92
  -5  -4  -7   23.84    4.15
   5   4   7   20.88    3.21
   5   4   7   22.95    2.91
  -6  -4  -7   28.07    3.31
   6  -4   7   29.60    2.31
   6   4   7   30.15    3.19
   7  -5  -7   13.75    2.37
   6  -5  -7   33.46    5.87
   6  -5  -7   40.79    3.76
  -6  -5   7   42.92    3.72
   6   5  -7   39.77    2.53
  -5  -5   7   59.87    4.47
   5  -5  -7   64.52    5.02
   5  -5  -7   46.84    7.71
   5   5  -7   61.19    4.25
   5   5  -7   60.81    3.55
   4  -5  -7   13.72    2.82
   4   5  -7   17.90    2.98
   4   5  -7   12.43    1.78
   3   5  -7   38.13    3.78
   2  -5  -7   56.59   10.17
   2  -5  -7   74.38    6.10
  -2  -5   7   74.71    5.21
   2   5  -7   70.90    5.42
   1  -5  -7   19.47    4.06
   1  -5  -7   20.19    5.91
   1  -5  -7   20.98    4.11
  -1  -5   7   16.64    3.24
  -1   5   7   12.46    2.46
   0  -5   7   34.66    3.31
   0  -5  -7   35.96    4.64
   0   5   7   40.12    4.14
   0   5   7   31.63    4.50
   1   5   7   78.36    5.41
  -2  -5  -7   21.66    3.89
   2  -5   7   20.18    2.50
   2   5   7   24.93    2.98
   2   5   7   21.15    2.55
   2   5   7   18.99    2.91
  -2   5  -7   26.70    3.25
   3  -5   7  166.59    8.16
  -3  -5  -7  140.18    9.09
   3   5   7  148.43    8.37
   4  -5   7   19.01    1.95
  -4  -5  -7   13.89    2.61
  -4  -5  -7   22.66    4.45
   4   5   7   19.78    2.18
   5  -5   7    2.52    0.86
   5   5   7    2.67    1.18
   4  -6  -7   18.86    2.26
  -4  -6   7   15.78    2.28
   4   6  -7   19.80    2.15
   4   6  -7   18.57    1.42
  -3  -6   7   36.82    2.54
   3  -6  -7   27.30    2.79
  -3  -6   7   35.13    2.96
  -3   6   7   31.83    3.60
   3   6  -7   28.97    2.14
   3   6  -7   30.86    2.69
  -2  -6   7   15.05    2.27
  -2  -6   7   19.73    1.88
   2  -6  -7   17.22    2.41
   2   6  -7   17.49    2.18
  -2   6   7   12.34    2.55
   2   6  -7   12.32    1.83
  -1  -6   7  141.74    7.23
  -1   6   7  133.92    7.45
   1   6  -7  134.30    7.37
   0  -6   7   26.73    2.27
   0   6  -7   26.16    2.57
   0   6   7   32.97    2.68
   0   6   7   28.97    2.12
   1  -6   7   49.56    3.23
   1   6   7   53.72    3.65
   1   6   7   50.41    3.00
  -1   6  -7   50.71    3.55
   2  -6   7   43.85    2.73
  -2  -6  -7   42.17    3.22
   2   6   7   41.32    2.86
  11   0  -8   33.90    2.55
  11   0  -8   26.42    3.92
  10   0  -8   80.41    5.41
  10   0  -8   82.81    5.26
  10   0  -8   89.90    6.33
   9   0  -8  110.40    7.37
   8   0  -8    7.37    2.43
   8   0  -8    6.48    2.17
   8   0  -8    7.01    3.53
   7   0  -8   16.96    2.74
   7   0  -8   25.39    4.46
  -7   0   8   16.79    2.86
   7   0  -8   18.52    4.08
  -6   0   8    5.39    1.67
   6   0  -8    2.34    1.96
   6   0  -8    0.30    2.50
   6   0  -8    0.81    3.68
   5   0  -8   75.67    5.46
   5   0  -8   59.58    8.65
   5   0  -8   72.09    6.98
  -5   0   8   76.67    4.32
   5   0  -8   73.31    6.48
  -4   0   8    2.66    0.95
   4   0  -8    1.54    2.99
   3   0  -8  466.80   26.52
  -3   0   8  588.26   26.16
  -2   0   8  389.35   19.36
   1   0   8  228.55   12.52
   1   0   8  234.65   11.72
   2   0   8   49.43    4.19
   2   0   8   49.14    3.29
   3   0   8    5.51    2.56
   3   0   8   10.30    2.89
   3   0   8    5.39    2.50
   3   0   8   10.25    3.48
   3   0   8    7.94    3.88
   4   0   8    7.76    2.28
   4   0   8    2.54    3.98
   5   0   8   77.61    5.18
   5   0   8   67.40    9.70
   6   0   8    7.22    2.05
   6   0   8    5.54    2.17
   7   0   8  -11.15   21.05
   8   0   8   11.22    1.96
   8   0   8    9.26    1.98
   8   0   8    9.74   17.71
  10  -1  -8   51.81    3.61
  10  -1  -8   35.44    4.63
  10  -1  -8   49.27    3.64
  10   1  -8   45.01    3.36
  10   1  -8   33.92    5.64
  10   1  -8   36.39    4.56
   9  -1  -8  129.48    9.18
   9  -1  -8  136.94    7.99
   9  -1  -8  125.91    8.02
   9   1  -8  137.49    7.72
   9   1  -8  141.36    8.84
   9   1  -8  117.10    7.88
   8  -1  -8   60.15    6.98
   8  -1  -8   67.85    5.73
   8  -1  -8   67.13    5.40
   8   1  -8   67.16    6.83
   8   1  -8   59.44    5.71
   8   1  -8   64.72    4.86
   7  -1  -8  140.82    8.79
  -7  -1   8  144.36    8.67
   7  -1  -8  130.78   10.29
   7  -1  -8  142.64    9.09
   7   1  -8  138.99   10.08
   7   1  -8  148.48    9.65
   7   1  -8  162.20    9.34
   7   1  -8  145.16    8.47
   6  -1  -8   72.73    7.70
  -6  -1   8   64.21    5.23
   6  -1  -8   64.95    5.31
   6  -1  -8   71.98    6.02
  -6   1   8   70.30    4.40
   6   1  -8   70.67    6.18
   6   1  -8   57.33    8.52
   6   1  -8   70.53    6.90
   6   1  -8   71.32    7.58
   5  -1  -8  307.18   16.39
  -5  -1   8  308.73   15.31
   5  -1  -8  308.96   17.50
   5  -1  -8  285.04   15.87
  -5   1   8  295.88   14.96
   5   1  -8  296.16   15.83
   5   1  -8  284.46   15.13
   5   1  -8  287.44   16.83
  -4  -1   8  232.95   12.39
   4   1  -8  242.62   13.90
  -4   1   8  244.85   12.16
  -3  -1   8  629.14   32.29
  -3   1   8  673.79   32.15
  -2  -1   8  279.54   14.00
  -2   1   8  273.33   13.85
  -1  -1   8   65.26    3.85
  -1  -1   8   61.86    4.47
  -1   1   8   62.56    3.53
   0  -1   8  192.07   10.66
   0  -1   8  192.40    9.81
   0   1   8  188.59    9.72
   1  -1   8  146.63    7.74
   1  -1   8  149.81    8.63
   1   1   8  138.72    8.55
   1   1   8  150.48    7.63
   2  -1   8  177.27    9.86
   2  -1   8  181.98   11.21
   2   1   8  166.52    9.62
   2   1   8  166.08    9.95
   2   1   8  150.81    9.62
   2   1   8  161.69   11.21
   2   1   8  168.19    8.73
   3  -1   8  265.42   15.43
  -3  -1  -8  294.94   15.70
   3  -1   8  279.77   15.62
   3  -1   8  283.28   15.82
   3  -1   8  285.77   14.63
   3   1   8  279.24   15.05
   3   1   8  279.52   15.90
   3   1   8  278.24   15.19
   3   1   8  285.02   16.15
  -4  -1  -8  265.57   14.13
   4  -1   8  252.07   14.41
   4  -1   8  246.75   14.09
   4   1   8  211.56   18.72
   4   1   8  262.21   13.32
   4   1   8  234.05   13.36
  -5  -1  -8   55.13    7.26
   5  -1   8   59.17    5.39
   5  -1   8   50.93    3.96
   5   1   8   34.36    8.83
   5   1   8   45.58    4.56
   6  -1   8   87.96    5.59
   6  -1   8   89.69    7.02
   6   1   8   95.30    5.98
   6   1   8   82.67    6.01
   7  -1   8   29.79    2.85
   7  -1   8   24.87    3.54
   7  -1   8   -1.32   22.85
   7   1   8   26.06    3.14
   7   1   8   28.99    3.03
   8  -1   8   14.77    1.92
   8  -1   8   40.72   17.54
   8   1   8   17.43    2.26
   8   1   8   15.87    2.08
   8   1   8    1.11   17.33
  10  -2  -8   18.82    3.64
  10  -2  -8   20.23    4.77
  10   2  -8   12.32    3.38
   9  -2  -8   28.05    5.16
   9  -2  -8   36.78    3.71
   9  -2  -8   37.81    3.78
   9   2  -8   30.61    4.83
   9   2  -8   39.96    3.16
   8  -2  -8  177.54   12.33
   8  -2  -8  177.18   10.78
   8  -2  -8  187.92   11.01
   8   2  -8  208.97   10.51
   7  -2  -8   90.77    6.65
   7  -2  -8   97.81    7.03
   7  -2  -8   88.19    8.87
   7   2  -8   97.03    8.47
   7   2  -8   81.59    6.95
  -6  -2   8  111.65    7.08
   6  -2  -8  111.00    8.04
   6  -2  -8  106.85    9.70
   6  -2  -8  119.44    7.44
   6   2  -8   92.21   10.50
   6   2  -8  108.08    6.13
   6   2  -8   99.62    7.23
   5  -2  -8   35.86    4.68
   5  -2  -8   37.90    7.76
   5  -2  -8   46.71    5.84
  -5  -2   8   49.52    6.07
  -5   2   8   45.78    3.05
   5   2  -8   41.06    5.24
   5   2  -8   50.91    7.52
   5   2  -8   40.38    3.23
   5   2  -8   49.97    4.99
  -4  -2   8  363.55   20.53
  -4  -2   8  391.04   19.36
   4  -2  -8  375.00   21.84
  -4  -2   8  349.46   19.73
   4  -2  -8  366.68   20.42
  -4  -2   8  396.80   20.10
   4  -2  -8  367.07   19.97
   4   2  -8  377.81   19.01
  -4   2   8  397.68   18.86
   4   2  -8  385.35   19.65
   3  -2  -8  215.92   15.65
   3  -2  -8  230.45   13.98
  -3  -2   8  241.25   12.90
  -3  -2   8  224.81   12.06
   3   2  -8  252.52   12.19
  -3   2   8  228.24   11.64
   3   2  -8  211.06   12.64
  -2  -2   8  388.13   19.35
  -2  -2   8  394.87   20.17
  -2   2   8  361.73   19.01
  -1  -2   8  192.59   10.81
  -1  -2   8  176.69    9.94
  -1   2   8  192.82    9.64
   0  -2   8   82.36    5.56
   0  -2  -8  109.99   12.31
   0  -2  -8   95.97    7.44
   0  -2   8   91.73    6.23
   0   2   8   86.41    4.96
  -1  -2  -8  112.82   13.50
   1  -2   8  137.60    7.54
  -1  -2  -8  134.14    8.96
   1  -2   8  137.85    8.36
   1  -2   8  126.35    8.18
   1   2   8  128.36    8.11
   1   2   8  127.93    8.06
   1   2   8  135.80    7.05
   1   2   8  133.65   11.62
   2  -2   8  649.75   32.57
  -2  -2  -8  648.48   32.34
   2  -2   8  655.23   31.52
   2  -2   8  629.70   31.97
   2   2   8  614.45   32.14
   2   2   8  608.90   31.85
   2   2   8  606.17   31.27
   2   2   8  647.94   32.97
   2   2   8  604.68   31.81
   3  -2   8  193.92   12.38
  -3  -2  -8  179.86   11.44
   3  -2   8  187.43   10.20
   3   2   8  183.07   10.68
   3   2   8  200.85   11.42
   3   2   8  174.78   10.54
   3   2   8  190.96   12.55
   4  -2   8  147.08    8.09
  -4  -2  -8  142.42    9.75
   4  -2   8  147.22   10.60
   4   2   8  137.53    8.39
  -5  -2  -8  210.04   13.45
   5  -2   8  229.83   11.58
   5   2   8  227.56   12.10
   5   2   8  204.15   11.83
   6  -2   8    9.00   34.22
   6   2   8   20.36    3.54
   7  -2   8    7.86    1.52
   7  -2   8   -4.06   22.03
   7   2   8   12.66    5.85
   7   2   8    9.64    1.72
   7   2   8   33.75   24.09
   7   2   8   11.42    2.15
   8  -2   8   36.72    2.38
  -8  -2  -8   28.96    3.00
   8   2   8   33.08    2.42
   9  -3  -8   22.42    3.42
   9  -3  -8   27.25    5.14
   8  -3  -8   69.35    5.42
   8  -3  -8   77.33    5.65
   8   3  -8   69.91    4.72
   7  -3  -8   18.33    4.85
   7  -3  -8   26.62    4.73
   7  -3  -8   25.61    4.48
   7   3  -8   27.15    2.42
  -6  -3   8   38.63    5.55
   6  -3  -8   36.86    4.98
  -6  -3   8   35.70    4.73
   6  -3  -8   31.87    5.60
   6  -3  -8   26.76    5.65
   6   3  -8   33.11    4.20
   6   3  -8   34.10    2.85
   5  -3  -8   43.77    6.65
  -5  -3   8   49.17    4.95
   5  -3  -8   42.85    9.15
   5  -3  -8   51.31    5.68
  -5  -3   8   53.74    6.31
   5   3  -8   47.24    9.75
   5   3  -8   52.78    3.54
   5   3  -8   48.64    4.81
   5   3  -8   54.78    6.78
   4  -3  -8   14.72    4.74
   4  -3  -8   16.39    6.14
  -4  -3   8   21.04    3.33
   4  -3  -8   19.40    5.09
   4   3  -8   18.47    2.44
   4   3  -8   24.28    3.78
   4   3  -8   22.70    3.33
  -4   3   8   19.68    2.46
  -3  -3   8   37.01    4.05
   3  -3  -8   51.69    9.93
  -3  -3   8   38.29    4.41
   3  -3  -8   45.48    5.87
   3  -3  -8   38.64    5.77
  -3  -3   8   36.49    5.61
   3  -3  -8   46.68    7.71
  -3  -3   8   43.70    5.20
   3   3  -8   35.03    4.67
   3   3  -8   39.02    3.21
  -2  -3   8  124.40    7.84
   2  -3  -8  108.41    9.78
   2  -3  -8  130.26    8.66
  -2  -3   8  112.50    7.53
   2  -3  -8  112.42   12.25
  -2  -3   8  128.54    8.42
   2  -3  -8  102.83    8.73
   2   3  -8  120.29    7.79
  -2   3   8  124.96    6.56
   2   3  -8  120.38    6.77
   1  -3  -8  154.19   10.23
  -1  -3   8  153.12    9.43
   1  -3  -8  134.27   12.94
   1  -3  -8  122.22   10.41
   1  -3  -8  139.77    9.37
  -1  -3   8  140.55    8.71
  -1   3   8  146.52    7.70
   0  -3   8   26.22    4.65
   0  -3  -8   25.35    5.10
   0  -3  -8   29.87    5.30
   0  -3   8   22.65    4.37
   0   3   8   26.20    3.96
   0   3   8   27.95    2.60
   0   3   8   33.18    4.15
  -1  -3  -8  189.65   14.94
   1  -3   8  201.92   11.60
   1  -3   8  208.62   11.23
  -1  -3  -8  215.71   13.66
  -1  -3  -8  217.15   12.48
   1  -3   8  227.61   12.83
   1   3   8  201.58   11.88
   1   3   8  220.44   15.23
   1   3   8  198.00   11.09
   1   3   8  205.69   11.65
   2  -3   8  123.98    9.27
  -2  -3  -8  134.07    8.92
   2  -3   8  128.20    7.38
  -2  -3  -8  136.08   10.83
   2  -3   8  109.85    8.84
   2   3   8  129.81    8.23
   2   3   8  127.98    7.45
   2   3   8  126.45    7.80
  -3  -3  -8   25.32    5.66
   3  -3   8   18.49    4.58
   3  -3   8   19.95    3.03
  -3  -3  -8   22.70    3.94
   3   3   8   19.40    3.01
   3   3   8   28.36    4.18
  -4  -3  -8   -0.70    3.25
  -4  -3  -8   -0.05    5.30
   4  -3   8    0.32    1.48
   4   3   8   -1.04    2.17
   4   3   8    1.15    1.82
   5   3   8   65.77    5.24
   6  -3   8    1.96    1.16
   6   3   8    1.61    1.32
  -7  -3  -8  130.99    8.53
   7   3   8  154.10    8.42
   7   3   8  158.91    7.85
   8  -4  -8   26.70    5.81
   8  -4  -8   39.75    3.39
   8   4  -8   33.86    2.65
   7  -4  -8   32.03    3.88
   7  -4  -8   34.98    5.22
   7  -4  -8   38.79    6.73
  -7  -4   8   32.70    4.26
   7   4  -8   26.61    2.27
  -6  -4   8   73.59    5.03
   6  -4  -8   73.77    9.79
   6  -4  -8   64.63    7.76
  -6  -4   8   77.01    6.04
   6  -4  -8   57.17    6.87
   6   4  -8   66.22    4.99
   6   4  -8   71.25    4.38
  -5  -4   8  130.51    7.35
   5  -4  -8  114.86   11.33
   5  -4  -8  103.85    9.17
  -5  -4   8  117.50    7.73
   5  -4  -8  125.62    8.24
   5   4  -8  113.13    7.27
   5   4  -8  114.21    6.50
   4  -4  -8   23.84    4.69
  -4  -4   8   27.76    4.20
  -4  -4   8   26.28    3.51
   4  -4  -8   23.32    3.98
   4   4  -8   21.01    2.36
   4   4  -8   22.13    3.63
   3  -4  -8   48.83   10.60
   3  -4  -8   49.05    5.57
   3  -4  -8   36.83    5.60
   3  -4  -8   35.74    5.39
   3   4  -8   33.56    5.62
  -3   4   8   38.00    4.82
   3   4  -8   37.50    3.13
   3   4  -8   34.34    4.38
  -3   4   8   40.33    4.08
  -2  -4   8  112.25    7.17
   2  -4  -8   99.59    8.14
   2  -4  -8  105.03    8.00
  -2  -4   8  105.92   10.37
   2  -4  -8   98.92   12.36
  -2   4   8  101.15    7.16
   2   4  -8  120.81    7.73
  -2   4   8  104.27    6.49
   2   4  -8  111.80    6.17
   2   4  -8  104.29    7.14
   1  -4  -8   15.95    6.37
   1  -4  -8   10.64    3.67
   1  -4  -8    3.40    3.07
   1  -4  -8    7.19    2.81
  -1  -4   8    8.42    4.41
  -1   4   8    7.22    2.26
   1   4  -8   11.30    2.16
  -1   4   8    6.96    2.68
   1   4  -8    4.44    2.99
   0  -4  -8   95.91    7.57
   0  -4  -8   95.98    8.24
   0  -4  -8   94.31   11.40
   0  -4   8  100.01    6.58
   0  -4   8   99.34    8.93
   0  -4  -8  101.03    7.43
   0   4   8   98.26    6.38
   0   4  -8  106.14    7.25
   0   4   8  100.34    6.66
   1  -4   8   56.00    5.17
   1  -4   8   60.11    4.57
  -1  -4  -8   72.94    7.13
   1  -4   8   81.35   11.90
  -1  -4  -8   61.61    6.02
  -1  -4  -8   73.85    6.44
   1   4   8   66.92    5.14
   1   4   8   62.12    5.38
   2  -4   8   21.14    2.95
  -2  -4  -8   19.30    3.55
  -2  -4  -8   16.31    4.12
   2   4   8   29.44    3.89
  -2   4  -8   35.22    5.53
   2   4   8   28.01    3.46
  -3  -4  -8   25.19    3.75
   3  -4   8   26.11    2.91
  -3  -4  -8   25.05    4.72
   3   4   8   24.13    3.56
   3   4   8   20.72    3.05
  -4  -4  -8    9.74    2.73
   4  -4   8   15.49    2.25
  -4  -4  -8   13.25    3.51
   4   4   8   11.93    2.00
   4   4   8   14.66    2.34
  -5  -4  -8    1.06    2.17
   5  -4   8    2.22    1.08
   5   4   8    1.06    1.53
   5   4   8    4.88    1.74
  -6  -4  -8    8.25    2.03
   6  -4   8    9.12    1.63
   7  -5  -8   24.30    2.57
   6  -5  -8   15.09    2.69
   6  -5  -8   21.19    5.38
   6   5  -8   18.01    2.85
   6   5  -8   19.42    1.59
  -5  -5   8   10.88    2.08
   5  -5  -8   14.21    4.97
   5   5  -8    8.70    1.82
   5   5  -8    9.25    1.41
   4  -5  -8    7.36    2.36
  -4  -5   8    4.09    1.83
   4  -5  -8   11.85    5.03
   4   5  -8    4.27    1.05
   4   5  -8    3.21    1.69
   3  -5  -8   46.08    4.89
  -3  -5   8   51.42    4.07
   3  -5  -8   44.16    8.53
   3   5  -8   49.42    4.00
   3   5  -8   45.25    3.18
   2  -5  -8  210.00   12.13
   2  -5  -8  236.00   12.75
   2   5  -8  219.87   11.38
   1  -5  -8   51.29    4.90
  -1   5   8   55.65    4.87
   0  -5  -8   56.49    4.82
   0  -5   8   49.88    4.14
   0  -5   8   57.03    4.82
   0   5   8   44.35    4.24
   0   5   8   46.20    5.80
   0   5  -8   49.38    4.41
  -1  -5  -8   59.74    5.48
   1  -5   8   62.20    4.18
   1   5   8   62.90    4.71
  -1   5  -8   75.65    5.01
   1   5   8   63.33    4.59
  -2  -5  -8   39.97    4.09
   2  -5   8   33.87    2.78
   2   5   8   30.90    3.10
  -2   5  -8   39.31    4.54
   2   5   8   30.54    3.14
   2   5   8   32.22    2.98
   3  -5   8   51.12    3.23
  -3  -5  -8   47.43    4.50
   3   5   8   47.99    3.55
   4  -5   8   20.94    2.31
  -4  -5  -8   26.52    3.47
   4   5   8   27.60    2.28
  -4  -6   8    6.23    0.97
   4  -6  -8    5.08    1.53
  -4  -6   8    7.01    1.36
   4   6  -8    4.78    1.51
   3  -6  -8    6.94    1.45
  -3  -6   8    6.59    1.12
   3   6  -8    5.36    1.30
   2  -6  -8    3.41    1.33
  -2  -6   8    4.57    1.60
   2   6  -8    6.14    1.55
  -2   6   8    4.48    1.33
  -1  -6   8   11.38    2.00
   1   6  -8   14.26    2.27
  -1   6   8    7.76    1.62
   0  -6   8   49.33    2.84
   0   6   8   50.65    3.14
   0   6  -8   38.85    3.10
   0   6   8   44.15    2.72
  -1  -6  -8   10.95    1.63
   1  -6   8    8.56    1.49
   1   6   8    9.25    1.70
  -2  -6  -8   16.91    3.16
   2   6   8   21.84    1.91
  10   0  -9  163.52    9.16
  10   0  -9  144.21    9.73
  10   0  -9  188.87    9.06
   9   0  -9  609.86   30.58
   9   0  -9  623.81   30.45
   9   0  -9  571.99   31.15
   8   0  -9  159.10   11.14
   8   0  -9  175.11    9.76
   8   0  -9  175.00   10.25
   7   0  -9  148.35    9.23
  -7   0   9  142.58    8.54
   7   0  -9  133.94   10.21
   7   0  -9  147.42    8.58
  -6   0   9   15.08    2.19
   6   0  -9   12.27    4.49
   6   0  -9   10.47    3.21
   6   0  -9    7.93    2.16
   5   0  -9  254.74   14.20
   5   0  -9  278.80   16.62
   5   0  -9  274.07   14.51
   5   0  -9  257.16   15.03
  -5   0   9  259.78   13.60
  -4   0   9  587.12   27.62
   4   0  -9  521.04   28.19
  -3   0   9  130.26    6.89
  -2   0   9   97.29    5.28
  -1   0   9  293.31   14.75
   0   0   9   84.72    4.72
   1   0   9   21.89    3.37
   1   0   9   25.20    2.20
   2   0   9   17.01    2.90
   2   0   9   24.53    4.49
   2   0   9   24.78    4.33
   3   0   9  242.74   14.25
   3   0   9  224.23   14.49
   3   0   9  261.15   13.58
   3   0   9  252.11   13.09
   4   0   9   45.67    8.51
   4   0   9   47.95    6.79
   4   0   9   53.88    4.32
  -5   0  -9   14.54    3.80
   5   0   9   10.63    2.27
   8   0   9    9.10   15.26
  10  -1  -9   30.12    4.09
  10  -1  -9   25.21    3.07
  10  -1  -9   26.42    2.84
  10   1  -9   29.77    2.65
  10   1  -9   25.75    4.39
  10   1  -9   32.08    5.65
   9  -1  -9   24.63    3.47
   9  -1  -9   26.51    3.30
   9   1  -9   25.05    2.97
   9   1  -9   19.93    3.99
   8  -1  -9   42.56    4.88
   8  -1  -9   39.81    6.20
   8  -1  -9   36.80    4.22
   8   1  -9   33.71    4.88
   8   1  -9   35.57    6.18
   8   1  -9   43.95    3.96
   7  -1  -9  106.26    7.07
   7  -1  -9  116.09    9.14
   7  -1  -9  103.01    7.58
  -7  -1   9  104.81    7.37
   7   1  -9  109.27    7.78
   7   1  -9   99.21    8.02
   7   1  -9  119.46    9.24
   7   1  -9  106.59    6.72
  -6  -1   9   21.37    3.32
   6  -1  -9   22.53    3.73
  -6   1   9   24.85    2.91
   6   1  -9   15.89    5.06
   6   1  -9   20.59    4.14
   5  -1  -9  213.60   12.17
  -5  -1   9  222.25   11.59
   5  -1  -9  207.33   12.84
   5  -1  -9  204.84   13.99
  -5   1   9  231.69   11.26
   5   1  -9  222.39   12.11
   4  -1  -9  207.29   12.69
   4  -1  -9  188.08   13.80
   4  -1  -9  218.21   14.92
  -4  -1   9  214.32   11.07
  -4   1   9  219.80   10.82
   4   1  -9  210.25   11.04
   4   1  -9  202.24   12.86
   4   1  -9  220.13   11.69
  -3  -1   9  141.12    7.63
  -3   1   9  141.59    7.40
  -2  -1   9   68.80    5.31
  -2  -1   9   78.81    4.41
  -2   1   9   74.94    4.17
  -1  -1   9   64.34    3.90
  -1  -1   9   62.94    4.76
  -1   1   9   65.09    3.69
   0  -1   9  510.99   25.39
   0  -1   9  467.23   24.36
   0   1   9  488.97   24.29
   1  -1   9  186.51   11.41
   1  -1   9  206.88   11.30
   1   1   9  192.43   12.71
   1   1   9  211.16   10.08
   1   1   9  173.78   10.81
   2  -1   9   15.08    3.87
   2  -1   9   19.59    3.99
   2  -1   9   24.46    3.84
   2  -1   9   20.51    3.98
   2   1   9   13.62    3.19
   2   1   9   19.50    3.68
   2   1   9   20.41    2.58
   2   1   9   33.58    6.31
   2   1   9   22.95    4.44
   3  -1   9  299.22   16.35
  -3  -1  -9  301.32   15.96
   3  -1   9  281.79   16.03
   3  -1   9  278.78   14.92
   3   1   9  303.80   16.61
   3   1   9  259.96   15.33
   3   1   9  292.44   15.45
   4  -1   9  196.23   10.37
   4  -1   9  198.05   11.91
   4  -1   9  200.94   12.49
  -4  -1  -9  185.32   11.63
   4   1   9  193.31   10.78
   4   1   9  186.33   10.89
   4   1   9  181.14   11.94
   5  -1   9  363.78   18.48
   5  -1   9  360.63   17.99
  -5  -1  -9  328.82   18.92
   5   1   9  348.95   18.21
   6  -1   9   -7.52   29.46
   6  -1   9    3.30    2.12
   6   1   9    1.37    2.08
   7  -1   9  -10.31   21.59
   7  -1   9   21.27    2.46
   7   1   9   21.98    2.88
   7   1   9   23.84    2.56
  10  -2  -9   23.48    3.66
  10  -2  -9   20.78    2.50
  10  -2  -9   27.93    2.52
  10   2  -9   25.51    2.26
   9  -2  -9   40.00    5.20
   9   2  -9   32.99    5.67
   8  -2  -9    3.72    5.38
   8  -2  -9    2.10    3.33
   8   2  -9    9.81    4.24
   7  -2  -9   17.18    3.17
   7  -2  -9   12.78    4.80
   7  -2  -9   17.09    2.95
   7   2  -9    9.33    2.90
  -6  -2   9   20.53    3.48
   6  -2  -9   19.83    3.17
   6  -2  -9   16.42    3.55
   6  -2  -9   16.04    4.89
   6   2  -9   16.10    2.96
   6   2  -9   15.85    2.35
  -5  -2   9  150.85    8.50
  -5  -2   9  145.79   11.35
   5  -2  -9  136.96    9.15
   5   2  -9  141.02    9.76
  -5   2   9  142.10    7.66
   5   2  -9  136.02   11.39
  -4  -2   9   38.64    5.06
   4  -2  -9   35.48    5.80
   4  -2  -9   34.20    6.30
  -4  -2   9   28.45    5.25
   4  -2  -9   34.19    4.92
  -4  -2   9   33.27    3.59
  -4  -2   9   29.87    6.36
   4   2  -9   39.02    2.99
  -4   2   9   36.36    2.65
   4   2  -9   32.72    4.22
   3  -2  -9   48.69    6.84
   3  -2  -9   49.75   10.27
  -3  -2   9   53.59    5.12
   3  -2  -9   46.34    6.88
  -3  -2   9   54.62    4.06
  -3  -2   9   59.06    6.28
   3  -2  -9   54.45    7.49
   3   2  -9   54.62    3.82
  -3   2   9   52.42    3.32
   3   2  -9   44.66    4.92
  -2  -2   9  153.21    9.12
  -2  -2   9  145.20    8.12
   2  -2  -9  156.26   10.27
  -2  -2   9  140.65    8.90
   2  -2  -9  128.97   13.79
   2  -2  -9  140.25   10.42
   2   2  -9  145.17    8.91
  -2   2   9  158.20    7.68
  -2   2   9  131.38    8.74
   1  -2  -9   12.43    3.51
   1  -2  -9   10.42    7.44
   1  -2  -9   14.38    4.03
   1   2  -9   16.49    3.82
  -1   2   9    8.82    2.71
   0  -2  -9   10.70    7.33
   0  -2   9    9.52    2.40
   0  -2  -9    8.87    3.03
   0   2   9   10.51    1.80
   0   2   9   18.46    6.78
   0   2   9   16.03    2.89
  -1  -2  -9   28.74    4.92
   1  -2   9   32.89    4.50
   1  -2   9   29.78    4.74
   1  -2   9   33.62    3.62
   1   2   9   30.54    2.73
   1   2   9   26.73    3.79
   1   2   9   26.75    6.12
   1   2   9   24.90    3.87
   2  -2   9   66.25    6.25
  -2  -2  -9   56.34    5.98
   2  -2   9   53.05    9.22
   2  -2   9   61.58    4.51
   2   2   9   57.51    5.04
   2   2   9   50.93    6.67
   2   2   9   57.85    4.39
   2   2   9   62.72    4.91
   2   2   9   57.98    7.92
   3  -2   9   31.17    3.52
   3  -2   9   32.93    6.26
  -3  -2  -9   30.30    5.44
   3  -2   9   43.88    5.89
   3   2   9   39.23    4.00
   3   2   9   44.10    6.62
  -4  -2  -9  154.05   10.37
   4  -2   9  167.04    8.96
   4   2   9  165.27    9.33
   5  -2   9   11.80   53.58
   6  -2   9   29.67   30.72
   6  -2   9   66.42    4.32
   6   2   9   71.71    6.47
   6   2   9   68.45    4.60
   6   2   9   69.73    5.44
   7  -2   9  -12.99   19.65
   7   2   9    9.71   22.32
   9  -3  -9   14.45    3.09
   9  -3  -9   17.82    2.66
   9  -3  -9   11.81    3.49
   9   3  -9   19.70    2.06
   8  -3  -9   47.08    4.50
   8  -3  -9   48.78    6.31
   8  -3  -9   48.29    4.21
   8   3  -9   42.47    3.42
   7   3  -9   32.02    4.03
   6  -3  -9   47.83    5.99
   6  -3  -9   41.64    5.22
  -6  -3   9   37.90    6.90
  -6  -3   9   36.85    4.87
   6  -3  -9   49.67    8.42
   6   3  -9   45.21    4.30
   6   3  -9   42.22    3.14
   5  -3  -9  254.20   15.34
  -5  -3   9  268.47   14.17
  -5  -3   9  258.94   14.90
   5  -3  -9  273.82   14.86
  -5  -3   9  255.43   14.85
   5  -3  -9  251.41   17.02
   5   3  -9  224.14   18.15
   5   3  -9  278.51   13.49
   5   3  -9  278.38   14.14
   4  -3  -9  187.33   12.97
  -4  -3   9  181.82   11.74
  -4  -3   9  209.17   11.33
  -4  -3   9  202.51   11.85
   4  -3  -9  217.52   15.28
   4  -3  -9  203.57   12.07
  -4   3   9  207.63   10.62
   4   3  -9  200.91   10.55
   4   3  -9  201.75   11.92
   4   3  -9  200.16   11.28
   3  -3  -9  268.23   16.75
   3  -3  -9  237.47   17.86
   3  -3  -9  262.00   17.25
  -3  -3   9  278.13   16.02
  -3   3   9  292.82   13.90
   3   3  -9  274.60   14.62
   2  -3  -9    2.16    2.80
   2  -3  -9    3.78    3.71
   2  -3  -9   10.90    6.46
  -2  -3   9    8.70    2.77
   2  -3  -9    7.09    3.93
  -2  -3   9    8.50    3.61
   2   3  -9    2.61    2.69
  -2   3   9    6.20    1.56
   2   3  -9    8.47    2.05
  -1  -3   9  124.08    9.40
   1  -3  -9  115.64    9.93
   1  -3  -9  144.27   13.12
   1  -3  -9  128.42   10.08
  -1  -3   9  138.17    8.30
   1  -3  -9  129.75    9.06
  -1   3   9  124.04    8.73
   1   3  -9  140.38    8.47
  -1   3   9  138.68    7.31
  -1   3   9  131.88    8.24
   0  -3  -9  261.83   24.40
   0  -3   9  256.52   14.53
   0   3  -9  240.09   13.41
   0   3   9  243.07   12.50
   0   3   9  208.10   13.13
   0   3   9  238.12   18.60
   1  -3   9  113.81    8.85
   1  -3   9  118.01    7.32
   1  -3   9  109.41    6.60
  -1  -3  -9   92.21    7.92
  -1  -3  -9  115.95    9.66
   1   3   9  104.97    6.51
   1   3   9   96.15    7.12
   1   3   9  113.85    7.08
   1   3   9  127.02   11.02
   2  -3   9   97.02    5.79
   2  -3   9   91.31    6.88
  -2  -3  -9   97.81    9.60
  -2  -3  -9   84.06    7.35
   2   3   9   92.38    6.57
   2   3   9   86.91    6.49
   2   3   9   88.59    6.22
  -3  -3  -9   43.10    8.52
  -3  -3  -9   33.93    5.29
   3  -3   9   28.94    3.37
   3   3   9   27.62    3.52
   3   3   9   31.15    4.54
  -4  -3  -9   31.47    5.98
   4  -3   9   38.40    3.32
   4   3   9   37.37    3.57
   5  -3   9   29.41    2.69
  -6  -3  -9   -0.81    1.85
   6  -3   9    2.91    1.11
   6   3   9    2.17    1.31
   7  -3   9   27.79    2.07
  -7  -3  -9   27.58    2.85
   7   3   9   29.86    2.31
   8  -4  -9    4.42    3.94
   7  -4  -9   10.80    3.13
   7  -4  -9   14.78    4.52
   7  -4  -9    9.70    2.11
  -7  -4   9   19.30    4.96
   7   4  -9    6.28    3.27
   6  -4  -9   29.34    4.07
   6  -4  -9   28.95    5.33
  -6  -4   9   28.33    4.52
   6  -4  -9   32.20    7.37
   6   4  -9   23.61    2.12
   6   4  -9   19.34    2.98
   5  -4  -9   17.50    5.88
   5  -4  -9   13.07    3.04
   5   4  -9   13.74    2.62
   5   4  -9   13.93    1.94
   4  -4  -9   42.05    6.65
   4  -4  -9   41.70    5.49
   4  -4  -9   53.22   10.07
  -4  -4   9   48.15    4.90
   4   4  -9   49.95    3.29
   4   4  -9   46.73    4.22
   3  -4  -9   15.47    3.62
  -3  -4   9   25.37    3.96
   3  -4  -9   14.38    3.47
   3  -4  -9   19.51    4.23
   3  -4  -9   29.38    7.14
  -3   4   9   12.89    3.06
   3   4  -9   20.83    3.58
   3   4  -9   17.66    2.04
  -2  -4   9  295.11   15.78
   2  -4  -9  280.07   19.56
   2  -4  -9  311.05   16.50
   2  -4  -9  273.22   16.42
  -2   4   9  302.00   15.83
   2   4  -9  300.38   15.04
   2   4  -9  294.20   15.71
   1  -4  -9   99.72    8.43
  -1  -4   9  109.76    7.17
   1  -4  -9  111.26    8.26
   1  -4  -9  116.20    7.88
   1  -4  -9  116.39   11.81
  -1   4   9  118.65    7.29
   1   4  -9  109.93    7.35
   0  -4   9   85.44    5.58
   0  -4  -9   89.73    8.06
   0  -4  -9   84.17    6.91
   0  -4  -9   88.72   10.65
   0  -4  -9   94.94    7.50
   0  -4   9   87.52    6.11
   0   4  -9   89.87    6.55
   0   4   9   90.61    6.12
   1  -4   9   85.36    5.63
   1  -4   9   94.88    6.27
  -1  -4  -9   97.11    8.29
  -1  -4  -9   92.65    6.98
  -1   4  -9   91.31    6.81
   1   4   9   88.48    6.45
   1   4   9   91.17    6.12
  -2  -4  -9  461.72   25.21
  -2  -4  -9  480.64   24.60
   2  -4   9  451.23   23.75
   2   4   9  473.78   24.18
   2   4   9  488.55   24.14
  -3  -4  -9   15.47    3.59
  -3  -4  -9   11.62    3.18
   3   4   9   15.25    3.14
   3   4   9   14.53    2.46
  -4  -4  -9  137.96    9.24
   4  -4   9  140.68    7.46
  -4  -4  -9  131.37    8.41
   4   4   9  145.36    7.73
   4   4   9  137.79    7.73
   5  -4   9   76.68    4.17
  -5  -4  -9   71.52    5.05
   5   4   9   70.21    4.55
   6  -4   9   20.35    1.79
   7  -5  -9   63.97    5.04
  -6  -5   9   43.81    3.64
   6  -5  -9   37.95    5.81
   6   5  -9   44.28    3.42
   6   5  -9   47.95    3.57
  -5  -5   9    1.18    1.66
   5  -5  -9    2.62    1.80
   5  -5  -9    0.82    4.04
   5   5  -9    0.99    1.39
   5   5  -9    1.81    0.85
   4  -5  -9   24.03    5.15
  -4  -5   9   29.94    3.22
   4  -5  -9   31.68    3.58
   4   5  -9   28.80    2.24
   4   5  -9   25.96    2.88
   3  -5  -9    6.98    2.20
   3  -5  -9    7.99    4.47
  -3  -5   9   12.81    2.72
   3   5  -9    9.32    1.39
   3   5  -9   14.61    2.60
  -2  -5   9    9.71    2.03
   2  -5  -9    7.49    2.21
   2  -5  -9    6.35    4.70
  -2   5   9   10.36    2.68
   2   5  -9   10.07    2.06
   2   5  -9    5.18    1.54
   1  -5  -9   10.70    2.40
  -1  -5   9   12.42    2.18
  -1  -5   9   16.97    2.25
   1  -5  -9    7.44    2.49
  -1   5   9   16.63    3.00
  -1   5   9   16.32    3.13
   1   5  -9   11.95    2.26
   0  -5  -9   83.31    6.07
   0  -5   9   70.80    4.81
   0  -5   9   74.97    5.21
   0   5   9   84.07    5.42
   0   5   9   88.22    5.30
   0   5  -9   83.38    5.34
  -1  -5  -9  100.81    6.87
   1  -5   9  102.26    5.75
  -1   5  -9   99.99    6.26
   1   5   9  102.46    6.16
   1   5   9  102.69    6.04
   2  -5   9   34.16    2.65
  -2  -5  -9   41.61    4.00
   2   5   9   31.71    3.02
   2   5   9   30.87    2.85
  -3  -5  -9  104.40    6.25
   3  -5   9   99.80    5.33
   3   5   9   92.00    5.55
   4  -5   9   45.60    2.89
  -4  -5  -9   57.22    4.79
  -3  -6   9   41.83    2.52
   3   6  -9   39.00    2.66
  -2  -6   9   24.12    1.76
  -2   6   9   17.88    2.25
   2   6  -9   23.09    1.97
  -1  -6   9   12.60    1.39
  -1   6   9   15.21    2.06
  -1   6   9   11.56    1.33
   1   6  -9   11.81    1.59
   0  -6   9    2.29    0.73
   0   6   9    4.79    1.11
   1   6   9    2.86    1.12
  10   0 -10    1.47    2.23
  10   0 -10    1.76    1.32
  10   0 -10    3.93    2.30
   9   0 -10   62.03    5.10
   9   0 -10   70.64    6.51
   9   0 -10   64.86    4.71
   8   0 -10    6.48    2.60
   8   0 -10    9.18    3.80
   8   0 -10    8.05    2.17
   7   0 -10   18.76    3.29
   7   0 -10   17.45    3.21
  -7   0  10   10.48    3.19
   7   0 -10   13.06    4.51
   6   0 -10    4.36    2.04
   6   0 -10    4.47    3.06
  -6   0  10    4.24    2.06
   5   0 -10    1.19    2.43
   5   0 -10   -1.12    3.27
   5   0 -10    2.65    2.76
   5   0 -10    1.42    5.36
  -5   0  10    0.37    1.39
   4   0 -10   10.77    2.99
   4   0 -10   10.95    4.19
  -4   0  10   11.76    1.68
   3   0 -10  130.10    8.27
  -3   0  10  122.58    6.80
  -2   0  10  675.13   33.44
  -1   0  10  149.94    7.91
   0   0  10  438.36   23.10
   0   0  10  438.30   23.67
   0   0  10  480.20   22.56
   0   0  10  445.88   23.54
   1   0  10  119.77    8.22
   1   0  10  123.57    9.14
   1   0  10  131.26    7.14
   1   0  10  144.00    8.52
   2   0  10  325.94   18.01
   2   0  10  331.17   17.97
   2   0  10  323.23   17.35
   3   0  10  201.28   11.88
   3   0  10  218.74   11.64
   3   0  10  212.92   12.63
   4   0  10  122.65    8.82
   4   0  10  119.36    7.26
   5   0  10  262.89   13.52
   5   0  10  242.12   13.74
  -5   0 -10  262.96   14.49
   6   0  10   26.85    3.09
   6   0  10   31.79    3.24
   7   0  10   -7.95   16.75
   7   0  10   13.84    2.75
  10  -1 -10  231.67   10.95
  10  -1 -10  204.06   11.08
  10  -1 -10  183.16   11.67
  10   1 -10  233.84   10.87
  10   1 -10  185.90   11.79
   9  -1 -10   87.02    7.22
   9  -1 -10   81.75    6.13
   9  -1 -10  102.58    5.94
   9   1 -10   89.26    7.23
   9   1 -10  100.01    5.72
   9   1 -10   91.45    6.60
   8  -1 -10  156.28    9.28
   8  -1 -10  134.10   10.26
   8  -1 -10  142.82    8.79
   8   1 -10  155.76    8.61
   7  -1 -10   84.99    8.63
   7  -1 -10   93.56    6.38
   7  -1 -10   97.48    7.24
   7   1 -10   93.62    6.08
   7   1 -10   94.08    9.17
   7   1 -10   97.41    7.76
   7   1 -10   91.56    6.95
  -6  -1  10   62.01    4.87
   6  -1 -10   58.09    5.13
   6  -1 -10   44.56    7.43
   6  -1 -10   59.03    6.19
   6   1 -10   68.90    5.51
   6   1 -10   59.09    4.74
  -6   1  10   58.41    4.43
   6   1 -10   67.79    7.46
   5  -1 -10  259.37   14.67
   5  -1 -10  264.18   16.24
  -5  -1  10  253.10   14.79
  -5  -1  10  252.29   13.54
   5  -1 -10  252.16   13.97
   5   1 -10  245.55   13.72
   5   1 -10  248.73   13.69
   4  -1 -10   73.39    7.08
  -4  -1  10   87.15    5.39
   4  -1 -10   99.58    7.60
   4  -1 -10   87.33   10.43
   4   1 -10   93.91    6.08
  -4   1  10   85.17    5.02
  -3  -1  10  153.40   11.26
  -3  -1  10  163.02    8.72
  -3  -1  10  159.39    9.81
   3  -1 -10  167.87   10.87
  -3   1  10  172.38    8.50
   3   1 -10  149.92    9.41
  -2  -1  10   33.98    2.91
  -2  -1  10   38.79    5.35
   2  -1 -10   33.36    5.25
  -2  -1  10   40.26    4.15
  -2   1  10   32.83    2.53
   2   1 -10   44.91    4.97
  -1  -1  10  198.78   12.36
   1  -1 -10  192.78   13.51
  -1  -1  10  215.48   11.07
   1  -1 -10  211.45   12.48
  -1  -1  10  218.44   12.18
  -1   1  10  208.30   11.59
  -1   1  10  230.54   10.92
   0  -1  10  164.51    8.76
   0  -1  10  166.32   10.25
   0  -1 -10  160.20   10.10
   0  -1  10  151.29    9.90
   0  -1  10  179.62    9.93
   0   1  10  150.16   11.71
   0   1  10  146.26    9.21
   0   1  10  169.92    8.52
   1  -1  10   94.98    6.86
   1  -1  10   99.83    7.66
   1  -1  10  100.39    8.04
   1  -1  10  104.48    7.33
  -1  -1 -10   99.79    7.51
   1   1  10   92.68    7.03
   1   1  10  115.61    7.43
   1   1  10   93.06    8.60
   1   1  10  107.70    5.82
   1   1  10  100.83    6.69
  -2  -1 -10   96.62    7.31
   2  -1  10  108.57    7.94
   2  -1  10   98.79    7.72
   2  -1  10   98.99    7.83
   2  -1  10   93.04    6.36
   2   1  10  102.56    7.01
   2   1  10  108.99    8.43
   2   1  10   94.80    6.73
   3  -1  10   82.60    7.42
  -3  -1 -10   90.62    7.11
   3  -1  10   82.64    8.50
   3  -1  10   84.36    5.63
   3   1  10   87.13    6.16
   3   1  10   97.12    6.30
   3   1  10   86.07    7.82
  -4  -1 -10   73.27    6.62
   4  -1  10   74.38    5.01
   4  -1  10   88.61    7.28
   4   1  10   68.43    7.06
   4   1  10   74.67    5.61
   5  -1  10    1.83    1.67
   7  -1  10   16.59   20.85
   7   1  10    6.25    3.29
   7   1  10    4.52   19.60
  10  -2 -10   43.66    4.89
  10  -2 -10   57.49    3.50
  10  -2 -10   44.56    3.72
  10   2 -10   53.27    3.22
   9  -2 -10   26.74    3.12
   9  -2 -10   26.33    3.30
   9  -2 -10   19.01    4.52
   9   2 -10   24.60    2.54
   8  -2 -10   14.81    3.88
   8  -2 -10   14.47    2.74
   8  -2 -10   17.79    3.43
   8   2 -10   16.64    2.61
   7  -2 -10   12.89    3.15
   7  -2 -10   22.00    5.13
   7  -2 -10   17.11    2.92
   7   2 -10   16.04    3.20
   7   2 -10   21.09    3.15
   6  -2 -10   75.79    9.03
  -6  -2  10   80.18    6.93
   6  -2 -10   89.14    6.35
   6  -2 -10   87.91    7.17
  -6   2  10   83.50    6.55
   6   2 -10   95.56    6.16
   5  -2 -10  659.30   36.01
   5  -2 -10  696.05   34.34
   5  -2 -10  685.01   34.81
  -5  -2  10  606.38   37.04
  -5   2  10  657.53   33.42
   5   2 -10  690.42   33.96
   5   2 -10  710.37   33.51
   4  -2 -10  477.18   27.95
   4  -2 -10  515.88   26.76
   4  -2 -10  486.91   26.20
  -4  -2  10  515.86   25.70
  -4  -2  10  502.73   26.29
  -4  -2  10  504.31   26.78
  -4   2  10  512.73   25.13
   4   2 -10  493.50   25.17
   4   2 -10  516.59   25.72
   3  -2 -10   26.02    4.93
   3  -2 -10   33.86    6.48
   3  -2 -10   23.22    6.73
  -3  -2  10   23.09    3.55
  -3  -2  10   26.90    4.30
   3   2 -10   24.95    2.96
   3   2 -10   24.36    3.99
  -3   2  10   23.35    2.29
  -3   2  10   21.79    3.17
  -2  -2  10  200.23   11.80
  -2  -2  10  248.49   12.59
   2  -2 -10  211.87   13.54
  -2  -2  10  206.85   12.86
   2  -2 -10  232.17   13.20
   2  -2 -10  209.81   16.25
  -2   2  10  199.70   11.29
   2   2 -10  246.00   12.21
  -1  -2  10   78.96    6.45
   1  -2 -10   49.84   12.24
   1  -2 -10   68.49    7.55
  -1  -2  10   76.21    6.09
  -1  -2  10   76.47    5.59
   1  -2 -10   74.34    6.91
   1   2 -10   71.81    6.29
  -1   2  10   58.96   12.14
  -1   2  10   76.14    5.55
  -1   2  10   80.87    4.54
   0  -2  10  422.84   21.65
   0  -2  10  442.07   22.60
   0  -2 -10  355.33   24.53
   0  -2  10  418.17   21.17
   0  -2 -10  427.82   22.09
   0   2  10  406.54   21.46
   0   2 -10  407.57   21.87
   0   2  10  431.89   20.94
   0   2  10  438.19   21.65
   0   2  10  399.42   23.48
   1  -2  10  206.12   12.02
  -1  -2 -10  210.56   12.38
   1  -2  10  235.17   13.11
   1  -2  10  214.13   11.40
   1   2  10  209.85   11.81
   1   2  10  199.94   14.21
   1   2  10  202.93   11.67
   2  -2  10  135.30    7.74
   2  -2  10  130.73    8.85
   2  -2  10  141.63   10.14
  -2  -2 -10  139.26    8.91
   2   2  10  130.12   10.43
   2   2  10  128.60    8.03
   2   2  10  131.73    8.15
   2   2  10  137.71    8.21
   3  -2  10   19.17    3.73
  -3  -2 -10   16.72    3.62
   3  -2  10   16.34    2.89
   3  -2  10   25.31    5.75
   3   2  10   19.43    3.34
   3   2  10   16.50    4.18
  -4  -2 -10   73.87    6.84
   4  -2  10   25.04   51.51
   4  -2  10   74.09    4.85
   4   2  10   75.66    5.17
  -5  -2 -10    4.80    3.40
   5  -2  10    4.04    1.52
   5  -2  10  -30.63   38.98
   6  -2  10   -0.06    1.21
   6  -2  10    1.36   26.47
   6   2  10    0.87    1.14
   7   2  10   -7.87   16.22
   9  -3 -10    7.68    2.00
   8  -3 -10    8.50    2.43
   8  -3 -10    8.36    1.97
   8  -3 -10    5.57    3.53
   8   3 -10   11.73    2.13
   7  -3 -10  109.16    7.16
   7  -3 -10   92.70    9.11
   7  -3 -10  109.47    7.55
   7   3 -10  112.60    6.72
   7   3 -10  120.92    6.60
   6  -3 -10  190.51   14.17
   6  -3 -10  202.38   11.93
  -6  -3  10  207.16   12.55
   6  -3 -10  200.34   12.35
   6   3 -10  218.61   10.71
   6   3 -10  200.79   11.17
   5  -3 -10   55.17    6.65
   5  -3 -10   60.50    9.69
   5  -3 -10   58.23    5.80
   5  -3 -10   49.99    8.70
  -5  -3  10   54.02    6.08
   5   3 -10   55.85    4.81
   5   3 -10   57.56    3.81
   4  -3 -10  160.02   11.18
  -4  -3  10  142.78   10.48
  -4  -3  10  162.35    9.90
   4  -3 -10  157.20   10.26
   4  -3 -10  171.58   13.69
   4   3 -10  167.10    9.36
   4   3 -10  168.92    8.64
  -4   3  10  153.74    8.78
   4   3 -10  153.46   10.78
   3  -3 -10  843.00   45.79
   3  -3 -10  901.48   45.16
  -3  -3  10  908.86   44.91
   3  -3 -10  929.02   45.38
  -3  -3  10  776.84   45.08
  -3  -3  10  889.81   46.13
   3  -3 -10  895.87   47.19
  -3   3  10  960.44   44.32
  -3   3  10  906.53   44.91
   3   3 -10  929.00   44.76
   3   3 -10  892.76   44.20
   2  -3 -10   70.00    6.63
   2  -3 -10   63.82    7.59
  -2  -3  10   79.57    5.77
   2  -3 -10   73.88   10.62
   2  -3 -10   62.04    7.54
  -2  -3  10   71.21    7.63
  -2   3  10   74.73    4.74
   2   3 -10   80.33    5.77
  -2   3  10   70.58    6.18
   2   3 -10   58.62    5.65
  -1  -3  10  436.35   23.10
  -1  -3  10  464.40   24.64
   1  -3 -10  456.61   23.75
   1  -3 -10  435.81   26.07
  -1   3  10  444.09   23.11
  -1   3  10  441.34   22.58
  -1   3  10  457.08   23.23
   1   3 -10  441.97   23.09
   0  -3  10  148.56    8.66
   0  -3  10  150.97    9.22
   0  -3 -10  166.68   10.16
   0  -3 -10  152.51   13.55
   0  -3  10  155.51   11.04
   0   3 -10  159.40    9.70
   0   3  10  152.80    8.70
   0   3  10  153.33    9.20
   0   3  10  149.91    9.26
   0   3  10  161.65   14.77
  -1  -3 -10  153.27   11.13
   1  -3  10  144.42    8.72
   1  -3  10  144.88    8.09
  -1  -3 -10  143.15    9.51
   1  -3  10  138.72   10.50
  -1   3 -10  145.30   10.45
   1   3  10  133.37    8.43
   1   3  10  124.26   12.16
   1   3  10  147.78    8.52
   1   3  10  144.83    8.58
   2  -3  10  250.22   14.26
  -2  -3 -10  266.15   14.90
  -2  -3 -10  258.82   16.31
   2  -3  10  263.06   13.73
   2   3  10  254.96   14.10
   2   3  10  278.58   14.39
  -3  -3 -10  198.31   13.83
   3  -3  10  209.08   10.81
  -3  -3 -10  200.39   11.97
   3   3  10  198.94   11.45
   3   3  10  200.12   11.11
  -4  -3 -10   45.14    5.14
   4  -3  10   44.52    3.49
  -4  -3 -10   35.41    6.19
   4   3  10   45.39    3.71
   5  -3  10   75.84    4.47
   6  -3  10    5.26    1.48
  -6  -3 -10    2.59    2.01
   6   3  10    6.82    1.76
   8  -4 -10    4.55    3.57
   8  -4 -10    5.49    1.35
   8   4 -10    6.91    1.62
   7  -4 -10   33.20    3.37
  -7  -4  10   36.14    4.99
   7  -4 -10   36.09    5.73
   7  -4 -10   25.19    4.14
   7   4 -10   31.05    2.84
   7   4 -10   23.85    3.23
   6  -4 -10    9.04    2.30
   6  -4 -10    6.35    4.48
   6  -4 -10   16.35    3.19
  -6  -4  10    8.36    2.62
   6   4 -10    7.97    1.27
   6   4 -10   10.84    1.87
  -6   4  10    4.30    2.73
   5  -4 -10   64.43    5.48
  -5  -4  10   66.65    5.36
   5  -4 -10   68.47    6.53
   5  -4 -10   63.10   11.83
   5   4 -10   65.96    3.99
   5   4 -10   65.11    4.81
   4  -4 -10   10.27    5.96
  -4  -4  10    5.09    2.33
   4  -4 -10   12.26    4.72
   4  -4 -10    5.89    2.83
   4   4 -10    6.82    2.17
   4   4 -10    5.35    1.41
  -4   4  10    5.29    3.88
   3  -4 -10   49.85    9.69
   3  -4 -10   45.01    5.60
   3  -4 -10   49.83    5.65
   3   4 -10   58.50    4.58
   3   4 -10   51.01    3.57
  -3   4  10   51.98    4.68
   2  -4 -10  128.90    9.30
  -2  -4  10  140.32    8.40
   2  -4 -10  154.34    9.32
   2  -4 -10  126.90   12.55
  -2   4  10  137.31    8.38
   2   4 -10  138.98    8.33
   2   4 -10  139.02    7.63
   1  -4 -10  107.29    8.57
   1  -4 -10  113.15   11.83
  -1  -4  10  111.70    7.24
   1  -4 -10  126.28    8.35
   1  -4 -10  119.34    7.88
   1   4 -10  109.27    7.30
  -1   4  10  112.21    7.22
   0  -4 -10   11.96    3.87
   0  -4  10   17.47    2.37
   0  -4  10   15.05    2.64
   0   4 -10   25.95    4.13
   0   4  10   18.02    3.25
  -1  -4 -10  240.92   13.50
  -1  -4 -10  253.37   14.29
   1  -4  10  234.92   12.45
   1   4  10  229.18   12.97
   1   4  10  229.78   12.80
  -2  -4 -10   49.04    5.60
  -2  -4 -10   54.32    6.83
   2   4  10   46.84    5.36
   2   4  10   60.89    4.48
  -3  -4 -10  129.23    8.61
   3  -4  10  127.99    6.95
   3   4  10  125.82    7.35
   3   4  10  124.96    7.20
   4  -4  10   25.52    2.09
   4   4  10   21.03    3.04
   5  -4  10   62.36    3.38
   5   4  10   53.77    3.87
   6  -5 -10    4.52    2.44
   6  -5 -10    9.48    1.86
  -6  -5  10    5.50    1.75
   5  -5 -10    2.91    3.85
  -5  -5  10   10.25    1.85
   5  -5 -10    7.41    1.66
   5   5 -10    9.04    1.49
   4  -5 -10    8.70    4.04
   4  -5 -10    8.41    1.92
  -4  -5  10   12.51    1.99
   4   5 -10   12.96    2.23
   4   5 -10   14.11    1.66
   3  -5 -10   26.73    3.70
  -3  -5  10   33.18    3.17
   3   5 -10   35.43    3.02
   3   5 -10   28.63    2.51
  -2  -5  10   58.38    4.36
   2  -5 -10   66.77    4.89
  -2  -5  10   60.21    3.90
   2  -5 -10   58.05    4.81
   2   5 -10   58.88    4.18
  -2   5  10   65.04    4.52
   1  -5 -10   35.66    4.10
  -1  -5  10   43.07    3.07
   1  -5 -10   36.46    4.22
  -1  -5  10   43.91    3.48
  -1   5  10   49.17    3.77
  -1   5  10   39.72    3.53
   1   5 -10   40.49    3.56
   0  -5 -10    0.98    2.07
   0  -5  10    2.01    1.23
   0  -5  10    3.88    2.01
   0   5 -10    2.57    1.81
   0   5  10   -0.31    1.62
   0   5  10    0.24    1.41
   1  -5  10   38.31    2.64
  -1  -5 -10   30.94    3.85
   1   5  10   37.12    2.87
   1   5  10   32.69    2.92
  -1   5 -10   32.42    3.94
   2  -5  10   16.45    1.73
   2   5  10   13.23    1.85
   2   5  10   19.02    2.13
   3  -5  10    0.14    0.92
  -3  -5 -10    2.14    1.80
   3   5  10    3.74    1.24
  10   0 -11  330.11   16.89
  10   0 -11  330.05   17.51
   9   0 -11   41.45    5.70
   9   0 -11   34.97    4.11
   9   0 -11   42.56    3.48
   8   0 -11  105.55    8.41
   7   0 -11  335.57   17.57
   7   0 -11  316.54   19.12
   7   0 -11  348.04   18.19
   6   0 -11  133.53    8.19
   6   0 -11  135.76   11.48
   6   0 -11  137.88    9.33
  -6   0  11  127.72    7.94
  -5   0  11  302.84   15.83
   5   0 -11  320.69   17.37
   5   0 -11  294.39   16.39
  -4   0  11    5.70    1.58
   4   0 -11    3.02    2.48
   4   0 -11    7.81    4.03
  -3   0  11  104.11    5.70
   3   0 -11   83.23    9.66
  -3   0  11   89.51   11.73
   3   0 -11  104.74    6.91
   2   0 -11   53.70    9.02
   2   0 -11   67.59    6.07
  -2   0  11   67.00    4.08
   1   0 -11   19.62    4.70
  -1   0  11   23.90    2.44
  -1   0  11   23.84    3.71
  -1   0  11   21.82    4.96
   0   0  11   15.61    2.09
   0   0  11    8.99    2.61
   0   0  11   14.71    4.30
   0   0  11   11.49    2.83
   1   0  11   65.16    6.73
   1   0  11   50.53    5.77
   1   0  11   45.41    5.05
   2   0  11  640.25   32.21
   2   0  11  650.50   32.60
   2   0  11  597.46   32.85
   3   0  11  360.83   19.27
   3   0  11  357.79   18.66
   3   0  11  341.11   18.25
   4   0  11  689.47   33.14
  -4   0 -11  673.60   33.81
   4   0  11  622.63   33.67
   5   0  11  165.85    9.28
  -5   0 -11  166.94    9.99
   5   0  11  162.93    9.17
   7   0  11  -11.90   14.38
  10  -1 -11   79.59    4.71
  10  -1 -11   72.79    4.92
  10  -1 -11   74.47    6.10
  10   1 -11   84.05    4.62
   9  -1 -11   30.04    3.64
   9  -1 -11   31.81    5.13
   9  -1 -11   29.11    3.10
   9   1 -11   28.10    6.54
   9   1 -11   32.46    3.03
   8   1 -11   18.47    3.82
   8   1 -11   19.84    5.36
   7  -1 -11  146.11    9.08
   7  -1 -11  134.00   10.76
   7  -1 -11  140.91    8.44
   7   1 -11  138.13    8.18
   7   1 -11  130.84    9.64
   6  -1 -11   52.48    4.84
   6  -1 -11   57.30    6.04
   6  -1 -11   47.17    8.28
  -6  -1  11   54.99    5.04
  -6   1  11   47.76    4.48
   6   1 -11   52.36    4.66
   6   1 -11   49.19    4.85
  -5  -1  11  190.28   12.28
  -5  -1  11  179.89   10.38
   5  -1 -11  184.29   11.68
   5   1 -11  185.19   10.59
  -5   1  11  187.75    9.98
   5   1 -11  187.17   10.90
   4  -1 -11  140.23   10.04
  -4  -1  11  128.42   11.75
   4  -1 -11  139.46   13.59
  -4  -1  11  169.39    9.94
  -4   1  11  137.70    8.52
   4   1 -11  148.04    8.70
   3  -1 -11   -7.54    8.29
  -3  -1  11    2.95    2.72
   3  -1 -11    4.34    3.86
  -3  -1  11    3.87    1.78
   3   1 -11    3.01    2.47
  -3   1  11    2.58    1.33
  -2  -1  11   74.89    4.87
  -2  -1  11   71.10    7.18
   2  -1 -11   66.80    7.09
  -2  -1  11   83.28    6.31
   2  -1 -11   69.84    8.03
  -2   1  11   89.47   12.82
  -2   1  11   70.65    5.35
  -2   1  11   75.52    4.49
   2   1 -11   67.88    5.80
   1  -1 -11   43.73    5.45
  -1  -1  11   45.66    5.04
   1  -1 -11   53.75    7.11
  -1  -1  11   44.45    5.92
  -1  -1  11   43.57    3.82
  -1  -1  11   43.14    5.08
  -1   1  11   50.45    8.48
  -1   1  11   47.04    3.27
  -1   1  11   42.03    4.14
   1   1 -11   48.34    5.57
   0  -1  11   95.26    7.12
   0  -1  11   90.67    7.17
   0  -1  11   86.66    7.13
   0  -1 -11   89.99    6.87
   0   1  11   92.61    5.38
   0   1  11   92.30    8.80
   0   1  11   81.69    6.11
   0   1  11   93.71    6.59
   1  -1  11  158.42    9.71
   1  -1  11  153.42    9.67
   1  -1  11  136.20    8.92
  -1  -1 -11  157.62    9.60
   1  -1  11  178.12   11.44
   1   1  11  144.20    9.18
   1   1  11  143.41    8.50
   1   1  11  146.54    8.97
   1   1  11  153.08   10.27
   1   1  11  153.29   10.43
   2  -1  11  206.44   11.87
   2  -1  11  188.77   11.06
   2  -1  11  206.93   13.26
   2  -1  11  205.71   12.07
  -2  -1 -11  208.06   12.07
   2   1  11  215.38   12.68
   2   1  11  205.04   11.55
   2   1  11  197.28   11.60
   3  -1  11  147.49    8.25
   3  -1  11  145.66    9.55
  -3  -1 -11  148.54    9.36
   3   1  11  148.13    8.75
   3   1  11  140.46   10.01
   3   1  11  145.29    8.70
   4  -1  11   26.79    3.25
   4  -1  11   31.93    5.46
  -4  -1 -11   18.96    3.62
   4   1  11   18.44    3.60
   4   1  11   21.19    3.78
   7   1  11    7.17   13.22
   7   1  11   15.16    1.99
  10  -2 -11   13.07    2.46
  10  -2 -11    8.03    1.49
  10  -2 -11    4.72    3.05
   9  -2 -11   42.34    5.61
   9  -2 -11   51.75    3.74
   9  -2 -11   47.79    4.11
   9   2 -11   53.21    3.52
   8  -2 -11   33.62    4.16
   8  -2 -11   41.53    3.89
   8  -2 -11   25.39    5.76
   8   2 -11   39.72    3.37
   7  -2 -11    1.35    2.59
   7  -2 -11    5.41    4.06
   7  -2 -11   -0.17    2.11
   7   2 -11    0.82    1.84
   7   2 -11    2.75    2.38
   6  -2 -11  138.79    8.69
   6  -2 -11  139.71   11.57
   6  -2 -11  140.64    9.47
   6   2 -11  137.77    8.21
   6   2 -11  135.76    8.28
   5  -2 -11  232.19   15.26
   5  -2 -11  215.07   12.55
  -5  -2  11  223.16   13.73
   5  -2 -11  204.12   13.12
  -5  -2  11  211.37   12.42
  -5   2  11  199.43   11.54
   5   2 -11  233.75   12.08
   5   2 -11  229.70   12.19
   4  -2 -11  145.66   10.51
   4  -2 -11  137.03   12.61
  -4  -2  11  151.65    9.13
  -4  -2  11  146.19   10.24
   4  -2 -11  152.50   10.07
  -4  -2  11  147.98   10.88
   4   2 -11  150.53    8.91
   4   2 -11  164.12   14.15
  -4   2  11  149.80    8.15
  -3  -2  11 1256.68   61.97
   3  -2 -11 1236.63   61.32
   3  -2 -11 1129.50   62.81
  -3  -2  11 1315.28   62.31
  -3  -2  11 1155.51   60.78
  -3   2  11 1206.27   60.80
  -3   2  11 1279.70   60.41
  -2  -2  11   85.20    7.55
   2  -2 -11   84.23   12.63
   2  -2 -11   99.57    7.61
  -2  -2  11   89.35    6.72
  -2  -2  11   78.13    6.39
   2  -2 -11   78.69    8.30
  -2   2  11   83.49    5.93
   2   2 -11   86.71    6.31
  -2   2  11   90.38    5.18
  -1  -2  11  258.70   14.76
   1  -2 -11  268.98   15.11
  -1  -2  11  287.02   15.78
  -1  -2  11  263.74   14.21
   1  -2 -11  248.20   15.80
  -1   2  11  281.16   13.89
  -1   2  11  279.97   17.83
  -1   2  11  267.85   14.42
   1   2 -11  258.80   14.54
   0  -2  11  258.29   13.71
   0  -2  11  292.73   15.70
   0  -2 -11  279.02   15.77
   0  -2  11  239.10   15.34
   0  -2 -11  243.84   18.77
   0   2 -11  246.67   14.59
   0   2  11  259.68   14.51
   0   2  11  257.47   13.51
   1  -2  11  100.65    7.40
  -1  -2 -11  105.87    7.54
   1  -2  11   99.94    6.29
   1  -2  11   95.17    8.70
   1   2  11   98.03    6.51
   1   2  11  107.60    9.57
   1   2  11   99.53    6.68
   1   2  11   98.86    6.64
   2  -2  11   30.47    5.76
   2  -2  11   24.61    3.79
  -2  -2 -11   20.35    3.70
   2  -2  11   22.09    3.21
   2   2  11   25.32    3.70
   2   2  11   24.25    3.54
   3  -2  11  141.44    7.86
   3  -2  11  133.34    9.05
  -3  -2 -11  139.56    9.17
   3   2  11  139.32    9.80
   3   2  11  145.09    8.27
  -5  -2 -11   13.48    3.31
   5  -2  11   16.21    2.20
   6  -2  11   42.38    2.91
   6   2  11   41.19    3.01
   9  -3 -11    1.55    1.85
   9  -3 -11    5.70    3.12
   9  -3 -11    3.63    1.18
   9   3 -11    6.02    1.82
   8  -3 -11   35.09    5.29
   8  -3 -11   32.19    3.26
   8  -3 -11   39.14    3.95
   8   3 -11   34.07    2.90
   7  -3 -11   44.47    6.67
   7  -3 -11   44.75    4.28
   7   3 -11   48.40    3.74
   7   3 -11   47.00    3.96
   6  -3 -11   18.83    4.16
  -6  -3  11   13.04    3.84
   6  -3 -11   10.87    4.92
   6   3 -11   10.05    3.21
   6   3 -11   13.34    2.35
   5  -3 -11  330.01   16.56
   5  -3 -11  268.43   16.21
   5  -3 -11  281.99   18.56
   5  -3 -11  293.96   16.96
  -5  -3  11  302.48   16.53
   5   3 -11  313.31   15.31
   5   3 -11  304.74   15.84
   4  -3 -11   56.07    6.83
   4  -3 -11   48.92    6.01
   4  -3 -11   55.10   10.10
  -4  -3  11   53.07    5.77
   4   3 -11   49.14    4.58
  -4   3  11   50.51    5.03
   4   3 -11   50.31    3.61
   3  -3 -11  110.39    8.44
   3  -3 -11   96.11    8.89
  -3  -3  11  102.78    7.48
   3  -3 -11  103.33    7.79
  -3  -3  11  100.52   10.80
   3  -3 -11  114.57   11.63
  -3   3  11  103.12    7.04
   3   3 -11  105.35    6.89
  -3   3  11  106.81    6.48
   3   3 -11  105.69    6.15
   2  -3 -11  233.78   15.13
  -2  -3  11  248.87   13.92
   2  -3 -11  257.86   14.40
  -2  -3  11  253.66   16.18
   2  -3 -11  249.37   17.27
  -2   3  11  242.66   13.71
  -2   3  11  258.39   13.34
   2   3 -11  273.56   13.77
  -1  -3  11  244.71   13.77
   1  -3 -11  252.29   14.34
   1  -3 -11  227.22   17.27
  -1  -3  11  250.82   15.97
  -1   3  11  256.73   13.24
  -1   3  11  258.95   13.73
   1   3 -11  262.75   13.69
  -1   3  11  247.64   13.60
   0  -3 -11  193.36   11.27
   0  -3  11  182.50   10.44
   0  -3  11  182.14    9.87
   0  -3  11  181.53   12.97
   0   3 -11  173.30   10.62
   0   3  11  163.53   10.09
   0   3  11  189.63   14.34
   0   3  11  185.58   10.38
   0   3  11  179.14   10.35
   1  -3  11  175.75   10.58
   1  -3  11  178.56    9.96
  -1  -3 -11  182.13   12.77
  -1  -3 -11  175.78   11.11
   1   3  11  193.39   10.46
   1   3  11  189.31   10.76
   1   3  11  176.36   10.41
   1   3  11  202.35   13.33
   2  -3  11    8.10    3.03
  -2  -3 -11   10.75    3.19
  -2  -3 -11   12.99    4.71
   2   3  11    8.23    2.41
   2   3  11   10.17    2.74
  -3  -3 -11   47.03    7.64
   4  -3  11   -1.07    1.13
  -4  -3 -11   -0.78    2.40
   4   3  11   -1.43    1.24
  -5  -3 -11   42.34    4.28
   5  -3  11   37.69    2.67
   5   3  11   38.03    2.93
   6  -3  11   48.15    2.85
   6   3  11   47.65    2.99
   8  -4 -11   63.40    3.64
   8  -4 -11   43.99    5.25
  -7  -4  11  100.92    7.25
   7  -4 -11  119.60    6.31
   7  -4 -11  111.30    8.00
   7  -4 -11   91.89    6.69
   7   4 -11  114.05    6.49
   7   4 -11   96.68    6.03
  -6  -4  11  184.74   10.01
   6  -4 -11  188.25   10.11
   6  -4 -11  181.31   11.88
   6   4 -11  171.47    9.48
  -6   4  11  169.11    9.62
   5  -4 -11    1.09    2.78
   5  -4 -11    1.29    2.19
   5  -4 -11    2.60    4.54
  -5  -4  11    2.17    2.19
  -5   4  11   -1.30    2.04
   5   4 -11    1.16    1.69
   4  -4 -11   20.53    3.77
   4  -4 -11   14.68    3.06
   4  -4 -11   23.89    4.12
  -4   4  11   21.75    3.36
   4   4 -11   22.48    2.17
   3  -4 -11   29.35    6.14
   3  -4 -11   35.69    6.65
  -3  -4  11   30.16    4.07
   3   4 -11   30.01    3.51
   3   4 -11   23.99    2.78
   2  -4 -11   86.84    9.86
  -2   4  11   66.02    5.25
   1  -4 -11   76.23    9.40
  -1  -4  11   68.28    5.07
   1  -4 -11   62.73    5.51
   1  -4 -11   62.82    6.55
  -1  -4  11   60.34    4.38
  -1   4  11   58.83    4.78
   1   4 -11   64.61    5.02
   0  -4 -11   95.94    8.87
   0  -4 -11  118.65    7.96
   0   4 -11  114.45    8.20
   0   4  11  120.59    8.19
   1  -4  11   30.02    2.78
  -1  -4 -11   33.72    5.43
   1  -4  11   36.99    3.94
  -1  -4 -11   22.61    4.06
   1   4  11   31.07    3.64
   1   4  11   25.61    3.16
  -2  -4 -11    3.52    2.05
  -2  -4 -11    2.21    2.80
   2  -4  11    4.72    1.30
   2   4  11    3.76    1.60
   2   4  11    5.67    1.81
  -3  -4 -11   49.78    5.50
   3  -4  11   58.96    3.45
   3   4  11   54.30    3.63
   3   4  11   49.98    4.38
   4  -4  11   52.15    3.11
  -4  -4 -11   47.76    5.78
   4   4  11   48.27    3.49
   6  -5 -11   21.20    3.52
  -5  -5  11    3.46    1.52
   5  -5 -11    2.99    3.25
   5  -5 -11    0.04    1.51
   5   5 -11    3.77    1.23
   4  -5 -11  106.21    6.45
  -4  -5  11  110.10    6.09
   4  -5 -11   99.46    7.95
   4   5 -11  107.31    5.92
   3  -5 -11    1.75    3.31
  -3  -5  11    8.05    1.64
  -3  -5  11    7.75    1.36
  -3   5  11    9.36    2.42
   3   5 -11    6.64    1.47
   2  -5 -11   17.46    3.29
  -2  -5  11   17.88    2.55
   2  -5 -11   22.34    3.95
  -2  -5  11   22.34    2.13
  -2   5  11   24.67    2.72
   2   5 -11   18.64    2.44
  -2   5  11   23.10    2.83
  -1  -5  11   14.53    1.88
   1  -5 -11   11.87    2.43
  -1  -5  11   18.61    2.81
  -1   5  11   17.79    2.49
  -1   5  11   14.22    2.28
   1   5 -11   14.86    2.40
   0  -5 -11   20.10    3.22
   0  -5  11   23.84    2.02
   0   5  11   21.13    2.36
   0   5  11   20.97    2.51
   0   5 -11   22.75    3.33
   1  -5  11  101.48    5.21
  -1  -5 -11   86.88    5.96
   1   5  11   97.00    5.50
  -2  -5 -11   54.05    4.06
   2  -5  11   52.14    2.96
   2   5  11   46.78    3.30
  10   0 -12  183.21    9.52
   9   0 -12   22.00    4.46
   9   0 -12   28.08    2.83
   9   0 -12   20.61    2.94
   8   0 -12   23.89    4.30
   8   0 -12   29.16    6.95
   7   0 -12    9.10    5.22
   7   0 -12   -0.21    2.82
   7   0 -12    0.83    2.07
   6   0 -12   44.08    6.34
   6   0 -12   57.38    4.99
   6   0 -12   53.39   11.46
  -6   0  12   59.88    5.25
  -5   0  12   27.01    3.60
   5   0 -12   29.88    4.55
  -4   0  12   21.59    2.71
   4   0 -12   20.81    4.59
   3   0 -12   -0.88    4.32
   3   0 -12    2.30    2.90
  -3   0  12    1.28    2.38
  -3   0  12    6.78    5.94
  -2   0  12  134.32   10.03
   2   0 -12  118.42    8.19
  -2   0  12  113.04    7.25
   2   0 -12   96.35   10.39
  -2   0  12  120.85    6.77
  -1   0  12    7.78    4.41
  -1   0  12    5.19    1.88
   1   0 -12    5.59    4.22
  -1   0  12    4.20    2.32
  -1   0  12    7.88    3.62
   0   0  12    0.06    3.75
   0   0  12   -0.80    2.20
   0   0  12    0.58    3.09
   0   0  12    2.77    2.36
   1   0  12   60.98    5.47
   1   0  12   62.92    6.53
   1   0  12   56.48    7.31
   2   0  12   59.35    6.45
   2   0  12   57.13    5.14
   3   0  12   24.61    5.32
   4   0  12   67.07    6.21
  -4   0 -12   57.76    7.60
  -5   0 -12    9.66    2.81
   5   0  12   15.23    2.54
   5   0  12    9.25    1.97
  10  -1 -12   13.58    2.01
  10  -1 -12   18.41    2.22
   9  -1 -12   28.84    5.29
   9  -1 -12   37.18    3.12
   9  -1 -12   28.71    3.49
   9   1 -12   32.86    2.95
   8  -1 -12  119.77    7.39
   8  -1 -12  116.47    9.24
   8  -1 -12  125.03    7.86
   8   1 -12  130.59    7.27
   7  -1 -12  142.28    8.46
   7  -1 -12  137.65    9.10
   7  -1 -12  131.45   10.88
   7   1 -12  147.07    8.29
   6  -1 -12  105.71    7.96
   6  -1 -12  101.33   10.27
   6  -1 -12  103.07    7.15
   6   1 -12  113.26    7.12
   6   1 -12  109.80    6.97
  -5  -1  12   13.47    2.95
   5  -1 -12   11.79    3.56
  -5  -1  12    8.21    4.83
   5  -1 -12   13.64    6.39
   5  -1 -12   13.99    3.39
  -5   1  12   12.19    2.27
   5   1 -12   13.84    2.77
  -4  -1  12   31.16    3.99
   4  -1 -12   37.46    6.07
   4  -1 -12   30.94   11.66
  -4  -1  12   39.14    5.91
   4   1 -12   30.47    4.17
  -4   1  12   32.92    3.17
   3  -1 -12   43.09    6.75
  -3  -1  12   38.49    5.64
   3  -1 -12   41.88    7.38
  -3  -1  12   37.92    4.11
   3   1 -12   38.82    4.52
  -3   1  12   40.21    3.23
  -3   1  12   36.54    4.65
   2  -1 -12  130.26    8.46
  -2  -1  12  122.36    7.40
  -2  -1  12  100.16    7.43
  -2  -1  12  120.15    8.60
   2  -1 -12  103.25    9.44
  -2  -1  12  128.18    8.85
  -2   1  12  114.87    7.16
  -2   1  12  111.14   11.42
   2   1 -12  111.13    7.56
  -2   1  12  115.52    6.65
  -1  -1  12   98.33    7.68
  -1  -1  12  109.03    8.05
  -1  -1  12   94.11    6.52
   1  -1 -12   90.35    7.32
  -1  -1  12   98.21    6.92
   1   1 -12  112.41    7.54
  -1   1  12   93.35    5.99
  -1   1  12  103.04    9.63
  -1   1  12   98.15    6.52
   0  -1  12  176.50   11.03
   0  -1  12  152.44   10.27
   0  -1 -12  152.53   11.18
   0  -1  12  168.06   11.78
   0   1  12  164.35    9.59
   0   1  12  161.04    9.11
   1  -1  12   54.75    6.04
  -1  -1 -12   49.95    5.55
   1  -1  12   56.02    5.32
   1  -1  12   53.43    7.14
   1   1  12   49.51    5.02
   1   1  12   44.88    4.69
   1   1  12   58.16    6.75
   1   1  12   45.15    9.14
   2  -1  12  666.30   36.04
  -2  -1 -12  717.11   34.81
   2  -1  12  700.42   34.39
   2  -1  12  664.33   34.62
   2  -1  12  654.26   33.86
   2   1  12  671.37   34.28
   2   1  12  666.05   35.06
   2   1  12  692.81   34.40
   3  -1  12  278.34   15.54
  -3  -1 -12  299.44   15.68
   3  -1  12  276.67   14.68
   3   1  12  284.84   14.95
   3   1  12  273.68   15.97
   4  -1  12   56.11    3.96
   4  -1  12   40.98    5.46
  -5  -1 -12  130.26    8.52
   5  -1  12  150.42    7.72
   5   1  12  141.20    7.84
  -5   1 -12  138.92    8.38
   6  -1  12  154.62    7.82
   6   1  12  140.19    7.80
   9  -2 -12   17.80    4.15
   9  -2 -12   19.39    2.59
   9   2 -12   20.76    2.44
   8  -2 -12   15.28    4.00
   8  -2 -12    6.29    1.85
   8  -2 -12    8.94    2.24
  -8   2  12    8.66    1.88
   8   2 -12   10.64    1.79
   7  -2 -12  168.84    9.79
   7  -2 -12  154.31   12.39
   7   2 -12  166.79    9.32
   7   2 -12  177.06    9.49
   6  -2 -12    7.89    2.68
   6  -2 -12    9.91    5.07
   6  -2 -12    4.77    2.86
   6   2 -12   10.36    2.48
   6   2 -12   12.42    2.52
  -5  -2  12   49.17    7.68
   5  -2 -12   40.98    5.92
   5  -2 -12   38.14    5.43
   5  -2 -12   46.00    8.70
   5   2 -12   46.54    4.35
  -4  -2  12  253.17   15.91
  -4  -2  12  249.78   14.24
   4  -2 -12  241.26   16.78
   4  -2 -12  249.58   14.62
  -4  -2  12  216.71   13.89
   4  -2 -12  243.09   14.90
  -4   2  12  246.97   13.28
  -4   2  12  257.86   13.01
   4   2 -12  266.76   13.45
  -3  -2  12  241.08   13.50
   3  -2 -12  228.98   13.93
  -3  -2  12  234.42   13.07
  -3  -2  12  260.10   15.03
   3  -2 -12  240.52   14.61
  -3  -2  12  238.85   13.66
   3  -2 -12  226.20   17.50
  -3   2  12  248.83   12.58
   3   2 -12  236.97   13.02
  -3   2  12  236.21   12.88
   2  -2 -12   50.10    7.16
  -2  -2  12   57.19    5.54
  -2  -2  12   40.75    6.95
   2  -2 -12   52.90    6.12
   2  -2 -12   55.16   11.72
  -2   2  12   42.49    4.35
  -2   2  12   40.91    3.80
   2   2 -12   55.07    4.91
  -1  -2  12  122.79    9.40
   1  -2 -12  106.16    8.13
   1  -2 -12  113.71   13.95
  -1  -2  12   94.38    7.06
  -1  -2  12  125.76    7.89
  -1   2  12  115.91    6.82
   1   2 -12  115.49    7.70
  -1   2  12  110.46    7.16
  -1   2  12  130.43   11.84
   0  -2  12   14.53    3.29
   0  -2 -12   21.21    3.59
   0  -2  12   13.15    2.71
   0  -2  12   14.91    4.60
   0   2  12   22.51    5.62
   0   2  12   17.34    3.48
   0   2  12   13.25    2.69
   0   2 -12   20.11    3.83
   0   2  12   17.77    2.82
   1  -2  12  386.82   19.91
   1  -2  12  376.19   22.35
   1  -2  12  390.76   20.61
  -1  -2 -12  399.89   20.89
   1   2  12  409.09   21.81
   1   2  12  359.78   20.33
   1   2  12  408.60   20.39
   1   2  12  389.23   20.35
  -2  -2 -12    0.92    2.52
   2  -2  12    3.50    1.84
   2  -2  12    4.26    2.85
  -2  -2 -12    4.11    5.63
   2   2  12    4.15    3.72
   2   2  12    0.29    1.95
   2   2  12    1.19    1.78
   3  -2  12  301.11   15.87
  -3  -2 -12  325.56   16.77
   3   2  12  289.27   15.99
   3   2  12  307.62   17.01
  -4  -2 -12   43.70    4.79
   4  -2  12   38.92    3.15
   4   2  12   41.99    3.47
  -5  -2 -12    6.35    3.59
   5  -2  12    3.37    1.37
  -5   2 -12    7.50    2.21
   5   2  12    1.98    1.34
   6  -2  12   10.74    2.25
  -6  -2 -12    8.58    2.12
   6   2  12   10.04    1.62
   8  -3 -12   43.28    3.50
   8  -3 -12   39.14    3.88
   8  -3 -12   37.18    5.21
   8   3 -12   36.35    3.28
   7  -3 -12    5.65    1.90
   7  -3 -12   11.92    3.97
   7  -3 -12    3.86    2.28
   7   3 -12    4.98    1.80
   7   3 -12    9.70    1.91
  -6  -3  12   53.10    6.07
   6  -3 -12   42.72    4.43
   6  -3 -12   43.98    7.40
   6  -3 -12   43.99    5.27
   6   3 -12   45.00    3.78
   5  -3 -12  157.49   12.36
   5  -3 -12  143.37    9.94
   5   3 -12  152.04    8.64
  -5   3  12  147.20   10.25
   4  -3 -12   62.34    6.46
  -4  -3  12   61.17    5.72
   4  -3 -12   65.84    7.03
   4  -3 -12   67.02   10.20
   4   3 -12   64.36    4.89
  -4   3  12   64.35    5.10
   3  -3 -12  295.56   18.83
  -3  -3  12  294.02   15.73
   3  -3 -12  282.58   16.92
   3  -3 -12  289.80   15.90
  -3   3  12  288.88   15.35
   3   3 -12  288.30   15.43
   2  -3 -12   91.57    7.43
  -2  -3  12  121.61    7.31
   2  -3 -12  104.47   11.32
  -2   3  12   96.12    6.84
  -2   3  12   94.23    6.76
   2   3 -12  112.65    6.83
   1  -3 -12   35.50    6.89
  -1  -3  12   27.42    3.39
   1  -3 -12   31.99    4.86
  -1  -3  12   35.01    4.37
  -1   3  12   28.14    3.77
   1   3 -12   34.96    4.38
  -1   3  12   26.56    3.84
   0  -3  12  342.79   17.80
   0  -3 -12  361.73   18.88
   0  -3 -12  370.37   19.92
   0  -3  12  340.03   18.31
   0   3  12  328.55   18.16
   0   3 -12  343.76   18.27
   0   3  12  338.73   20.74
   0   3  12  358.27   18.33
   1  -3  12   53.55    5.09
  -1  -3 -12   51.25    5.37
   1  -3  12   48.73    3.86
  -1  -3 -12   49.92    7.58
   1   3  12   46.70    5.27
   1   3  12   52.80    7.69
   1   3  12   52.85    4.39
   1   3  12   47.86    4.23
  -2  -3 -12   40.96    8.85
   2  -3  12   35.26    4.73
   2   3  12   46.63    5.00
  -3  -3 -12   48.55    7.54
   3  -3  12   43.86    3.13
  -3  -3 -12   41.65    4.44
   3   3  12   43.26    3.46
   4  -3  12  110.05    5.66
  -4  -3 -12   98.56    8.97
  -4  -3 -12   96.94    6.45
   5  -3  12    9.97    1.55
   5   3  12    7.32    1.08
   7  -4 -12  124.30    6.64
   7  -4 -12  113.45    8.83
   6  -4 -12   31.51    3.25
   6  -4 -12   39.62    5.79
  -6  -4  12   28.60    3.51
   6   4 -12   25.49    2.62
  -6   4  12   24.99    3.11
   5  -4 -12  110.22    6.67
  -5  -4  12  106.27    6.62
   5  -4 -12  101.90    9.15
   5   4 -12  106.85    6.19
  -5   4  12  111.51    6.30
  -4  -4  12   67.63    4.85
   4  -4 -12   58.48    5.09
   4  -4 -12   58.92    8.08
  -4   4  12   67.74    4.61
   4   4 -12   66.93    4.49
   3  -4 -12   57.38    5.33
   3  -4 -12   63.15    6.00
  -3  -4  12   62.84    4.80
   3  -4 -12   49.48    7.63
  -3   4  12   62.79    4.55
   3   4 -12   57.26    4.28
  -2  -4  12    5.70    2.42
   2  -4 -12    6.83    3.10
   2  -4 -12    8.02    4.50
  -2  -4  12    9.03    1.77
   2   4 -12    7.19    2.14
  -2   4  12    7.51    2.03
  -1  -4  12   36.90    3.90
  -1  -4  12   40.98    3.20
   1  -4 -12   47.94    4.41
   1  -4 -12   44.71    5.63
  -1   4  12   41.06    3.54
   1   4 -12   35.53    3.82
   0  -4  12   91.13    5.33
   0  -4 -12   89.31    6.15
   0  -4  12   86.35    5.83
   0  -4 -12   91.88    7.05
   0   4  12   90.64    6.00
   0   4 -12   90.21    5.91
   0   4  12   97.33    5.74
  -1  -4 -12  128.69    8.43
  -1  -4 -12  123.61    7.65
   1  -4  12  124.68    6.89
   1   4  12  123.45    7.15
   1   4  12  127.24    7.33
   2  -4  12   33.35    2.66
  -2  -4 -12   37.05    4.65
   2   4  12   35.43    2.87
   2   4  12   41.81    3.45
   3  -4  12    2.80    1.05
  -3  -4 -12    2.89    2.64
   3   4  12    4.40    1.18
   4  -4  12  135.18    6.90
  -5  -5  12    1.58    1.46
   5   5 -12    0.30    1.14
  -5   5  12    4.08    1.24
  -4  -5  12   15.78    1.80
  -4  -5  12   15.98    2.69
  -4   5  12   20.26    2.16
   4   5 -12   17.23    2.07
  -3  -5  12   16.31    2.45
  -3  -5  12   12.96    2.07
  -3   5  12   20.51    3.72
  -3   5  12   22.86    2.36
   3   5 -12   17.93    2.07
  -2  -5  12  155.65    8.16
   2  -5 -12  148.30    8.09
  -2  -5  12  150.16    7.83
  -2   5  12  156.94    8.19
   2   5 -12  151.46    7.99
  -2   5  12  145.25    7.98
  -1  -5  12   17.50    2.91
   1  -5 -12   19.61    3.13
  -1  -5  12   12.64    1.67
   1   5 -12   17.94    2.35
  -1   5  12   14.93    2.19
   0   5  12   62.77    3.99
   0   5  12   52.38    3.47
  -1  -5 -12   50.13    3.79
   1  -5  12   45.44    2.75
   1   5  12   45.19    2.91
   1   5  12   48.02    3.17
 -10   0  13   44.39    2.83
   9   0 -13    3.93    1.38
   8   0 -13   36.90    3.58
   8   0 -13   52.02    9.26
   8   0 -13   29.98    4.46
   6   0 -13  120.27    8.84
   6   0 -13  118.55    7.85
  -5   0  13   41.53    4.82
   5   0 -13   39.17    6.70
  -4   0  13  111.81    7.00
   4   0 -13  112.66    9.50
   3   0 -13  182.14   10.45
  -3   0  13  185.39   15.08
   3   0 -13  145.77   12.09
  -3   0  13  180.82    9.92
  -3   0  13  182.55    9.93
  -2   0  13  116.99    8.83
   2   0 -13   91.50    7.65
  -2   0  13  100.97   10.70
  -2   0  13  108.47    6.59
  -1   0  13   16.38    4.27
  -1   0  13   23.82    4.65
  -1   0  13   16.90    2.90
  -1   0  13   21.48    3.88
   0   0  13   19.63    5.13
   0   0  13   20.50    3.18
   0   0  13   18.25    4.08
   1   0  13   80.79    7.15
   1   0  13   71.77    5.69
   1   0  13   77.46    9.65
   2   0  13  162.72    9.23
   2   0  13  151.27   10.11
  -3   0 -13  150.05    9.23
   3   0  13  147.48    9.45
   4   0  13   17.84    3.18
   4   0  13   17.45    3.02
  -4   0 -13   14.79    2.78
   5   0  13   -2.39    2.52
  -5   0 -13   -0.49    2.96
   6   0  13   -1.04   14.04
   9  -1 -13   38.05    4.71
   9  -1 -13   25.89    3.40
   9  -1 -13   27.22    5.91
   9   1 -13   37.88    3.03
   8  -1 -13   18.52    3.57
   8  -1 -13   17.99    3.16
   8  -1 -13   15.13    4.61
   8   1 -13   18.66    3.00
   7  -1 -13   73.83    8.94
   7  -1 -13   70.21    5.30
   7   1 -13   70.86    5.23
   6  -1 -13   94.62   10.88
   6  -1 -13   94.04    7.77
   6  -1 -13  100.42    7.02
   6   1 -13  106.93    6.82
   5  -1 -13   44.72    8.19
   5  -1 -13   42.53    6.33
   5   1 -13   39.23    4.46
  -4  -1  13  300.80   17.56
  -4  -1  13  293.17   15.94
  -4  -1  13  308.59   17.23
   4  -1 -13  298.64   16.89
   4   1 -13  284.64   15.67
  -4   1  13  279.94   15.32
   3  -1 -13    8.39    3.72
   3  -1 -13    9.46    3.62
  -3  -1  13   13.18    4.03
  -3  -1  13    4.52    2.94
  -3  -1  13    4.55    2.19
  -3  -1  13    8.88    3.96
  -3   1  13    7.99    2.01
  -3   1  13    6.73    2.18
   3   1 -13    7.01    2.74
   2  -1 -13   72.34    7.26
  -2  -1  13   66.75    6.70
   2  -1 -13   53.50    6.19
  -2  -1  13   50.13    6.80
  -2  -1  13   54.65    5.67
  -2  -1  13   64.86    4.92
   2   1 -13   56.95    5.41
  -2   1  13   61.95    4.70
  -2   1  13   44.23    4.34
  -1  -1  13  151.15    9.51
  -1  -1  13  162.76   11.36
  -1  -1  13  163.31   10.27
   1  -1 -13  160.87    9.92
   1   1 -13  153.89    9.95
  -1   1  13  160.86   11.61
  -1   1  13  173.46    9.16
  -1   1  13  161.45    9.39
   0  -1  13   10.66    3.53
   0  -1  13   15.53    4.73
   0  -1  13   11.68    2.94
   0  -1 -13   11.75    2.96
   0   1  13    9.38    2.37
   0   1  13    6.72    2.61
   0   1  13   15.17    3.43
   0   1  13    4.25    4.76
   0   1  13   18.75    4.44
   1  -1  13  176.77   10.99
  -1  -1 -13  189.44   10.88
   1  -1  13  177.97   10.51
   1  -1  13  166.32   13.43
   1   1  13  179.65   10.36
   1   1  13  194.52   10.41
   1   1  13  179.62   11.59
   2  -1  13   16.62    2.92
   2  -1  13   11.16    3.36
  -2  -1 -13   23.03    4.25
   2   1  13   17.40    3.21
   2   1  13   19.83    3.48
   2   1  13   23.96    4.25
   3  -1  13   -1.09    2.31
  -3  -1 -13    3.99    2.62
   3   1  13   -2.19    3.23
   3   1  13    0.21    2.19
  -4  -1 -13   37.93    4.28
   4  -1  13   39.16    3.80
  -4   1 -13   41.52    4.30
  -5  -1 -13   10.19    2.77
   5  -1  13   14.72    2.45
   5  -1  13   -3.45   21.57
   5   1  13   12.01    2.16
  -5   1 -13   12.15    3.00
   9  -2 -13   32.67    3.22
   9  -2 -13   33.77    3.11
   8  -2 -13   15.05    4.03
   8  -2 -13   11.38    2.09
   8  -2 -13   20.28    3.11
   8   2 -13   17.67    3.07
  -8   2  13   12.74    2.33
   7  -2 -13   22.19    3.77
   7  -2 -13   25.30    3.97
   7  -2 -13   14.73    4.46
   7   2 -13   22.09    3.50
  -7   2  13   24.75    2.72
   7   2 -13   17.79    2.50
  -6  -2  13    7.07    5.12
   6  -2 -13    4.06    2.86
   6  -2 -13    3.48    3.10
   6   2 -13    2.73    2.06
  -5  -2  13   43.55    6.77
   5  -2 -13   38.21    5.96
   5  -2 -13   44.28    6.15
   5  -2 -13   54.58    9.44
   5   2 -13   53.38    4.39
  -5   2  13   48.44    4.08
   4  -2 -13   28.54    7.41
   4  -2 -13   39.47    6.26
  -4  -2  13   37.62    6.09
   4   2 -13   29.48    3.87
  -4   2  13   33.22    3.53
   3  -2 -13  104.15    8.95
  -3  -2  13  110.58    7.86
   3  -2 -13  116.83    8.28
   3  -2 -13   89.89   13.15
  -3  -2  13  102.65    7.16
  -3  -2  13  133.30   10.45
   3   2 -13  109.15    7.01
  -3   2  13  104.44    6.77
  -3   2  13  113.58    6.75
   2  -2 -13   18.12    8.04
  -2  -2  13   13.06    5.48
   2  -2 -13   20.94    3.79
  -2  -2  13   24.22    4.60
   2   2 -13   18.34    2.86
  -2   2  13   17.86    3.53
   1  -2 -13  199.86   17.86
   1  -2 -13  218.64   12.50
  -1  -2  13  216.65   14.68
  -1  -2  13  209.59   12.41
  -1   2  13  225.77   11.95
  -1   2  13  219.64   14.58
   1   2 -13  210.16   12.05
  -1   2  13  209.84   11.74
  -1   2  13  220.25   12.00
   0  -2  13  189.66   10.73
   0  -2 -13  205.04   11.73
   0  -2  13  193.14   11.51
   0   2  13  200.06   11.08
   0   2  13  196.78   13.28
   0   2  13  194.60   10.97
   1  -2  13  141.76    8.00
  -1  -2 -13  148.66    9.27
   1  -2  13  132.94    8.89
   1   2  13  142.98   10.36
   1   2  13  146.17    8.57
   1   2  13  143.47    8.43
  -2  -2 -13  165.36    9.97
   2   2  13  167.15   10.63
   2   2  13  155.37    9.22
   2   2  13  164.16    9.33
   3  -2  13    5.87    1.58
  -3  -2 -13    5.78    2.33
   3   2  13    6.27    1.80
   4  -2  13   64.28    4.01
  -4  -2 -13   64.56    5.03
   5  -2  13    6.15    1.58
   5   2  13    3.18    1.18
  -5   2 -13    5.35    2.19
   8  -3 -13   22.66    2.87
   8  -3 -13   28.33    4.97
   8  -3 -13   23.13    3.14
   7  -3 -13    9.71    2.06
   7  -3 -13    9.66    3.99
   7  -3 -13    6.37    2.14
   7   3 -13    8.15    1.76
   6  -3 -13   51.38    4.66
   6  -3 -13   46.77    7.07
   6  -3 -13   45.61    4.79
  -6  -3  13   52.23    5.62
   6   3 -13   52.56    3.85
   5  -3 -13  324.56   17.05
   5  -3 -13  319.76   19.11
   5  -3 -13  332.56   17.32
   5  -3 -13  300.62   17.69
  -5  -3  13  334.18   17.32
   5   3 -13  321.75   16.82
  -5   3  13  339.46   16.83
   4  -3 -13  168.75   10.84
  -4  -3  13  178.39   11.72
   4  -3 -13  152.11   15.42
  -4   3  13  177.70    9.58
   4   3 -13  166.19    9.51
   3  -3 -13  176.18   14.43
  -3  -3  13  204.47   11.28
   3  -3 -13  206.45   11.86
   3   3 -13  194.68   10.81
  -2  -3  13  102.07    7.13
   2  -3 -13  101.48    7.41
  -2  -3  13  107.07    6.39
   2  -3 -13  102.29   11.46
  -2   3  13  114.10    6.88
  -2   3  13  114.87    6.77
   2   3 -13  101.01    6.70
  -1  -3  13   28.52    3.96
   1  -3 -13   33.09    4.55
  -1  -3  13   28.43    3.34
  -1   3  13   31.29    3.73
  -1   3  13   29.95    3.62
   1   3 -13   26.17    4.09
   0  -3 -13   36.06    6.48
   0  -3 -13   35.59    4.60
   0  -3  13   34.12    4.23
   0   3  13   32.76    3.51
   0   3  13   34.82    4.61
   0   3 -13   31.36    5.53
   1  -3  13   89.73    6.18
   1  -3  13   89.79    5.39
  -1  -3 -13   97.41    8.47
   1   3  13   94.35    6.50
   1   3  13   81.48    6.94
  -2  -3 -13   -0.14    1.97
   2  -3  13    0.32    1.30
  -2  -3 -13   -3.19    3.70
   2   3  13    0.79    1.47
   3  -3  13   14.41    2.02
  -3  -3 -13   12.20    2.39
  -3  -3 -13   13.48    6.56
   3   3  13   11.79    1.76
   4  -3  13   18.97    1.94
   7  -4 -13   51.44    5.03
   6  -4 -13   24.13    3.44
  -6  -4  13   26.38    3.40
   6  -4 -13   25.89    5.45
  -6   4  13   22.27    2.54
  -5  -4  13  209.39   11.16
  -5  -4  13  212.84   10.75
   5  -4 -13  204.01   11.34
   5  -4 -13  190.15   12.51
   5   4 -13  216.64   10.89
  -5   4  13  218.82   10.90
  -4  -4  13    3.09    1.80
  -4  -4  13    6.42    1.58
   4  -4 -13    4.97    3.62
   4   4 -13    7.46    1.58
  -4   4  13    8.45    1.84
   3  -4 -13   60.19    7.52
   3  -4 -13   69.96    5.46
  -3  -4  13   67.46    4.37
  -3  -4  13   69.23    4.79
  -3   4  13   81.08    4.71
   3   4 -13   70.07    4.55
  -2  -4  13   21.41    3.17
  -2  -4  13   26.93    2.48
   2  -4 -13   24.22    4.14
   2   4 -13   22.08    2.84
  -2   4  13   30.18    2.84
  -1  -4  13   45.89    3.80
  -1  -4  13   47.14    3.22
   1  -4 -13   39.21    4.84
  -1   4  13   41.97    3.85
   1   4 -13   43.65    3.75
  -1   4  13   40.66    3.39
   0  -4 -13   52.90    5.23
   0  -4 -13   51.96    4.23
   0  -4  13   46.00    3.52
   0  -4  13   56.82    4.15
   0   4  13   53.01    3.70
   0   4  13   55.54    4.04
  -1  -4 -13   35.36    4.32
   1  -4  13   33.47    2.44
   1   4  13   26.15    3.73
   1   4  13   29.57    2.60
   2  -4  13   28.32    3.07
   2   4  13   22.99    2.09
   3  -4  13   40.16    2.43
   3   4  13   35.49    2.76
  -4  -5  13   35.86    2.81
   4   5 -13   31.60    2.39
  -4   5  13   34.49    2.61
  -3  -5  13   20.17    2.34
  -3   5  13   14.47    1.93
   3   5 -13   19.81    2.05
  -2  -5  13   43.88    2.70
   2   5 -13   43.64    3.08
  -2   5  13   43.82    2.96
  -1  -5  13   13.22    1.61
   1  -5 -13   14.53    2.43
  -1   5  13   13.34    2.41
  -1   5  13   12.85    1.96
   0  -5  13   29.70    2.22
   0  -5 -13   29.49    2.79
   9   0 -14    4.69    2.45
   8   0 -14    3.78    2.90
   8   0 -14    2.58    2.08
   7   0 -14   -1.26    2.90
   7   0 -14    5.99    2.59
   6   0 -14   -4.60    5.22
   5   0 -14   52.02    6.93
  -4   0  14  244.50   16.14
  -4   0  14  251.34   13.01
   4   0 -14  230.13   14.71
  -3   0  14   43.97    5.16
  -3   0  14   44.32    4.05
   3   0 -14   48.56    6.60
  -3   0  14   36.20    5.99
  -2   0  14    6.48    2.20
  -2   0  14    4.86    4.05
   2   0 -14    4.87    2.65
  -2   0  14    4.90    3.43
  -2   0  14    8.88    4.50
  -1   0  14  305.10   17.60
   1   0 -14  316.23   16.88
  -1   0  14  312.10   20.14
  -1   0  14  312.01   16.60
  -1   0  14  324.14   18.77
   0   0  14    8.57    2.37
   0   0  14    7.25    3.66
  -1   0 -14  193.48   11.07
   1   0  14  192.71   11.63
   1   0  14  181.27   10.65
  -2   0 -14   19.24    3.75
   2   0  14   13.59    2.35
   2   0  14   13.83    3.30
  -3   0 -14   95.40    6.52
   3   0  14   98.12    6.77
  -4   0 -14   50.17    4.28
   5   0  14  -12.33   15.21
   9  -1 -14    4.63    1.94
  -9   1  14    1.30    1.32
   8  -1 -14   23.35    9.64
   8  -1 -14   29.35    3.72
   8  -1 -14   20.98    3.71
   8   1 -14   37.17    5.03
   7  -1 -14    7.56    2.56
   7  -1 -14    1.58    5.72
   7  -1 -14    8.01    2.45
   6  -1 -14   79.69    8.62
   6  -1 -14   54.97   11.48
   5  -1 -14    2.50    3.08
  -5  -1  14    2.20    5.05
   5   1 -14    5.09    2.44
  -5   1  14    0.04    1.43
  -4  -1  14  154.88   11.00
   4  -1 -14  153.60   10.43
  -4  -1  14  155.97    8.69
  -4   1  14  146.64    8.69
   4   1 -14  150.28    9.07
  -3  -1  14    1.98    5.10
  -3  -1  14    5.06    1.98
  -3  -1  14   12.23    5.54
   3  -1 -14    8.24    3.54
   3   1 -14    7.40    2.75
  -3   1  14    6.29    3.59
  -3   1  14    5.84    1.95
  -3   1  14    1.98    6.39
  -2  -1  14    4.87    4.63
  -1  -1  14   36.31    5.72
   1  -1 -14   31.89    4.62
  -1  -1  14   32.66    4.43
  -1  -1  14   21.58    5.75
  -1   1  14   27.63    3.94
  -1   1  14   42.63    6.60
  -1   1  14   19.62    6.51
  -1   1  14   34.74    6.21
   1   1 -14   30.87    4.46
   0  -1 -14   68.03    5.74
   0  -1  14   68.12    5.49
   0  -1  14   62.74    6.27
   0   1  14   70.54    7.07
   0   1  14   61.65    5.31
   0   1  14   65.54    5.23
  -1  -1 -14   77.84    6.22
   1  -1  14   86.93    6.66
   1  -1  14   85.98    6.04
   1   1  14   82.21    5.82
   1   1  14   83.18    5.86
   1   1  14   83.14    7.55
  -2  -1 -14  129.65    8.37
   2   1  14  127.56    8.19
   2   1  14  125.76    9.70
   2   1  14  127.63    7.59
  -3  -1 -14   86.47    6.18
   3  -1  14   86.33    6.16
   3   1  14   88.45    6.34
  -4  -1 -14   14.85    2.40
   4   1  14   13.93    2.30
  -4   1 -14    9.24    2.28
   9  -2 -14   93.55    5.96
   8  -2 -14   31.59    6.23
   8  -2 -14   30.70    3.54
  -8   2  14   38.67    3.20
   7  -2 -14   50.97    4.59
   7  -2 -14   41.90    4.59
   7  -2 -14   36.62    7.17
  -7   2  14   57.09    3.61
   6  -2 -14   58.76    5.68
   6  -2 -14   51.46    5.41
   6  -2 -14   72.83    8.67
  -6  -2  14   61.98    7.92
  -6   2  14   55.57    4.03
   6   2 -14   60.04    4.49
   5  -2 -14  196.54   11.60
   5  -2 -14  153.66   18.28
  -5  -2  14  181.91   10.74
   5   2 -14  208.88   10.55
  -4  -2  14    5.69    2.10
  -4  -2  14    2.72    3.27
   4  -2 -14    3.58    6.77
   4  -2 -14    0.46    2.80
   4   2 -14    3.68    2.31
  -4   2  14    1.45    1.63
   3  -2 -14   21.72    7.81
   3  -2 -14   26.14    3.85
   3  -2 -14   17.14    3.78
   3   2 -14   23.51    3.70
  -3   2  14   27.82    3.52
   2  -2 -14   13.59    9.90
  -2  -2  14    7.19    2.94
   2  -2 -14   10.51    3.02
  -2   2  14    8.70    2.30
   2   2 -14    9.65    2.58
  -2   2  14   11.04    6.53
  -2   2  14   12.12    2.35
  -1  -2  14   52.21    5.48
   1  -2 -14   52.21    5.40
  -1   2  14   55.30    4.71
   1   2 -14   56.20    5.48
  -1   2  14   46.34    8.90
  -1   2  14   51.99    4.63
   0  -2 -14   47.72    5.08
   0  -2  14   52.25    5.39
   0   2  14   52.69    4.46
   0   2  14   55.89    4.56
   0   2  14   52.80    7.32
  -1  -2 -14   63.10    5.71
   1  -2  14   66.38    4.65
   1   2  14   63.81    5.19
   2  -2  14   11.83    2.22
  -2  -2 -14    7.64    5.04
   2  -2  14   12.63    2.76
  -2  -2 -14   19.75    3.69
   2   2  14   11.74    3.18
   2   2  14   15.12    2.61
  -3  -2 -14   53.50    4.44
   3  -2  14   49.06    3.76
   3   2  14   50.79    3.63
  -4  -2 -14   94.93    5.93
  -4   2 -14   94.68    6.10
   5   2  14   43.17   13.69
   7  -3 -14  100.76    6.60
   7  -3 -14  111.93    6.45
   7  -3 -14   97.44   10.48
   6  -3 -14   37.97    4.16
   6  -3 -14   40.50    6.84
  -6  -3  14   45.84    4.93
   6   3 -14   49.12    3.43
  -5  -3  14  116.06    7.19
   5  -3 -14  101.57    7.28
   5  -3 -14  101.58    6.89
   5  -3 -14  106.23    9.51
  -5   3  14  118.73    6.67
   5   3 -14  108.09    6.38
   4  -3 -14   36.38    7.85
   4  -3 -14   42.18    4.73
  -4  -3  14   32.51    4.27
   4   3 -14   37.03    3.34
  -4   3  14   40.54    3.68
   3  -3 -14    0.69    2.39
  -3  -3  14    1.22    3.35
   3  -3 -14    1.97    5.20
   3   3 -14    3.36    1.87
  -3   3  14    0.90    2.22
  -3   3  14    1.49    1.86
   2  -3 -14   17.86    5.76
  -2  -3  14   17.34    2.38
   2  -3 -14   16.17    2.95
   2   3 -14   16.60    2.47
  -2   3  14   17.85    2.94
  -1  -3  14   36.49    4.79
   1  -3 -14   57.22    8.85
   1  -3 -14   52.45    4.76
  -1  -3  14   49.17    3.77
  -1   3  14   61.77   10.04
  -1   3  14   52.06    4.00
   1   3 -14   49.92    4.44
  -1   3  14   37.75    4.07
   0  -3 -14    2.63    3.37
   0  -3 -14    8.19    2.15
   0  -3  14    6.89    2.24
   0  -3  14    7.79    1.76
   0   3  14   13.60    2.53
   0   3  14   15.58    4.40
   0   3  14   12.58    2.61
   0   3  14   11.49    1.91
  -1  -3 -14   38.84    3.98
   1  -3  14   40.90    4.07
   1  -3  14   33.52    2.98
  -1  -3 -14   38.20    6.13
   1   3  14   40.58    3.33
  -2  -3 -14  160.76   10.09
   2  -3  14  139.41    7.76
  -2  -3 -14  150.67    8.48
   2   3  14  144.09    7.96
   3  -3  14   33.20    2.66
  -3  -3 -14   40.90    3.65
  -3  -3 -14   34.67    7.24
   3   3  14   32.10    2.55
   4   3  14  201.66   10.21
   6  -4 -14   31.40    4.72
   6   4 -14   41.22    2.75
  -5  -4  14   44.49    5.51
  -5   4  14   56.63    3.40
   5   4 -14   54.70    3.44
   4  -4 -14   23.92    5.58
  -4  -4  14   30.82    3.05
   4   4 -14   34.08    2.65
  -4   4  14   32.27    2.61
   3  -4 -14   49.46    4.20
  -3  -4  14   41.82    3.64
  -3  -4  14   40.82    3.46
   3   4 -14   48.22    3.32
  -3   4  14   48.12    3.29
  -2  -4  14   37.10    2.87
  -2  -4  14   34.53    3.23
   2  -4 -14   35.25    3.98
  -2   4  14   36.87    3.27
  -2   4  14   35.04    2.82
   2   4 -14   30.59    2.97
   1  -4 -14   60.30    5.15
  -1  -4  14   69.50    4.55
  -1  -4  14   73.43    4.10
  -1   4  14   66.43    4.21
   1   4 -14   72.99    5.03
  -1   4  14   64.85    4.52
   0  -4  14   25.26    4.22
   0  -4  14   26.48    3.29
   0  -4 -14   28.29    3.72
   0   4  14   33.16    3.11
   0   4  14   34.65    2.56
   1  -4  14   23.08    2.03
  -1  -4 -14   17.93    3.85
   1   4  14   20.33    1.98
  -2  -4 -14   82.49    5.52
   2   4  14   75.27    4.27
  -9   0  15    9.66    1.58
  -8   0  15   89.99    5.10
   7   0 -15    4.52    3.40
   6   0 -15   36.50    4.49
  -5   0  15   17.19    2.63
  -4   0  15   96.73   10.51
  -4   0  15   86.98    5.71
  -3   0  15   56.41    7.51
   3   0 -15   40.99    6.34
  -3   0  15   41.64    3.97
  -2   0  15   41.97    4.17
  -2   0  15   44.58    6.32
   2   0 -15   37.67    4.75
  -2   0  15   30.35    4.87
   1   0 -15   25.44    4.34
  -1   0  15   40.38    5.84
  -1   0  15   36.55    4.02
   0   0  15  110.89    7.08
   0   0 -15  116.69    7.41
   0   0  15  111.77    8.32
   1   0  15   52.27    7.08
  -1   0 -15   52.40    4.89
  -2   0 -15   94.55    6.19
   2   0  15   88.09    6.59
   3   0  15  143.09    8.39
  -3   0 -15  147.90    8.41
  -4   0 -15    9.81    2.06
   4   0  15    5.66   17.78
  -9  -1  15    4.56    1.56
  -8  -1  15   91.70    5.05
  -8   1  15   87.27    5.05
   7  -1 -15    1.52    2.12
  -7   1  15    1.91    1.30
   6  -1 -15   20.08    3.28
  -6   1  15   29.11    2.61
  -5  -1  15   39.26    7.98
  -5   1  15   43.00    3.99
   4  -1 -15  126.68    9.39
  -4  -1  15  139.29    7.74
  -4  -1  15  132.21    9.88
  -4   1  15  137.42    7.73
   4   1 -15  127.83    8.08
   3  -1 -15   38.41    6.08
  -3  -1  15   41.00    4.01
   3   1 -15   40.33    4.70
  -3   1  15   43.89    3.96
  -2  -1  15    6.77    2.19
   2  -1 -15    8.30    2.92
  -2  -1  15    4.56    3.16
  -2   1  15    5.85    2.27
  -2   1  15    7.81    2.14
  -2   1  15   13.66    4.61
   1  -1 -15  240.87   13.54
  -1  -1  15  243.88   13.20
  -1  -1  15  250.39   13.91
  -1   1  15  249.46   13.28
  -1   1  15  235.23   14.48
  -1   1  15  244.72   13.24
   0  -1 -15    7.45    2.63
   0  -1  15    8.27    3.01
   0   1  15    5.01    1.77
   0   1  15    7.56    3.62
   1  -1  15  152.32    8.67
   1   1  15  146.69    8.55
   2  -1  15   16.55    2.79
  -2  -1 -15   10.88    2.30
   2   1  15   20.84    3.27
  -3  -1 -15    3.08    1.88
   3  -1  15    7.64    3.23
  -3   1 -15    4.04    1.90
  -4  -1 -15   -0.24    1.83
   4   1  15   -0.29    1.52
   8  -2 -15   17.78    2.78
  -7  -2  15   14.01    2.58
   7  -2 -15    8.59    5.39
   7  -2 -15   12.63    2.34
  -7   2  15   13.80    2.34
   6  -2 -15   38.07    4.41
  -6  -2  15   55.61    6.52
  -6  -2  15   44.69    3.39
   6  -2 -15   41.29    6.56
  -6   2  15   39.48    3.16
   6   2 -15   40.62    3.47
   5  -2 -15   20.82    4.13
  -5  -2  15   21.76    3.07
  -5  -2  15   25.52    3.82
   5   2 -15   21.87    3.10
  -5   2  15   24.71    2.74
  -4  -2  15   89.58    6.75
  -4  -2  15   85.75    5.68
   4  -2 -15   79.55   12.28
  -4   2  15   81.94    5.64
   3  -2 -15   28.61    5.21
  -3  -2  15   42.22    4.37
  -2   2  15   33.02    4.32
  -2   2  15   20.28    6.10
  -1   2  15   85.37    8.79
   1   2 -15   76.54    6.71
   0  -2  15   32.54    4.87
   0  -2 -15   41.17    4.53
   0   2  15   45.90    6.20
   0   2  15   43.47    3.60
   0   2  15   39.87    3.83
  -1  -2 -15    3.69    2.09
   1  -2  15    5.49    2.25
  -1  -2 -15    4.32    4.08
   1   2  15    8.45    2.97
   1   2  15    4.92    1.91
   1   2  15    2.58    1.59
  -2  -2 -15   75.92   10.42
   2  -2  15   64.55    4.93
  -2  -2 -15   67.45    4.86
   2   2  15   63.01    4.23
  -3  -2 -15   -0.27    1.62
  -3   2 -15    1.19    1.50
  -7   3  15    2.92    1.22
   6  -3 -15   41.43    6.62
  -6  -3  15   54.84    4.98
  -6   3  15   55.07    3.37
   6   3 -15   44.89    3.39
  -5  -3  15  159.81    8.82
   5  -3 -15  138.06   10.55
  -5   3  15  155.96    8.34
   5   3 -15  158.09    8.35
   4  -3 -15   13.00    4.73
  -4  -3  15   14.17    2.58
   4  -3 -15   13.58    2.75
   4   3 -15   23.53    2.63
  -4   3  15   21.17    2.52
  -4   3  15   22.21    2.87
   3  -3 -15   31.19    4.46
  -3  -3  15   31.89    3.60
  -3   3  15   25.75    3.01
  -3   3  15   34.43    3.07
   3   3 -15   27.27    3.14
   2  -3 -15   11.97    3.00
  -2  -3  15    9.35    2.23
   2  -3 -15   10.65    2.24
  -2   3  15    8.17    1.70
  -2   3  15    8.52    1.90
   2   3 -15    8.03    2.15
   1  -3 -15   73.12    6.45
  -1  -3  15   72.75    5.19
   1  -3 -15   75.27    5.26
  -1   3  15   79.61    4.88
   1   3 -15   68.40    5.90
  -1   3  15   77.63    4.81
   0  -3 -15   31.89    5.16
   0  -3 -15   31.20    3.51
   0  -3  15   32.90    3.52
   0   3  15   34.09    2.93
  -1  -3 -15    0.24    3.09
  -1  -3 -15    6.81    1.85
   1   3  15    7.53    1.50
  -2  -3 -15  201.18   11.96
  -2  -3 -15  218.71   11.43
   2   3  15  207.79   10.70
  -3   3 -15   48.91    3.07
   3   3  15   39.05    2.87
  -5  -4  15    1.44    1.65
   5   4 -15    0.02    0.86
  -4  -4  15   12.44    2.27
   4   4 -15   11.11    1.77
  -4   4  15    8.45    1.58
  -3  -4  15   33.68    3.56
   3  -4 -15   34.72    3.15
  -3   4  15   26.78    2.46
  -3   4  15   28.17    2.81
   3   4 -15   31.45    2.63
  -2   4  15   64.94    3.70
  -2   4  15   58.95    3.93
   2   4 -15   57.88    4.10
  -1  -4  15    9.00    1.94
   0  -4 -15   31.68    3.28
   0   4  15   27.12    2.15
  -1  -4 -15    4.67    1.99
   1   4  15    5.05    1.03
  -8   0  16   18.12    1.97
  -7   0  16   18.46    2.04
  -6   0  16   36.99    2.98
  -5   0  16    3.04    1.43
  -4   0  16   16.20    4.96
  -3   0  16   67.43    5.47
  -3   0  16   77.00    5.39
  -2   0  16   -0.43    1.98
   0   0  16   52.21    4.16
   0   0  16   50.48    5.48
   0   0 -16   52.03    4.51
   1   0  16  158.80    9.80
  -1   0 -16  167.69    9.39
   1   0  16  168.33    9.06
   2   0  16   31.87    3.85
  -2   0 -16   30.40    3.33
  -3   0 -16   21.29    2.63
  -8  -1  16   61.55    3.62
  -8   1  16   62.22    3.70
   7  -1 -16   43.00    4.71
  -7  -1  16   48.14    3.22
  -7   1  16   53.73    3.31
  -6  -1  16   60.95    3.79
   6  -1 -16   48.90    5.08
  -6   1  16   57.69    3.75
  -5  -1  16   73.54    8.25
  -5  -1  16   62.48    4.25
  -5   1  16   65.95    4.31
  -4  -1  16    2.31    3.47
  -4  -1  16    2.95    1.50
  -4   1  16    1.51    1.48
  -3  -1  16    8.78    2.15
   3  -1 -16   12.18    3.30
  -3   1  16    9.77    2.87
  -3   1  16   14.51    5.04
  -3   1  16    5.80    2.12
   2  -1 -16   44.55    4.94
  -2  -1  16   46.60    4.29
  -2   1  16   50.13    4.22
  -2   1  16   55.08    6.78
   2   1 -16   46.64    4.85
   1  -1 -16  119.31    7.83
  -1  -1  16  131.64    7.43
  -1   1  16  120.41    7.43
  -1   1  16  126.99    8.83
   1   1 -16  125.07    7.71
   0  -1 -16   12.00    2.32
   0  -1  16   13.72    2.79
   0  -1  16   17.70    3.21
   0   1  16   11.31    3.23
   0   1  16   16.16    2.61
   0   1  16   14.43    2.68
   0   1 -16   12.86    2.27
   1  -1  16   23.31    3.67
  -1  -1 -16   22.19    3.42
  -1   1 -16   19.93    2.98
   1   1  16   24.45    4.06
   1   1  16   20.24    2.62
   2  -1  16   -1.07    1.99
  -2  -1 -16    3.10    1.68
   2   1  16   -1.12    2.04
  -2   1 -16   -2.39    1.59
  -3  -1 -16    8.58    1.85
  -3   1 -16   10.25    2.91
  -7   2  16   24.18    2.56
  -6  -2  16   61.38    4.24
  -6  -2  16   66.53    6.92
  -6   2  16   60.26    3.91
  -5  -2  16   86.91    6.83
  -5  -2  16  102.19    5.89
  -5   2  16  101.38    5.71
  -4  -2  16   33.96    4.31
  -4  -2  16   28.58    4.32
   4   2 -16   35.56    3.37
  -4   2  16   34.25    3.13
  -4   2  16   33.41    2.97
  -3  -2  16   19.61    4.01
   3  -2 -16   15.94    2.98
  -3   2  16   24.05    2.71
   3   2 -16   19.58    3.12
   2  -2 -16   32.29    4.16
  -2  -2  16   32.91    4.01
  -2   2  16   40.04    7.36
  -2   2  16   36.11    3.25
  -2   2  16   37.54    3.36
  -1  -2  16   26.82    3.72
   1  -2 -16   30.75    3.84
  -1   2  16   30.89    3.09
  -1   2  16   31.16    3.05
  -1   2  16   38.27    5.85
   0  -2 -16   73.45    5.28
   0  -2 -16   68.14    7.02
   0  -2  16   75.79    5.33
   0   2  16   80.28    4.86
   0   2  16   79.36    4.78
   0   2  16   67.18    6.45
  -1  -2 -16   21.13    4.41
   1  -2  16   20.22    3.34
  -1  -2 -16   19.70    2.93
   1   2  16   19.16    2.45
   1   2  16   24.30    3.89
  -2  -2 -16  104.86    6.06
  -2   2 -16   99.11    5.86
  -3   2 -16   11.43    2.09
  -6   3  16    2.90    1.03
  -5  -3  16   49.52    4.25
   5   3 -16   52.78    3.53
  -5   3  16   63.66    3.57
   4  -3 -16    3.77    2.04
  -4  -3  16    4.83    1.88
   4   3 -16    2.03    1.51
  -4   3  16    1.46    1.31
  -4   3  16    4.58    1.98
   3  -3 -16   12.39    2.52
  -3  -3  16   11.08    2.04
  -3   3  16   11.94    1.98
   3   3 -16    9.25    1.89
  -2  -3  16   31.75    3.19
   2  -3 -16   25.72    3.97
   2  -3 -16   23.30    3.06
  -2   3  16   22.15    2.36
   2   3 -16   23.27    4.38
  -2   3  16   25.46    2.81
   1  -3 -16    6.52    1.75
   1  -3 -16    3.72    2.37
  -1  -3  16    7.93    1.91
  -1   3  16   13.04    2.30
  -1   3  16   10.15    1.65
   0  -3 -16   20.66    3.99
   0  -3 -16   12.07    2.46
   0   3  16   18.21    1.96
  -1  -3 -16   28.02    4.48
  -1  -3 -16   24.95    2.55
   1   3  16   25.41    2.12
  -2   3 -16   15.87    2.39
  -3  -4  16   52.80    3.66
  -3   4  16   57.51    3.21
  -2   4  16   21.61    1.71
  -1   4  16    5.05    1.29
  -8   0  17    6.95    1.09
  -7   0  17   11.40    1.68
  -6   0  17   85.11    4.91
  -5   0  17   35.62    2.92
  -4   0  17    8.83    1.70
  -4   0  17   18.72    4.30
  -3   0  17   14.09    2.74
  -3   0  17   12.27    3.52
   2   0 -17    5.78    2.46
  -2   0  17    6.62    3.01
  -1   0  17   47.57    4.94
   1   0 -17   40.92    4.38
  -1   0  17   57.24    3.88
   0   0 -17    0.11    1.71
   0   0  17    0.41    1.44
   0   0  17    1.22    2.24
   1   0  17    0.55    1.93
  -1   0 -17   -1.02    1.49
  -2   0 -17   -1.19    1.42
  -3   0 -17   -1.59    2.04
  -7  -1  17    9.80    1.53
  -6  -1  17   14.51    2.14
  -6   1  17   22.42    2.15
  -5  -1  17   40.76    6.88
  -5  -1  17   54.29    3.51
  -5   1  17   48.80    3.53
  -4  -1  17   27.55    4.95
  -4  -1  17   22.09    2.80
  -4   1  17   21.34    2.57
  -4   1  17   22.22    2.75
  -3  -1  17   92.56    5.69
  -3  -1  17   88.21    6.66
  -3   1  17   95.57    8.57
  -3   1  17   90.13    5.61
  -3   1  17   92.19    5.59
  -2  -1  17    5.06    1.83
  -2  -1  17    7.54    2.43
   2  -1 -17    3.39    2.33
  -2   1  17    2.96    1.48
  -2   1  17   -3.63    3.19
  -2   1  17    5.66    2.07
   2   1 -17    0.41    2.41
  -1  -1  17    7.42    2.30
   1  -1 -17    5.85    1.98
  -1  -1  17    3.98    1.86
   1   1 -17    6.19    2.00
  -1   1  17    6.95    2.40
  -1   1  17    3.57    2.82
  -1   1  17    5.35    1.68
   0  -1 -17  123.76    7.38
   0  -1  17  130.30    7.66
   0  -1  17  123.23    7.51
   0   1 -17  124.90    7.31
   0   1  17  124.57    7.92
   0   1  17  133.08    7.09
   1  -1  17   86.06    5.51
  -1  -1 -17   82.93    5.30
   1   1  17   88.56    5.70
  -1   1 -17   79.40    5.16
  -2  -1 -17   16.86    2.35
  -2   1 -17   17.45    2.37
  -7   2  17   26.43    2.03
  -6   2  17   25.08    2.35
  -6   2  17   22.65    2.07
  -5  -2  17  195.80   11.22
  -5   2  17  216.61   10.52
  -5   2  17  194.82   10.50
  -4  -2  17   18.78    3.53
  -4   2  17   12.83    2.14
  -4   2  17   12.50    2.13
  -3  -2  17   81.19    5.74
  -3   2  17   91.37    5.18
  -3   2  17   88.56    5.21
  -2  -2  17    7.09    2.04
   2  -2 -17    9.31    2.21
   2   2 -17   13.65    3.18
  -2   2  17    5.53    1.50
  -2   2  17    6.20    1.68
  -2   2  17   14.42    5.56
  -1  -2  17   44.91    3.91
   1  -2 -17   48.91    3.82
   1   2 -17   45.92    3.84
  -1   2  17   38.64    5.52
  -1   2  17   49.75    3.28
  -1   2  17   47.29    3.45
   0  -2  17  149.58    8.12
   0  -2 -17  150.65    9.32
   0  -2 -17  139.61    8.03
   0   2  17  145.59    7.79
   0   2  17  143.53    8.61
   0   2 -17  144.97    7.96
   0   2  17  140.67    7.68
  -1  -2 -17   34.37    6.22
  -1  -2 -17   45.82    3.75
  -1   2 -17   41.29    3.16
  -2  -2 -17  114.80    6.03
  -2   2 -17  104.91    6.12
  -5   3  17   11.38    1.50
  -4  -3  17   32.60    3.27
  -4   3  17   39.48    2.56
   3  -3 -17   31.67    3.42
  -3  -3  17   36.38    3.80
  -3   3  17   31.25    2.33
  -2  -3  17   76.12    5.84
   2  -3 -17   92.97    6.11
  -2   3  17   72.00    4.43
  -1  -3  17   43.36    3.58
   1  -3 -17   47.14    4.16
  -1   3  17   46.46    2.91
   0  -3 -17   32.58    3.78
  -7   0  18    3.99    1.09
  -6   0  18   35.44    2.62
  -5   0  18   45.23    3.13
  -4   0  18    2.66    1.31
  -4   0  18    7.22    4.26
  -3   0  18   20.80    2.41
  -3   0  18   30.94    5.12
  -2   0  18  117.81    7.56
   2   0 -18  104.76    8.28
  -2   0  18  128.19    6.62
  -1   0  18   24.08    2.27
  -1   0  18   17.53    3.56
   0   0  18    7.70    2.53
   0   0 -18    4.00    1.54
  -1   0 -18   18.68    2.42
   1   0  18   15.28    2.84
  -6  -1  18   57.25    3.40
  -6   1  18   58.59    3.32
  -6   1  18   44.12    3.37
  -5  -1  18  121.82    6.43
  -5  -1  18  109.23    9.61
  -5   1  18  123.24    6.41
  -5   1  18  114.09    6.42
  -4  -1  18    7.21    2.72
  -4   1  18    8.60    1.94
  -3  -1  18   45.35    4.08
  -3  -1  18   38.59    4.40
  -3   1  18   33.11    6.36
  -3   1  18   39.54    2.98
  -3   1  18   39.98    3.34
  -2  -1  18   17.50    2.49
  -2  -1  18   15.31    3.34
  -2   1  18   18.66    3.30
  -2   1  18   16.57    1.97
  -1  -1  18   49.38    4.33
   1  -1 -18   63.47    4.40
  -1  -1  18   59.52    4.35
  -1   1  18   61.18    3.74
  -1   1  18   59.18    5.04
   1   1 -18   64.13    4.96
   0  -1 -18   91.75    7.57
   0  -1 -18   62.35    5.39
   0  -1  18   77.52    5.13
   0   1 -18   72.77    4.58
   1  -1  18   21.15    2.69
  -1  -1 -18   23.67    2.36
  -1   1 -18   24.25    2.41
  -5   2  18   28.93    2.21
  -5   2  18   39.10    2.56
   4  -2 -18   17.15    3.28
  -4  -2  18   23.49    3.29
  -4   2  18   16.49    1.93
  -4   2  18   15.72    1.94
   3  -2 -18   45.04    4.18
  -3   2  18   48.73    3.39
  -3   2  18   39.06    2.94
   2  -2 -18    2.92    4.28
   2  -2 -18    4.22    3.03
  -2  -2  18    5.47    2.71
  -2   2  18    2.85    1.59
  -2   2  18    1.48    1.09
  -1  -2  18   20.95    2.94
   1  -2 -18   18.76    2.63
   1  -2 -18   20.42    3.09
  -1   2  18   26.07    2.16
   0  -2 -18  104.55    5.83
  -5   0  19   14.86    1.75
  -4   0  19    2.64    1.11
  -3   0  19   44.89    4.92
  -3   0  19   54.88    3.30
  -2   0  19   21.71    2.21
  -2   0  19   23.43    3.42
  -1   0  19   23.62    3.16
   0   0  19   12.24    2.13
  -5   1  19   23.96    1.89
  -4  -1  19    6.74    3.72
  -3  -1  19   -1.49    2.05
  -3   1  19    0.05    0.85
  -2  -1  19   88.50    5.50
  -2   1  19   88.02    6.12
  -2   1  19   92.63    4.98
  -1  -1  19   39.82    2.95
   0   0   0    0.00    0.00


 _exptl_absorpt_process_details
)
 SADABS 2016/2: Krause, L., Herbst-Irmer, R., Sheldrick G.M. & Stalke D.,
 J. Appl. Cryst. 48 (2015) 3-10
)
 _exptl_absorpt_correction_type   multi-scan
 _exptl_absorpt_correction_T_max  1.0000
 _exptl_absorpt_correction_T_min  0.8290
 _exptl_special_details
)
 The following wavelength and cell were deduced by SADABS from the
 direction cosines etc. They are given here for emergency use only:
 CELL 1.54182    8.809    5.456   15.553   90.031  104.888   90.025
)

_computing_structure_solution     'SHELXT 2014/5 (Sheldrick, 2014)'
;
_shelx_hkl_checksum              23526
_olex2_submission_special_instructions 'No special instructions were received'
loop_
_space_group_symop_operation_xyz
'x, y, z'
'-x, y+1/2, -z'
loop_
_atom_site_label
_atom_site_type_symbol
_atom_site_fract_x
_atom_site_fract_y
_atom_site_fract_z
_atom_site_U_iso_or_equiv
_atom_site_adp_type
_atom_site_occupancy
_atom_site_site_symmetry_order
_atom_site_calc_flag
_atom_site_refinement_flags_posn
O1 O 1.1424(3) 0.3092(5) 0.95765(18) 0.0302(6) Uani 1 1 d .
C1 C 1.2799(4) 0.6778(8) 0.9423(2) 0.0267(8) Uani 1 1 d .
H1A H 1.360424 0.612045 0.990612 0.040 Uiso 1 1 calc GR
H1B H 1.248892 0.836200 0.958586 0.040 Uiso 1 1 calc GR
H1C H 1.319496 0.692768 0.890623 0.040 Uiso 1 1 calc GR
C2 C 1.1396(4) 0.5085(7) 0.9223(2) 0.0223(7) Uani 1 1 d .
C3 C 0.9964(4) 0.6043(6) 0.8551(2) 0.0197(7) Uani 1 1 d .
H3A H 1.022297 0.628071 0.798785 0.024 Uiso 1 1 calc R
H3B H 0.968586 0.762730 0.874843 0.024 Uiso 1 1 calc R
C4 C 0.8539(4) 0.4344(6) 0.8407(2) 0.0189(7) Uani 1 1 d .
H4A H 0.876157 0.284241 0.812877 0.023 Uiso 1 1 calc R
H4B H 0.836673 0.392040 0.897929 0.023 Uiso 1 1 calc R
C5 C 0.7051(4) 0.5489(6) 0.7829(2) 0.0177(7) Uani 1 1 d .
C6 C 0.5544(4) 0.4954(7) 0.8108(2) 0.0197(7) Uani 1 1 d .
H6 H 0.572910 0.398094 0.865415 0.024 Uiso 1 1 calc R
C7 C 0.3957(4) 0.4556(6) 0.7506(2) 0.0178(7) Uani 1 1 d .
C8 C 0.3240(4) 0.6164(6) 0.6819(2) 0.0179(7) Uani 1 1 d .
H8 H 0.379422 0.751912 0.670176 0.022 Uiso 1 1 calc R
C9 C 0.1718(4) 0.5768(6) 0.6312(2) 0.0193(7) Uani 1 1 d .
H9 H 0.125412 0.686695 0.586511 0.023 Uiso 1 1 calc R
C10 C 0.0880(4) 0.3719(6) 0.6471(2) 0.0211(7) Uani 1 1 d .
H10 H -0.014065 0.344691 0.613055 0.025 Uiso 1 1 calc R
C11 C 0.6307(4) 0.7469(7) 0.8258(2) 0.0221(7) Uani 1 1 d .
H11A H 0.578809 0.880454 0.788499 0.026 Uiso 1 1 calc R
H11B H 0.683159 0.793080 0.886396 0.026 Uiso 1 1 calc R
C12 C 0.7012(4) 0.5717(6) 0.6858(2) 0.0154(6) Uani 1 1 d .
C13 C 0.6401(4) 0.3840(6) 0.6254(2) 0.0162(6) Uani 1 1 d .
H13 H 0.594901 0.247215 0.644477 0.019 Uiso 1 1 calc R
C14 C 0.6464(4) 0.4004(6) 0.5369(2) 0.0161(6) Uani 1 1 d .
H14 H 0.604783 0.275390 0.497262 0.019 Uiso 1 1 calc R
C15 C 0.7147(4) 0.6031(6) 0.5081(2) 0.0172(6) Uani 1 1 d .
H15 H 0.720046 0.613282 0.449336 0.021 Uiso 1 1 calc R
C16 C 0.7750(4) 0.7911(6) 0.5675(2) 0.0182(7) Uani 1 1 d .
H16 H 0.820968 0.926989 0.548289 0.022 Uiso 1 1 calc R
C17 C 0.7669(4) 0.7766(6) 0.6553(2) 0.0175(7) Uani 1 1 d .
H17 H 0.805519 0.904639 0.694147 0.021 Uiso 1 1 calc R
C18 C 0.3091(4) 0.2527(6) 0.7653(2) 0.0207(7) Uani 1 1 d .
H18 H 0.354233 0.143870 0.810668 0.025 Uiso 1 1 calc R
C19 C 0.1580(4) 0.2093(6) 0.7142(3) 0.0216(7) Uani 1 1 d .
H19 H 0.103478 0.071376 0.724741 0.026 Uiso 1 1 calc R
loop_
_atom_site_aniso_label
_atom_site_aniso_U_11
_atom_site_aniso_U_22
_atom_site_aniso_U_33
_atom_site_aniso_U_23
_atom_site_aniso_U_13
_atom_site_aniso_U_12
O1 0.0265(14) 0.0339(15) 0.0258(13) 0.0092(12) -0.0015(11) 0.0024(11)
C1 0.0194(17) 0.038(2) 0.0213(18) -0.0034(15) 0.0024(14) 0.0009(15)
C2 0.0207(17) 0.0308(19) 0.0138(14) -0.0014(14) 0.0017(13) 0.0046(14)
C3 0.0213(16) 0.0185(15) 0.0182(15) -0.0004(13) 0.0028(13) 0.0014(13)
C4 0.0194(16) 0.0194(16) 0.0167(16) 0.0034(12) 0.0027(13) 0.0023(13)
C5 0.0146(15) 0.0214(16) 0.0152(15) -0.0002(12) 0.0004(12) 0.0016(13)
C6 0.0195(16) 0.0246(17) 0.0150(15) 0.0021(13) 0.0047(13) 0.0029(13)
C7 0.0182(16) 0.0211(16) 0.0150(15) -0.0021(12) 0.0061(13) 0.0026(13)
C8 0.0186(16) 0.0175(15) 0.0190(15) -0.0020(12) 0.0072(13) 0.0011(13)
C9 0.0202(16) 0.0207(16) 0.0168(15) 0.0003(13) 0.0045(13) 0.0038(14)
C10 0.0162(15) 0.0220(17) 0.0252(17) -0.0060(14) 0.0056(13) 0.0017(14)
C11 0.0175(16) 0.0297(19) 0.0170(15) -0.0045(13) 0.0008(13) 0.0036(14)
C12 0.0151(14) 0.0142(15) 0.0168(14) 0.0037(12) 0.0039(12) 0.0051(12)
C13 0.0157(14) 0.0135(14) 0.0193(16) 0.0004(12) 0.0041(12) 0.0014(12)
C14 0.0162(15) 0.0145(14) 0.0165(15) -0.0038(12) 0.0022(12) 0.0020(13)
C15 0.0173(15) 0.0184(15) 0.0157(14) 0.0027(13) 0.0037(12) 0.0042(13)
C16 0.0164(15) 0.0147(15) 0.0231(16) 0.0045(13) 0.0040(13) 0.0004(12)
C17 0.0159(15) 0.0143(15) 0.0202(15) -0.0013(13) 0.0010(12) 0.0016(13)
C18 0.0226(17) 0.0190(16) 0.0231(16) 0.0031(13) 0.0104(14) 0.0061(13)
C19 0.0181(16) 0.0175(16) 0.0313(19) -0.0027(13) 0.0104(15) -0.0006(13)
loop_
_atom_type_symbol
_atom_type_description
_atom_type_scat_dispersion_real
_atom_type_scat_dispersion_imag
_atom_type_scat_source
C C 0.0181 0.0091 'International Tables Vol C Tables 4.2.6.8 and 6.1.1.4'
H H 0.0000 0.0000 'International Tables Vol C Tables 4.2.6.8 and 6.1.1.4'
O O 0.0492 0.0322 'International Tables Vol C Tables 4.2.6.8 and 6.1.1.4'
loop_
_geom_angle_atom_site_label_1
_geom_angle_atom_site_label_2
_geom_angle_atom_site_label_3
_geom_angle
H1A C1 H1B 109.5
H1A C1 H1C 109.5
H1B C1 H1C 109.5
C2 C1 H1A 109.5
C2 C1 H1B 109.5
C2 C1 H1C 109.5
O1 C2 C1 122.2(3)
O1 C2 C3 122.6(3)
C3 C2 C1 115.1(3)
C2 C3 H3A 108.9
C2 C3 H3B 108.9
C2 C3 C4 113.5(3)
H3A C3 H3B 107.7
C4 C3 H3A 108.9
C4 C3 H3B 108.9
C3 C4 H4A 109.0
C3 C4 H4B 109.0
H4A C4 H4B 107.8
C5 C4 C3 112.8(3)
C5 C4 H4A 109.0
C5 C4 H4B 109.0
C4 C5 C6 115.7(3)
C11 C5 C4 116.1(3)
C11 C5 C6 60.2(2)
C11 C5 C12 119.0(3)
C12 C5 C4 114.8(3)
C12 C5 C6 120.2(3)
C5 C6 H6 112.8
C7 C6 C5 126.5(3)
C7 C6 H6 112.8
C7 C6 C11 122.4(3)
C11 C6 C5 59.3(2)
C11 C6 H6 112.8
C8 C7 C6 123.7(3)
C18 C7 C6 118.5(3)
C18 C7 C8 117.7(3)
C7 C8 H8 119.5
C9 C8 C7 121.1(3)
C9 C8 H8 119.5
C8 C9 H9 119.9
C8 C9 C10 120.1(3)
C10 C9 H9 119.9
C9 C10 H10 120.2
C19 C10 C9 119.5(3)
C19 C10 H10 120.2
C5 C11 C6 60.6(2)
C5 C11 H11A 117.7
C5 C11 H11B 117.7
C6 C11 H11A 117.7
C6 C11 H11B 117.7
H11A C11 H11B 114.8
C13 C12 C5 121.2(3)
C17 C12 C5 120.2(3)
C17 C12 C13 118.6(3)
C12 C13 H13 119.7
C14 C13 C12 120.6(3)
C14 C13 H13 119.7
C13 C14 H14 120.0
C15 C14 C13 120.1(3)
C15 C14 H14 120.0
C14 C15 H15 120.1
C14 C15 C16 119.8(3)
C16 C15 H15 120.1
C15 C16 H16 119.9
C17 C16 C15 120.2(3)
C17 C16 H16 119.9
C12 C17 H17 119.6
C16 C17 C12 120.7(3)
C16 C17 H17 119.6
C7 C18 H18 119.1
C19 C18 C7 121.8(3)
C19 C18 H18 119.1
C10 C19 H19 120.1
C18 C19 C10 119.9(3)
C18 C19 H19 120.1
loop_
_geom_bond_atom_site_label_1
_geom_bond_atom_site_label_2
_geom_bond_distance
O1 C2 1.217(5)
C1 H1A 0.9600
C1 H1B 0.9600
C1 H1C 0.9600
C1 C2 1.509(5)
C2 C3 1.509(5)
C3 H3A 0.9700
C3 H3B 0.9700
C3 C4 1.529(5)
C4 H4A 0.9700
C4 H4B 0.9700
C4 C5 1.519(5)
C5 C6 1.526(5)
C5 C11 1.506(5)
C5 C12 1.509(4)
C6 H6 0.9800
C6 C7 1.484(5)
C6 C11 1.520(5)
C7 C8 1.402(5)
C7 C18 1.396(5)
C8 H8 0.9300
C8 C9 1.385(5)
C9 H9 0.9300
C9 C10 1.397(5)
C10 H10 0.9300
C10 C19 1.388(5)
C11 H11A 0.9700
C11 H11B 0.9700
C12 C13 1.400(5)
C12 C17 1.397(4)
C13 H13 0.9300
C13 C14 1.395(5)
C14 H14 0.9300
C14 C15 1.388(5)
C15 H15 0.9300
C15 C16 1.391(5)
C16 H16 0.9300
C16 C17 1.389(5)
C17 H17 0.9300
C18 H18 0.9300
C18 C19 1.383(5)
C19 H19 0.9300
loop_
_geom_torsion_atom_site_label_1
_geom_torsion_atom_site_label_2
_geom_torsion_atom_site_label_3
_geom_torsion_atom_site_label_4
_geom_torsion
O1 C2 C3 C4 3.6(5)
C1 C2 C3 C4 -176.6(3)
C2 C3 C4 C5 172.0(3)
C3 C4 C5 C6 -141.1(3)
C3 C4 C5 C11 -73.3(4)
C3 C4 C5 C12 71.9(4)
C4 C5 C6 C7 -143.7(3)
C4 C5 C6 C11 106.7(3)
C4 C5 C11 C6 -106.0(3)
C4 C5 C12 C13 90.2(4)
C4 C5 C12 C17 -86.4(4)
C5 C6 C7 C8 -51.8(5)
C5 C6 C7 C18 131.2(3)
C5 C12 C13 C14 -175.9(3)
C5 C12 C17 C16 175.0(3)
C6 C5 C12 C13 -55.2(4)
C6 C5 C12 C17 128.3(3)
C6 C7 C8 C9 -176.2(3)
C6 C7 C18 C19 177.4(3)
C7 C6 C11 C5 -116.2(3)
C7 C8 C9 C10 -1.0(5)
C7 C18 C19 C10 -1.0(5)
C8 C7 C18 C19 0.2(5)
C8 C9 C10 C19 0.2(5)
C9 C10 C19 C18 0.8(5)
C11 C5 C6 C7 109.7(4)
C11 C5 C12 C13 -125.6(3)
C11 C5 C12 C17 57.8(4)
C11 C6 C7 C8 21.7(5)
C11 C6 C7 C18 -155.2(3)
C12 C5 C6 C7 1.4(5)
C12 C5 C6 C11 -108.2(3)
C12 C5 C11 C6 110.2(3)
C12 C13 C14 C15 0.5(5)
C13 C12 C17 C16 -1.6(5)
C13 C14 C15 C16 -0.8(5)
C14 C15 C16 C17 -0.1(5)
C15 C16 C17 C12 1.3(5)
C17 C12 C13 C14 0.7(4)
C18 C7 C8 C9 0.8(5)
