#------------------------------------------------------------------------------
#$Date: 2019-10-28 09:53:10 +0200 (Mon, 28 Oct 2019) $
#$Revision: 219853 $
#$URL: file:///home/coder/svn-repositories/cod/cif/4/51/46/4514674.cif $
#------------------------------------------------------------------------------
#
# This file is available in the Crystallography Open Database (COD),
# http://www.crystallography.net/
#
# All data on this site have been placed in the public domain by the
# contributors.
#
data_4514674
loop_
_publ_author_name
'Giri, Sovan Sundar'
'Liu, Rai-Shung'
_publ_section_title
;
 Copper-Catalyzed [4+2]-Cycloadditions of Isoxazoles with
 2-Alkynylbenzaldehydes To Access Distinct \a-Carbonylnaphthalene
 Derivatives: C(3,4)- versus C(4,5)-Regioselectivity at Isoxazoles
;
_journal_issue                   8
_journal_name_full               'ACS Catalysis'
_journal_page_first              7328
_journal_paper_doi               10.1021/acscatal.9b02323
_journal_volume                  9
_journal_year                    2019
_chemical_formula_sum            'C19 H13 N O'
_chemical_formula_weight         271.30
_space_group_crystal_system      triclinic
_space_group_IT_number           2
_space_group_name_Hall           '-P 1'
_space_group_name_H-M_alt        'P -1'
_symmetry_space_group_name_Hall  '-P 1'
_symmetry_space_group_name_H-M   'P -1'
_atom_sites_solution_hydrogens   geom
_audit_creation_method           SHELXL-2014/6
_cell_angle_alpha                83.675(9)
_cell_angle_beta                 72.702(9)
_cell_angle_gamma                85.815(9)
_cell_formula_units_Z            2
_cell_length_a                   7.861(2)
_cell_length_b                   9.282(3)
_cell_length_c                   9.934(3)
_cell_measurement_reflns_used    4344
_cell_measurement_temperature    100(2)
_cell_measurement_theta_max      26.2590
_cell_measurement_theta_min      2.7163
_cell_volume                     687.2(4)
_computing_cell_refinement       'SAINT V8.34A (Bruker AXS Inc., 2013)'
_computing_data_collection       'Bruker APEX2'
_computing_data_reduction        'SAINT V8.34A (Bruker AXS Inc., 2013)'
_computing_molecular_graphics    'Bruker SHELXTL'
_computing_publication_material  'Bruker SHELXTL'
_computing_structure_refinement  'SHELXL-2014/6 (Sheldrick, 2014)'
_diffrn_ambient_temperature      100(2)
_diffrn_detector_area_resol_mean 8.3333
_diffrn_measured_fraction_theta_full 1.000
_diffrn_measured_fraction_theta_max 0.997
_diffrn_measurement_device_type  'Bruker APEX-II CCD'
_diffrn_measurement_method       '\f and \w scans'
_diffrn_radiation_type           MoK\a
_diffrn_radiation_wavelength     0.71073
_diffrn_reflns_av_R_equivalents  0.0244
_diffrn_reflns_av_unetI/netI     0.0213
_diffrn_reflns_Laue_measured_fraction_full 1.000
_diffrn_reflns_Laue_measured_fraction_max 0.997
_diffrn_reflns_limit_h_max       9
_diffrn_reflns_limit_h_min       -9
_diffrn_reflns_limit_k_max       11
_diffrn_reflns_limit_k_min       -11
_diffrn_reflns_limit_l_max       12
_diffrn_reflns_limit_l_min       -12
_diffrn_reflns_number            14010
_diffrn_reflns_point_group_measured_fraction_full 1.000
_diffrn_reflns_point_group_measured_fraction_max 0.997
_diffrn_reflns_theta_full        25.242
_diffrn_reflns_theta_max         26.470
_diffrn_reflns_theta_min         2.157
_exptl_absorpt_coefficient_mu    0.081
_exptl_absorpt_correction_T_max  0.7454
_exptl_absorpt_correction_T_min  0.7151
_exptl_absorpt_correction_type   multi-scan
_exptl_absorpt_process_details   'SADABS V2014/4 (Bruker AXS Inc.)'
_exptl_crystal_colour            colorless
_exptl_crystal_density_diffrn    1.311
_exptl_crystal_density_meas      ?
_exptl_crystal_density_method    'not measured'
_exptl_crystal_description       tabullar
_exptl_crystal_F_000             284
_exptl_crystal_size_max          0.13
_exptl_crystal_size_mid          0.10
_exptl_crystal_size_min          0.04
_refine_diff_density_max         0.241
_refine_diff_density_min         -0.190
_refine_diff_density_rms         0.038
_refine_ls_extinction_method     none
_refine_ls_goodness_of_fit_ref   1.031
_refine_ls_hydrogen_treatment    constr
_refine_ls_matrix_type           full
_refine_ls_number_parameters     191
_refine_ls_number_reflns         2829
_refine_ls_number_restraints     0
_refine_ls_restrained_S_all      1.031
_refine_ls_R_factor_all          0.0490
_refine_ls_R_factor_gt           0.0359
_refine_ls_shift/su_max          0.000
_refine_ls_shift/su_mean         0.000
_refine_ls_structure_factor_coef Fsqd
_refine_ls_weighting_details
'w=1/[\s^2^(Fo^2^)+(0.0471P)^2^+0.1986P] where P=(Fo^2^+2Fc^2^)/3'
_refine_ls_weighting_scheme      calc
_refine_ls_wR_factor_gt          0.0888
_refine_ls_wR_factor_ref         0.0959
_reflns_Friedel_coverage         0.000
_reflns_number_gt                2302
_reflns_number_total             2829
_reflns_threshold_expression     'I > 2\s(I)'
_cod_data_source_file            cs9b02323_si_006.cif
_cod_data_source_block           mo_181114lt_0m
_cod_depositor_comments
;
The following automatic conversions were performed:

'_exptl_crystal_density_meas' value 'not measured' was changed to '?'
- the value is perceived as not measured.

Automatic conversion script
Id: cif_fix_values 4973 2017-02-22 13:04:09Z antanas 
;
_cod_original_cell_volume        687.2(3)
_cod_database_code               4514674
_shelx_space_group_comment
;
The symmetry employed for this shelxl refinement is uniquely defined
by the following loop, which should always be used as a source of
symmetry information in preference to the above space-group names.
They are only intended as comments.
;
_shelxl_version_number           2014/6
_shelx_res_file
;
TITL mo_181114lt_0m in P-1
CELL 0.71073 7.8609 9.2821 9.9341 83.675 72.702 85.815
ZERR 2.00 0.0023 0.0026 0.0030 0.009 0.009 0.009
LATT 1
SFAC C H N O
UNIT 38 26 2 2
TEMP -173.170
ACTA
L.S. 4
FMAP 2
PLAN 5
BOND $H
WGHT    0.047100    0.198600
FVAR       0.79980
O1    4    0.426699    0.089437    0.158080    11.00000    0.01748    0.01998 =
         0.02498    0.00190   -0.00646   -0.00405
N1    3    0.694894    0.310505   -0.462157    11.00000    0.04017    0.02918 =
         0.01770   -0.00016   -0.00925   -0.00629
C1    1    0.823885    0.603085   -0.301789    11.00000    0.02410    0.01996 =
         0.01715    0.00234   -0.00581   -0.00112
AFIX 137
H10   2    0.813608    0.573902   -0.390809    11.00000   -1.50000
H9    2    0.948972    0.619701   -0.311983    11.00000   -1.50000
H1    2    0.751815    0.692633   -0.278717    11.00000   -1.50000
AFIX   0
C2    1    0.758284    0.484931   -0.184924    11.00000    0.01365    0.01688 =
         0.01652    0.00040   -0.00447    0.00223
C3    1    0.698875    0.357030   -0.210653    11.00000    0.01612    0.01877 =
         0.01446   -0.00133   -0.00488    0.00161
C4    1    0.638214    0.244197   -0.102500    11.00000    0.01728    0.01533 =
         0.01856   -0.00286   -0.00608   -0.00082
AFIX  43
H11   2    0.594222    0.159400   -0.123634    11.00000   -1.20000
AFIX   0
C5    1    0.642518    0.256457    0.032450    11.00000    0.01306    0.01460 =
         0.01561    0.00034   -0.00416    0.00082
C6    1    0.577074    0.130135    0.139584    11.00000    0.01565    0.01444 =
         0.01478   -0.00476   -0.00234   -0.00053
C7    1    0.696464    0.052971    0.218118    11.00000    0.01900    0.01288 =
         0.01498   -0.00342   -0.00438    0.00000
C8    1    0.622409   -0.042996    0.335923    11.00000    0.02106    0.01700 =
         0.01638   -0.00258   -0.00209    0.00016
AFIX  43
H7    2    0.498351   -0.059350    0.363814    11.00000   -1.20000
AFIX   0
C9    1    0.729921   -0.114474    0.412257    11.00000    0.03389    0.01988 =
         0.01632   -0.00050   -0.00569    0.00435
AFIX  43
H6    2    0.679222   -0.179222    0.493036    11.00000   -1.20000
AFIX   0
C10   1    0.910979   -0.091896    0.371258    11.00000    0.03230    0.02307 =
         0.02660   -0.00519   -0.01809    0.00895
AFIX  43
H2    2    0.983821   -0.140180    0.424778    11.00000   -1.20000
AFIX   0
C11   1    0.805343    0.649568    0.127779    11.00000    0.02046    0.01404 =
         0.02564   -0.00397   -0.00989   -0.00019
AFIX  43
H3    2    0.841771    0.737640    0.148965    11.00000   -1.20000
AFIX   0
C12   1    0.748605    0.537065    0.235705    11.00000    0.01879    0.02045 =
         0.01717   -0.00385   -0.00710    0.00308
AFIX  43
H13   2    0.746164    0.549787    0.329859    11.00000   -1.20000
AFIX   0
C13   1    0.696793    0.409227    0.206299    11.00000    0.01579    0.01602 =
         0.01629    0.00007   -0.00468    0.00128
AFIX  43
H12   2    0.658349    0.334369    0.280473    11.00000   -1.20000
AFIX   0
C14   1    0.699802    0.387158    0.066449    11.00000    0.01145    0.01529 =
         0.01626   -0.00107   -0.00461    0.00212
C15   1    0.986450    0.000871    0.252435    11.00000    0.02062    0.02128 =
         0.03652   -0.00542   -0.01246    0.00187
AFIX  43
H4    2    1.111104    0.014844    0.223579    11.00000   -1.20000
AFIX   0
C16   1    0.879416    0.073321    0.175693    11.00000    0.01928    0.01529 =
         0.02305   -0.00084   -0.00480   -0.00133
AFIX  43
H5    2    0.930924    0.136859    0.094149    11.00000   -1.20000
AFIX   0
C17   1    0.696364    0.333628   -0.351532    11.00000    0.02227    0.01815 =
         0.01897    0.00141   -0.00564   -0.00225
C18   1    0.755932    0.501673   -0.042926    11.00000    0.01183    0.01534 =
         0.01681   -0.00009   -0.00443    0.00198
C19   1    0.808043    0.632101   -0.007693    11.00000    0.01717    0.01446 =
         0.02094    0.00217   -0.00635   -0.00026
AFIX  43
H8    2    0.845666    0.709063   -0.079753    11.00000   -1.20000
AFIX   0
HKLF 4 1 1 0 0 0 1 0 0 0 1

REM  mo_181114lt_0m in P-1
REM R1 =  0.0359 for    2302 Fo > 4sig(Fo)  and  0.0490 for all    2829 data
REM    191 parameters refined using      0 restraints

END

WGHT      0.0472      0.1988

REM Highest difference peak  0.241,  deepest hole -0.190,  1-sigma level  0.038
Q1    1   0.6204  0.2023  0.0859  11.00000  0.05    0.24
Q2    1   0.7863  0.4859 -0.1183  11.00000  0.05    0.23
Q3    1   0.6446  0.0989  0.1829  11.00000  0.05    0.21
Q4    1   0.7453  0.4389  0.0063  11.00000  0.05    0.21
Q5    1   0.5876  0.2706 -0.0217  11.00000  0.05    0.21
;
_shelx_res_checksum              75749
_shelx_hkl_file
;
  -1   0   0 317.695 5.44537   8
  -1   0   0 324.982 5.44913   5
  -1   0   0 315.682 5.31612   6
  -1   0   0 321.753 5.29395   1
  -1   0   0 322.760 5.53129   3
   1   0   0 319.343 5.29466   1
   1   0   0 324.045 5.50859   3
   1   0   0 311.203 5.51291  10
   1   0   0 315.135 5.57575   9
   1   0   0 324.322 5.47250   5
   1   0   0 312.584 5.30738   6
   1   0   0 309.814 5.45227   8
  -2   0   0 3476.60 56.0835   3
  -2   0   0 3520.04 56.1538  10
  -2   0   0 3520.60 56.2221   1
  -2   0   0 3602.52 57.0624   8
  -2   0   0 3537.78 56.2463   6
  -2   0   0 3575.39 56.3122   5
   2   0   0 3513.75 57.5196   8
   2   0   0 3615.67 56.4511   1
   2   0   0 3467.37 57.0679   3
   2   0   0 3571.82 56.4272   4
   2   0   0 3494.21 57.4759   9
   2   0   0 3528.45 57.0216   5
   2   0   0 3579.91 56.1213  10
  -3   0   0 717.682 12.5822  10
  -3   0   0 711.334 12.5079   3
  -3   0   0 715.587 11.9264   6
  -3   0   0 720.618 11.8386   1
  -3   0   0 720.017 12.3099   8
   3   0   0 720.518 12.0635   4
   3   0   0 698.493 12.3136   8
   3   0   0 712.482 11.8582   1
  -4   0   0 18.2832 1.68515   3
  -4   0   0 17.1030 1.21670   6
  -4   0   0 18.9822 1.76496  10
  -4   0   0 17.0687 1.12774   1
   4   0   0 17.0919 1.26867   4
   4   0   0 16.2049 1.17811   1
   4   0   0 14.4655 1.48442   8
  -5   0   0 12.5848 1.73716   3
  -5   0   0 14.2811 1.29009   6
  -5   0   0 13.9255 1.16952   1
  -5   0   0 13.6887 1.84780  10
   5   0   0 14.2130 1.66499   8
   5   0   0 12.9204 1.20068   1
  -6   0   0 4.48568 1.77229  10
  -6   0   0 2.51112 1.66459   3
  -6   0   0 2.01881 1.04821   6
   6   0   0 3.73961 1.09382   1
   6   0   0 1.67959 1.47728   8
  -7   0   0 58.6840 3.96693  10
  -7   0   0 56.1297 3.81656   3
  -7   0   0 54.6390 3.72856   7
  -7   0   0 55.8097 2.45980   6
   7   0   0 54.2963 2.44670   1
   7   0   0 44.4694 3.14451   8
  -8   0   0 18.3046 2.85201  10
  -8   0   0 17.3597 2.76501   7
  -8   0   0 15.7991 2.44582   2
  -8   0   0 13.5414 2.51494   3
   8   0   0 20.4502 2.61823   8
  -9   0   0 -2.8111 2.13423   3
  -9   0   0 -1.2340 1.92253   2
  -9   0   0 -1.3313 2.13868   7
  -9   0   0 0.71835 2.18367  10
   9   0   0 3.94256 2.22759   8
   9  -1   0 10.9650 2.46233   8
  -9   1   0 5.67061 2.45784   3
  -9   1   0 5.18466 2.50430  10
  -9   1   0 4.87665 2.17990   2
  -9   1   0 2.22900 2.29354   7
   8  -1   0 3.93161 1.98404   8
  -8   1   0 4.33441 2.19764  10
  -8   1   0 4.03090 2.22513   7
  -8   1   0 5.25235 1.94543   2
  -8   1   0 6.38960 2.30661   3
   7  -1   0 4.71461 1.91235   8
   7  -1   0 5.49050 1.41696   1
  -7   1   0 7.29074 2.00008   7
  -7   1   0 3.13092 2.00624  10
  -7   1   0 4.10222 1.90590   3
  -7   1   0 4.53071 1.38821   6
   6  -1   0 23.7130 1.81277   1
   6  -1   0 23.2174 2.28325   8
  -6   1   0 21.1431 2.37955   3
  -6   1   0 22.5785 1.81765   6
  -6   1   0 20.8680 2.39810  10
   5  -1   0 123.439 3.97024   8
   5  -1   0 130.257 3.45854   1
   5  -1   0 122.768 3.87884   5
  -5   1   0 126.320 3.50895   6
  -5   1   0 138.024 4.32370   3
  -5   1   0 115.651 4.19071  10
   4  -1   0 2124.63 34.8060   1
   4  -1   0 2147.87 35.3453   8
   4  -1   0 2176.85 35.3411   5
  -4   1   0 2180.71 35.6613   3
  -4   1   0 2096.41 34.7102   1
  -4   1   0 2197.90 34.9908   6
  -4   1   0 2171.88 35.6955  10
   3  -1   0 33.4855 1.69850   6
   3  -1   0 34.1401 1.87926   5
   3  -1   0 33.2836 2.11932   9
   3  -1   0 32.2852 1.95004   8
   3  -1   0 33.1789 1.63814   1
  -3   1   0 34.3218 1.58097   1
  -3   1   0 35.5037 1.76703   6
  -3   1   0 37.2862 2.15713  10
  -3   1   0 37.9694 2.11262   3
   2  -1   0 9984.55 156.350   6
   2  -1   0 9830.10 157.482   9
   2  -1   0 9711.87 156.206   1
   2  -1   0 9999.99 156.964   8
  -2   1   0 9685.99 157.066   9
  -2   1   0 9665.03 156.204   5
  -2   1   0 9873.69 157.878   3
  -2   1   0 9690.47 156.497   6
  -2   1   0 9614.77 157.099  10
  -2   1   0 9603.87 155.841   1
   1  -1   0 423.476 7.18979   3
   1  -1   0 419.149 7.07632   9
   1  -1   0 412.883 7.09016   1
   1  -1   0 410.848 7.16968  10
   1  -1   0 425.655 7.15472   6
   1  -1   0 414.363 7.10988   5
  -1   1   0 417.437 7.21689   3
  -1   1   0 415.072 7.07254   1
  -1   1   0 416.890 7.06348   9
  -1   1   0 423.207 7.22089  10
  -1   1   0 421.546 7.17425   6
   0  -1   0 59.1231 1.12914   2
   0  -1   0 57.8651 1.21565  10
   0  -1   0 58.9274 1.30767   5
   0  -1   0 56.1167 1.31639   1
   0  -1   0 57.0783 1.32820   6
   0   1   0 57.2152 1.12250   2
   0   1   0 59.4674 1.29141   5
   0   1   0 58.1735 1.37286   6
  -1  -1   0 221.607 3.70742   4
  -1  -1   0 221.567 4.02021   8
  -1  -1   0 223.278 3.99176  10
  -1  -1   0 227.505 4.01656   3
   1   1   0 232.132 4.05064   8
   1   1   0 225.561 3.99619  10
   1   1   0 223.245 3.98859   3
  -2  -1   0 285.266 5.21889   8
  -2  -1   0 278.854 5.42691   9
  -2  -1   0 277.038 5.30998  10
  -2  -1   0 280.887 5.29072   3
  -2  -1   0 278.385 4.78879   1
   2   1   0 283.011 5.26999   3
   2   1   0 284.033 5.23099   8
   2   1   0 282.564 5.28592  10
   2   1   0 281.341 4.72803   4
  -3  -1   0 38.9125 2.07214  10
  -3  -1   0 42.3718 1.83836   8
  -3  -1   0 42.0950 2.02678   3
  -3  -1   0 41.2592 1.35749   6
  -3  -1   0 40.9513 1.35146   1
   3   1   0 42.0684 1.38988   4
   3   1   0 44.1966 1.86467   8
   3   1   0 41.9697 1.39643   1
  -4  -1   0 36.3247 1.44061   6
  -4  -1   0 35.2806 2.31835  10
  -4  -1   0 37.9273 1.41694   1
  -4  -1   0 40.4727 2.25241   3
   4   1   0 35.4477 2.10872   8
   4   1   0 37.3498 1.45878   1
   4   1   0 37.2681 1.50724   4
  -5  -1   0 25.1445 1.42208   1
  -5  -1   0 24.2217 2.03795   3
  -5  -1   0 26.2039 1.46156   6
  -5  -1   0 28.2341 2.20275  10
   5   1   0 30.3449 2.28692   8
   5   1   0 27.8994 1.59001   4
   5   1   0 26.0469 1.47937   1
  -6  -1   0 150.128 3.42530   1
  -6  -1   0 157.727 5.05908  10
  -6  -1   0 146.902 4.80965   3
  -6  -1   0 146.095 3.49036   6
   6   1   0 156.892 3.55377   1
   6   1   0 154.176 4.60284   8
  -7  -1   0 34.1511 2.96470   2
  -7  -1   0 42.9567 3.37728   3
  -7  -1   0 37.9704 3.14410  10
  -7  -1   0 30.5275 2.92654   7
   7   1   0 40.7143 3.09632   8
  -8  -1   0 8.72796 2.30302   2
  -8  -1   0 12.1031 2.43614  10
  -8  -1   0 8.68067 2.31602   3
  -8  -1   0 12.5772 2.53118   7
   8   1   0 7.93254 2.14861   8
  -9  -1   0 4.78250 2.45098   3
  -9  -1   0 9.10381 2.67217   7
  -9  -1   0 3.03481 2.41130   2
  -9  -1   0 6.70141 2.55207  10
   9   1   0 8.37199 2.38085   8
   9  -2   0 3.73458 2.24312   8
  -9   2   0 0.87047 2.00345   2
  -9   2   0 3.80752 2.38235   7
  -9   2   0 -1.1372 2.17040  10
  -9   2   0 0.49279 2.19618   3
   8  -2   0 68.6935 4.25264   8
  -8   2   0 71.1479 4.84213  10
  -8   2   0 75.1611 4.43006   7
  -8   2   0 73.1191 4.74341   3
  -8   2   0 69.9660 4.05731   2
   7  -2   0 27.8280 2.82378   8
   7  -2   0 28.6192 2.21114   1
  -7   2   0 19.7372 2.67475   3
  -7   2   0 27.9352 2.32200   6
  -7   2   0 30.0673 2.82507   7
  -7   2   0 30.0559 3.08532  10
   6  -2   0 537.532 11.0579   8
   6  -2   0 521.198 10.9393   5
   6  -2   0 524.805 10.2883   1
  -6   2   0 534.541 10.4480   6
  -6   2   0 552.143 11.6096  10
  -6   2   0 527.116 11.3631   3
   5  -2   0 34.8994 2.21006   1
   5  -2   0 36.9138 2.59680   8
   5  -2   0 36.9787 2.68569   5
  -5   2   0 36.9122 2.70690  10
  -5   2   0 37.4293 2.29108   6
  -5   2   0 37.3044 2.75399   3
   4  -2   0 1774.17 29.9752   8
   4  -2   0 1809.67 29.6183   1
   4  -2   0 1781.19 29.9065   5
  -4   2   0 1783.67 29.7373   6
  -4   2   0 1809.21 30.2843   3
  -4   2   0 1851.25 30.4223  10
   3  -2   0 93.1919 2.78840   1
   3  -2   0 93.6546 2.98118   9
   3  -2   0 92.1103 2.89816   5
  -3   2   0 94.6567 2.87402   6
  -3   2   0 88.4606 3.14035  10
  -3   2   0 94.6504 3.08928   3
   2  -2   0 1526.69 24.5768   6
   2  -2   0 1531.29 24.4670   9
   2  -2   0 1489.78 24.5083   5
   2  -2   0 1509.80 24.4902   1
   2  -2   0 1505.83 24.6518   3
   2  -2   0 1495.54 24.6240  10
  -2   2   0 1477.49 24.3742   9
  -2   2   0 1506.23 24.5956   6
  -2   2   0 1479.34 24.6871   3
  -2   2   0 1492.97 24.4074   1
  -2   2   0 1509.00 24.6846  10
   1  -2   0 760.328 12.8907   5
   1  -2   0 779.729 12.9200  10
   1  -2   0 785.197 12.9855   1
   1  -2   0 763.634 12.6221   9
  -1   2   0 774.326 12.8913   5
  -1   2   0 799.601 12.3991   2
  -1   2   0 756.540 12.9814   3
  -1   2   0 765.781 12.9249  10
  -1   2   0 786.974 12.9369   1
  -1   2   0 780.359 12.6177   9
  -1   2   0 784.609 13.0679   6
   0  -2   0 882.360 13.9268   2
   0  -2   0 877.408 14.3155   6
   0  -2   0 870.196 14.0733  10
   0  -2   0 876.741 14.1981   3
   0  -2   0 862.537 13.7694   7
   0  -2   0 860.126 14.2066   5
   0  -2   0 865.989 14.2829   1
   0   2   0 863.950 14.3118   6
   0   2   0 866.462 14.1910   5
   0   2   0 883.537 13.7694   7
   0   2   0 876.324 13.9200   2
  -1  -2   0 0.71467 0.74078   8
  -1  -2   0 0.58535 0.65642   6
  -1  -2   0 1.25642 0.74094   2
  -1  -2   0 0.01600 0.59213   7
   1   2   0 2.04890 0.71635   6
  -2  -2   0 1121.99 18.0466   8
  -2  -2   0 1112.56 17.4257   4
  -2  -2   0 1098.61 17.9805  10
  -2  -2   0 1088.52 18.1863   9
  -2  -2   0 1013.98 17.5799   6
  -2  -2   0 1098.37 18.0063   3
   2   2   0 1088.37 17.9676  10
   2   2   0 1117.55 17.9751   3
   2   2   0 1144.26 18.0696   8
  -3  -2   0 6.11523 1.05215  10
  -3  -2   0 7.42993 0.75581   1
  -3  -2   0 6.67246 1.05913   3
   3   2   0 8.45112 1.00884  10
   3   2   0 7.13080 1.11377   8
   3   2   0 5.15533 0.92326   3
  -4  -2   0 138.793 2.89439   1
  -4  -2   0 137.249 3.82451   3
  -4  -2   0 143.871 3.90956  10
   4   2   0 141.232 3.73644   8
  -5  -2   0 8.39732 1.61973  10
  -5  -2   0 10.0762 0.92008   1
  -5  -2   0 9.43038 1.61259   3
  -5  -2   0 8.51130 1.64333   7
  -5  -2   0 10.5612 0.87124   6
   5   2   0 9.08200 0.81959   4
   5   2   0 9.93826 1.54561   8
  -6  -2   0 5.37739 1.66193   7
  -6  -2   0 4.82526 0.81994   6
  -6  -2   0 5.64535 1.69099  10
  -6  -2   0 5.67097 1.65291   3
   6   2   0 6.08290 1.66191   8
   6   2   0 4.42139 0.82669   4
  -7  -2   0 27.1500 2.68811  10
  -7  -2   0 29.2690 2.83551   2
  -7  -2   0 26.4440 2.66664   3
  -7  -2   0 21.4066 2.57496   7
   7   2   0 24.0242 2.45089   8
  -8  -2   0 2.13355 1.97516   3
  -8  -2   0 3.75133 2.08635  10
  -8  -2   0 -0.8315 2.01660   2
  -8  -2   0 4.71975 2.03766   7
   8   2   0 2.53362 1.91953   8
  -9  -2   0 23.0674 3.23661   2
  -9  -2   0 21.9905 3.07863   7
  -9  -2   0 22.9233 3.17475  10
  -9  -2   0 28.2658 3.26229   3
   9   2   0 22.5534 2.87961   8
   8  -3   0 163.297 5.95470   8
   8  -3   0 158.788 5.09120   1
  -8   3   0 157.491 5.21469   6
  -8   3   0 154.067 5.33763   2
  -8   3   0 158.411 6.09752   7
  -8   3   0 157.772 6.27621   3
  -8   3   0 159.730 6.37100  10
   7  -3   0 2.08388 1.92262   8
   7  -3   0 0.95059 1.77078   5
   7  -3   0 -1.0233 1.46297   1
  -7   3   0 0.76783 1.68502   7
  -7   3   0 3.19724 1.56765   6
  -7   3   0 -3.9647 1.81978  10
  -7   3   0 0.09566 1.82800   3
   6  -3   0 970.976 17.5822   1
   6  -3   0 984.207 18.2358   8
   6  -3   0 970.644 18.1276   5
  -6   3   0 983.718 18.7014   3
  -6   3   0 980.953 18.7116  10
  -6   3   0 980.597 17.7726   6
   5  -3   0 26.6097 2.10749   1
   5  -3   0 31.4177 2.59373   8
   5  -3   0 29.8690 2.35878   5
  -5   3   0 26.4051 2.56920   3
  -5   3   0 33.0449 2.46259   6
  -5   3   0 28.9530 2.56942  10
   4  -3   0 309.646 6.53227   1
   4  -3   0 298.676 6.62513   5
   4  -3   0 295.166 6.59596   9
   4  -3   0 303.086 6.73632   8
  -4   3   0 305.853 6.97375   3
  -4   3   0 296.368 6.93346  10
  -4   3   0 292.832 6.56109   6
   3  -3   0 454.046 8.74056   5
   3  -3   0 457.921 8.64125   9
   3  -3   0 458.470 8.72114   1
  -3   3   0 454.999 9.01510   3
  -3   3   0 457.580 8.97578  10
  -3   3   0 458.649 8.87488   6
   2  -3   0 115.200 3.24838   1
   2  -3   0 109.579 2.82875   9
   2  -3   0 115.932 3.14950   5
  -2   3   0 121.555 2.84700   9
  -2   3   0 116.548 2.42293   2
  -2   3   0 115.341 3.29532  10
  -2   3   0 109.727 3.25579   6
  -2   3   0 119.142 3.39884   3
   1  -3   0 389.747 7.30551   5
   1  -3   0 400.504 6.78415   9
   1  -3   0 422.125 6.54075   2
   1  -3   0 396.561 7.34256   3
   1  -3   0 391.373 7.42624   1
   1  -3   0 402.706 7.23510  10
  -1   3   0 386.910 6.52119   2
  -1   3   0 382.978 7.36954   3
  -1   3   0 402.001 6.76510   9
  -1   3   0 396.409 7.50044   6
  -1   3   0 408.180 7.73025   1
  -1   3   0 394.685 7.27049  10
   0  -3   0 616.094 10.5852   5
   0  -3   0 614.325 10.3684  10
   0  -3   0 621.032 10.6981   1
   0  -3   0 614.360 10.5349   3
   0  -3   0 615.494 10.1382   2
   0  -3   0 620.539 10.7257   6
   0  -3   0 624.645 9.90044   7
   0   3   0 614.947 10.7380   6
   0   3   0 618.605 10.5527   5
   0   3   0 627.047 10.1348   2
   0   3   0 616.553 9.89007   7
  -1  -3   0 128.159 2.68408   7
  -1  -3   0 129.720 2.95492   2
  -1  -3   0 129.599 3.02089   5
  -1  -3   0 128.963 2.97688   6
   1   3   0 121.917 3.02730   6
  -2  -3   0 4.55087 0.99368   9
  -2  -3   0 5.51795 0.95300   3
  -2  -3   0 3.50934 1.04877   2
  -2  -3   0 6.14568 0.73094   4
  -2  -3   0 5.84333 0.86735   6
  -2  -3   0 4.76989 1.01941   8
  -2  -3   0 5.08367 0.88930  10
  -2  -3   0 5.13966 0.96554   7
  -3  -3   0 4.96165 1.02367   3
  -3  -3   0 6.23420 0.73893   6
  -3  -3   0 5.11853 1.11891   7
  -3  -3   0 5.87298 1.01474  10
  -3  -3   0 4.44668 1.22908   2
   3   3   0 6.42860 1.18396   8
  -4  -3   0 40.3743 2.18034  10
  -4  -3   0 39.5043 2.37433   7
  -4  -3   0 41.1645 2.27120   3
  -4  -3   0 42.5322 1.54786   1
  -4  -3   0 41.9871 1.38003   6
   4   3   0 36.7496 2.24251   8
  -5  -3   0 19.8273 1.90906   3
  -5  -3   0 15.6505 1.91305   7
  -5  -3   0 17.1663 1.82044  10
  -5  -3   0 20.9759 1.10561   6
  -5  -3   0 18.6562 2.09400   2
  -5  -3   0 21.4315 1.27584   1
   5   3   0 22.6904 1.92998   8
  -6  -3   0 15.5603 2.18895   7
  -6  -3   0 19.0855 2.40517   2
  -6  -3   0 23.9448 2.31405  10
  -6  -3   0 17.5382 2.07928   3
   6   3   0 21.8356 2.17377   8
  -7  -3   0 27.3011 2.71989  10
  -7  -3   0 32.0956 2.76878   3
  -7  -3   0 39.3749 3.28863   7
  -7  -3   0 34.6659 3.08230   2
   7   3   0 31.2319 2.70401   8
  -8  -3   0 39.4358 3.47776   7
  -8  -3   0 37.1578 3.60135   2
  -8  -3   0 41.6846 3.35588   3
  -8  -3   0 38.8154 3.33293  10
   8   3   0 40.0433 3.20396   8
  -9  -3   0 39.7155 3.83102   7
  -9  -3   0 41.7843 3.65687   3
  -9  -3   0 38.6907 3.90480   2
  -9  -3   0 44.4563 3.75414  10
   9   3   0 35.8944 3.37696   8
   8  -4   0 263.579 7.94031   8
   8  -4   0 260.191 7.80450   5
   8  -4   0 248.555 6.94224   1
  -8   4   0 262.013 7.27590   6
  -8   4   0 251.195 8.20780   3
  -8   4   0 254.086 8.32120  10
  -8   4   0 253.290 6.94094   2
  -8   4   0 260.086 7.74248   7
   7  -4   0 152.264 5.61798   5
   7  -4   0 158.786 5.70987   8
   7  -4   0 144.340 4.98741   1
  -7   4   0 159.755 4.87996   2
  -7   4   0 155.070 5.98647   3
  -7   4   0 151.666 5.28452   6
  -7   4   0 152.161 6.01896  10
  -7   4   0 156.476 5.46413   7
   6  -4   0 39.9262 3.04279   5
   6  -4   0 44.9481 3.34197   8
   6  -4   0 43.0086 3.06848   1
  -6   4   0 41.5883 3.26327  10
  -6   4   0 35.5895 3.00125   3
  -6   4   0 35.7002 2.80110   6
   5  -4   0 101.159 4.10785   8
   5  -4   0 97.4609 3.76639   1
   5  -4   0 102.741 3.91296   5
  -5   4   0 105.505 4.33672   3
  -5   4   0 94.6356 3.87942   6
  -5   4   0 104.197 4.43108  10
   4  -4   0 65.9579 3.15375   5
   4  -4   0 66.5555 3.00124   1
  -4   4   0 65.3872 3.36456  10
  -4   4   0 58.8577 3.23773   3
  -4   4   0 72.0075 3.22092   6
   3  -4   0 443.843 8.75504   1
   3  -4   0 441.606 8.32017   9
   3  -4   0 431.409 8.60728   5
  -3   4   0 440.209 8.83304  10
  -3   4   0 424.491 7.62765   2
  -3   4   0 435.590 8.85699   6
  -3   4   0 433.904 8.92345   3
   2  -4   0 11.6989 1.49398   1
   2  -4   0 11.7116 1.08283   9
   2  -4   0 8.20392 1.34245   5
  -2   4   0 8.59745 1.32155  10
  -2   4   0 9.21463 1.38456   3
  -2   4   0 10.2016 1.43120   6
  -2   4   0 11.0205 1.05538   9
  -2   4   0 10.0258 0.72202   2
   1  -4   0 28.3529 1.92258   1
   1  -4   0 24.9382 1.16516   9
   1  -4   0 32.6878 1.71150  10
   1  -4   0 25.9565 1.88600   5
   1  -4   0 28.0469 0.98220   2
  -1   4   0 26.0454 1.76981  10
  -1   4   0 25.4967 1.95960   6
  -1   4   0 26.8095 1.01848   7
  -1   4   0 28.2001 0.95861   2
  -1   4   0 28.0442 1.90001   3
   0  -4   0 291.818 5.84023   5
   0  -4   0 300.126 5.58456  10
   0  -4   0 297.239 5.78663   3
   0  -4   0 298.609 5.28586   2
   0  -4   0 293.813 5.98445   1
   0   4   0 291.285 6.03344   6
  -1  -4   0 89.1175 2.07961   7
  -1  -4   0 86.5918 2.42326   2
  -1  -4   0 83.9203 2.59505   1
  -1  -4   0 87.1618 2.61019   6
  -1  -4   0 83.7563 2.59890   5
   1   4   0 83.4675 2.65141   6
  -2  -4   0 55.8390 1.97975   9
  -2  -4   0 45.4733 1.78982  10
  -2  -4   0 46.9525 1.88308   7
  -2  -4   0 46.9377 2.03779   5
  -2  -4   0 46.2397 2.13787   2
  -3  -4   0 5.78504 1.11392   3
  -3  -4   0 5.89941 1.13484   7
  -3  -4   0 8.15049 1.06040  10
  -3  -4   0 9.09658 0.98682   6
  -3  -4   0 7.79241 0.75235   4
  -3  -4   0 5.94039 1.30320   2
  -4  -4   0 182.545 4.99177   2
  -4  -4   0 185.467 4.56084   3
  -4  -4   0 181.284 4.44738  10
  -4  -4   0 179.771 4.75036   7
  -4  -4   0 185.459 3.72801   6
   4   4   0 182.951 4.66218   8
  -5  -4   0 3.41012 1.49676   7
  -5  -4   0 4.57677 1.62592   2
  -5  -4   0 3.81045 0.71329   6
  -5  -4   0 3.97883 1.40989   3
  -5  -4   0 3.81536 0.85040   1
  -5  -4   0 3.13027 1.32656  10
   5   4   0 3.45962 1.45435   8
  -6  -4   0 72.5437 3.54079   3
  -6  -4   0 72.3817 3.53344  10
  -6  -4   0 70.0710 3.72412   7
  -6  -4   0 70.4541 4.08839   2
   6   4   0 78.6780 3.53423   8
  -7  -4   0 52.0638 4.21451   2
  -7  -4   0 56.3233 3.96714   7
  -7  -4   0 61.5466 3.68306  10
  -7  -4   0 53.4558 3.44578   3
   7   4   0 58.6480 3.52901   8
  -8  -4   0 339.148 9.54077   2
  -8  -4   0 341.713 8.74203   3
  -8  -4   0 349.669 8.86804  10
  -8  -4   0 344.834 9.27749   7
   8  -5   0 3.28492 2.05451   1
   8  -5   0 3.39931 2.49512   8
   8  -5   0 -3.6353 2.00593   5
  -8   5   0 -0.7633 2.13688   3
  -8   5   0 -2.0810 1.74761   6
  -8   5   0 0.53480 2.31074  10
  -8   5   0 1.23600 1.95073   7
   7  -5   0 4.27812 1.91224   1
   7  -5   0 7.22215 2.29246   8
   7  -5   0 7.68092 2.19111   5
  -7   5   0 9.43926 2.08448   7
  -7   5   0 7.42961 2.07567   6
  -7   5   0 4.72542 2.31609  10
  -7   5   0 4.18689 2.28662   3
   6  -5   0 88.9145 4.10255   1
   6  -5   0 90.3473 4.42549   8
   6  -5   0 89.0928 4.31337   5
  -6   5   0 91.8422 4.79702  10
  -6   5   0 94.7513 4.71314   3
  -6   5   0 90.2351 4.20199   6
   5  -5   0 110.111 4.27655   1
   5  -5   0 105.764 4.24961   5
  -5   5   0 115.110 4.47901   6
  -5   5   0 110.997 4.76413  10
  -5   5   0 112.349 4.70647   3
   4  -5   0 1.43343 1.43916   5
   4  -5   0 1.89030 1.51965   1
  -4   5   0 1.37950 1.55615  10
  -4   5   0 0.66340 1.57310   3
  -4   5   0 -1.0733 1.30746   6
  -4   5   0 -0.1920 0.79457   2
   3  -5   0 32.6546 2.41518   5
   3  -5   0 36.4914 2.03300   9
   3  -5   0 34.4700 2.55138   1
  -3   5   0 35.6278 1.45741   2
  -3   5   0 34.9757 2.59866   3
  -3   5   0 31.0551 2.36840   6
  -3   5   0 38.5181 2.68545  10
   2  -5   0 23.6283 1.85387   5
   2  -5   0 21.9367 1.44618   9
   2  -5   0 18.3154 1.79933   1
  -2   5   0 18.7263 1.23156   7
  -2   5   0 17.8886 1.83633   6
  -2   5   0 21.5563 1.36650   9
  -2   5   0 19.1684 1.80914   3
  -2   5   0 21.3766 1.73910  10
   1  -5   0 26.3635 1.02501   2
   1  -5   0 25.3811 1.11945   9
   1  -5   0 23.4397 1.76674   5
   1  -5   0 26.4879 1.98615   1
  -1   5   0 26.2198 0.99296   2
  -1   5   0 26.1302 1.87093  10
  -1   5   0 23.5306 1.86591   6
   0  -5   0 241.752 5.22733   5
   0  -5   0 235.348 5.38365   1
   0  -5   0 241.457 4.54404   2
   0  -5   0 238.008 4.88570  10
   0   5   0 238.157 5.52722   6
  -1  -5   0 120.438 2.85692  10
  -1  -5   0 116.580 3.27791   5
  -1  -5   0 116.304 2.54624   7
  -1  -5   0 112.856 3.26936   1
  -1  -5   0 115.909 2.96680   2
   1   5   0 109.371 3.36222   6
  -2  -5   0 176.482 3.92635   9
  -2  -5   0 173.595 4.17478   1
  -2  -5   0 169.912 4.20978   5
  -2  -5   0 174.054 3.84806   7
  -2  -5   0 177.062 4.24996   2
  -3  -5   0 0.75953 1.19570   2
  -3  -5   0 0.88387 0.97520   7
  -3  -5   0 1.84675 0.89128  10
  -3  -5   0 -0.6534 0.71002   4
  -3  -5   0 1.79006 0.99462   3
  -4  -5   0 13.1489 1.54921   3
  -4  -5   0 13.4647 1.66948   7
  -4  -5   0 15.8575 1.55118  10
  -4  -5   0 13.9626 1.88747   2
  -4  -5   0 15.0153 1.22369   6
  -5  -5   0 18.2556 2.29674   2
  -5  -5   0 18.3782 1.90880   3
  -5  -5   0 20.2084 2.09497   7
  -5  -5   0 15.8506 1.75254  10
  -6  -5   0 476.739 10.4360   7
  -6  -5   0 469.582 9.79494  10
  -6  -5   0 460.093 9.87221   3
  -6  -5   0 477.403 10.8112   2
   6   5   0 460.912 9.97737   8
  -7  -5   0 4.17868 1.85346  10
  -7  -5   0 1.47370 1.89955   2
  -7  -5   0 3.50239 1.97680   7
  -7  -5   0 2.07478 1.71058   3
   7   5   0 2.48661 1.88836   8
  -8  -5   0 96.0449 5.31414   2
  -8  -5   0 91.9823 5.00194   7
  -8  -5   0 88.5681 4.52451  10
  -8  -5   0 97.0010 4.59379   3
   8   5   0 92.4002 4.61357   8
   7  -6   0 2.14464 2.02619   5
   7  -6   0 3.49570 2.49722   8
   7  -6   0 6.61136 2.18603   1
  -7   6   0 -0.5364 2.19609   3
  -7   6   0 1.98784 2.07189   6
  -7   6   0 -0.7039 2.12506  10
  -7   6   0 4.98068 1.90259   7
   6  -6   0 106.185 5.00076   8
   6  -6   0 107.870 4.81097   5
   6  -6   0 109.399 4.72649   1
  -6   6   0 116.911 5.43551   3
  -6   6   0 120.171 4.34700   7
  -6   6   0 103.885 5.21812  10
  -6   6   0 101.918 4.81016   6
   5  -6   0 3.66550 1.80600   1
   5  -6   0 0.32931 1.68434   5
  -5   6   0 -2.1241 1.61988   6
  -5   6   0 -0.1638 1.74445   3
  -5   6   0 0.58703 1.71241  10
   4  -6   0 4.93558 1.85843   1
   4  -6   0 4.25439 1.74377   5
  -4   6   0 4.70663 1.76440  10
  -4   6   0 3.66323 1.77808   6
  -4   6   0 4.28072 1.79036   3
   3  -6   0 64.0762 3.31881   1
   3  -6   0 62.2581 3.13810   5
  -3   6   0 60.6130 3.38964   3
  -3   6   0 61.0759 3.32460   6
  -3   6   0 67.1931 3.29556  10
   2  -6   0 18.4072 1.93763   5
   2  -6   0 15.1462 1.16218   9
   2  -6   0 9.72529 1.69511   1
  -2   6   0 17.9073 1.81108  10
  -2   6   0 16.8538 2.05415   6
  -2   6   0 17.0593 1.15475   7
   1  -6   0 10.6813 1.61604   5
   1  -6   0 11.6304 1.76374   1
   1  -6   0 11.6617 0.91223   2
  -1   6   0 7.46832 1.48436   6
   0  -6   0 23.1544 1.98625   1
   0  -6   0 21.6752 1.83035   5
   0  -6   0 21.8433 1.40218   2
   0   6   0 21.8726 1.93499   6
  -1  -6   0 71.6020 2.86190   5
  -1  -6   0 70.8459 1.87803   7
  -1  -6   0 74.9583 2.97467   1
  -1  -6   0 69.9010 2.41143   2
  -1  -6   0 69.2667 2.29198  10
  -2  -6   0 81.8403 3.07131   5
  -2  -6   0 83.6339 2.52194   9
  -2  -6   0 79.9708 2.95274   2
  -2  -6   0 85.7557 3.03911   1
  -2  -6   0 80.8691 2.48108   7
  -3  -6   0 40.1672 2.28822   1
  -3  -6   0 36.8190 2.41258   5
  -3  -6   0 35.6672 2.09953   7
  -3  -6   0 36.1031 1.97646  10
  -3  -6   0 38.4965 2.53455   2
  -3  -6   0 36.6821 1.93573   4
  -3  -6   0 36.4510 2.28048   3
  -4  -6   0 796.497 14.5476   3
  -4  -6   0 817.026 14.2860  10
  -4  -6   0 811.997 15.3102   2
  -4  -6   0 808.254 14.2218   1
  -4  -6   0 819.738 14.7815   7
  -4  -6   0 785.158 13.4874   4
  -5  -6   0 50.6147 2.69239  10
  -5  -6   0 49.7855 3.52156   2
  -5  -6   0 48.8855 2.84642   3
  -5  -6   0 46.5621 2.26508   1
  -5  -6   0 48.9884 3.06908   7
  -6  -6   0 127.947 4.48539   3
  -6  -6   0 114.535 5.12011   2
  -6  -6   0 122.897 4.27790  10
  -6  -6   0 125.757 4.80650   7
  -7  -6   0 -1.2223 2.02494   2
  -7  -6   0 3.36245 1.68020  10
  -7  -6   0 2.66386 1.92325   7
  -7  -6   0 -1.2709 1.62197   3
  -8  -6   0 7.30936 2.48580   7
  -8  -6   0 10.6490 2.85008   2
   7  -7   0 1.92100 2.40129   8
   7  -7   0 1.59551 2.16825   1
   7  -7   0 -1.9810 1.96996   5
  -7   7   0 1.38502 2.00562   6
  -7   7   0 0.67751 2.44668   3
  -7   7   0 1.75801 2.41137  10
   6  -7   0 59.7891 4.38937   8
   6  -7   0 62.1468 4.11465   1
   6  -7   0 56.3785 4.09784   5
  -6   7   0 59.0603 4.34226   6
  -6   7   0 52.4438 4.18384   3
  -6   7   0 60.9649 4.52877  10
   5  -7   0 5.09494 2.04679   5
   5  -7   0 5.04339 2.13854   1
  -5   7   0 2.12116 1.98276  10
  -5   7   0 2.22175 2.04863   3
  -5   7   0 5.83595 1.44789   7
  -5   7   0 4.45883 2.04758   6
   4  -7   0 4.85958 1.85724   5
   4  -7   0 3.04775 1.92932   1
  -4   7   0 6.68538 1.20827   7
  -4   7   0 5.06327 1.81819  10
  -4   7   0 5.37890 1.94710   3
  -4   7   0 2.06662 1.82149   6
   3  -7   0 59.9344 3.64603   1
   3  -7   0 59.8961 3.35767   5
  -3   7   0 57.6499 3.46383   3
  -3   7   0 57.1380 3.67429   6
  -3   7   0 60.7354 3.39425  10
   2  -7   0 2.03622 1.68316   1
   2  -7   0 4.44768 1.64619   5
  -2   7   0 6.23889 1.71128   6
  -2   7   0 3.52369 1.44425  10
   1  -7   0 1.89886 1.53102   1
   1  -7   0 1.43935 1.44226   5
  -1   7   0 0.93103 1.47764   6
   0  -7   0 187.722 5.11234   5
   0  -7   0 193.230 5.41498   1
   0  -7   0 191.744 4.07191   2
   0   7   0 198.908 5.46484   6
  -1  -7   0 5.41989 0.74262   9
  -1  -7   0 5.62075 1.56372   1
  -1  -7   0 4.62873 1.11103   2
  -1  -7   0 3.97072 0.69253   7
  -1  -7   0 3.84933 1.41280   5
   1   7   0 6.93180 1.54515   6
  -2  -7   0 333.500 6.32989   7
  -2  -7   0 326.865 7.26765   1
  -2  -7   0 344.051 7.07683   2
  -2  -7   0 327.319 7.24789   5
  -2  -7   0 315.548 6.34448   9
  -3  -7   0 6.03411 1.17166  10
  -3  -7   0 4.17170 1.52216   5
  -3  -7   0 1.18913 1.40426   2
  -3  -7   0 2.86411 1.36709   3
  -3  -7   0 3.85387 1.22444   4
  -3  -7   0 4.83595 1.41812   1
  -3  -7   0 1.00491 1.08085   7
  -4  -7   0 2.18147 1.01229   4
  -4  -7   0 3.25060 1.34291   3
  -4  -7   0 3.82387 1.61416   2
  -4  -7   0 2.46052 1.15739  10
  -4  -7   0 2.93826 1.29786   7
  -4  -7   0 3.83232 1.39861   1
  -4  -7   0 2.42115 1.47892   5
  -5  -7   0 42.1736 2.98609   7
  -5  -7   0 39.8439 2.53775  10
  -5  -7   0 41.5233 2.44308   1
  -5  -7   0 40.7035 2.81222   3
  -5  -7   0 41.5922 3.15568   2
  -5  -7   0 46.6644 2.96577   5
  -6  -7   0 6.15498 2.13184   2
  -6  -7   0 5.62283 1.71678   3
  -6  -7   0 7.38496 1.87082   7
  -7  -7   0 28.8796 3.29003   2
  -7  -7   0 32.3564 3.10120   7
   6  -8   0 1.05173 2.16739   1
   6  -8   0 1.80049 2.11048   5
  -6   8   0 -1.3209 2.11956   6
  -6   8   0 1.74919 2.29228   3
  -6   8   0 3.29007 2.37836  10
   5  -8   0 2.82866 2.17377   1
   5  -8   0 4.60458 2.12707   5
  -5   8   0 3.49276 2.28048   3
  -5   8   0 0.34337 1.89943  10
  -5   8   0 10.4207 2.57751   6
   4  -8   0 26.7325 2.98943   1
   4  -8   0 17.8480 2.51044   5
  -4   8   0 20.3096 2.54163  10
  -4   8   0 18.9606 2.73444   6
   3  -8   0 3.81593 1.77051   5
   3  -8   0 4.51780 1.96585   1
  -3   8   0 7.45433 2.12981   6
  -3   8   0 1.76646 1.56917  10
   2  -8   0 8.97958 1.99040   5
   2  -8   0 7.27588 2.06505   1
  -2   8   0 7.00800 1.98082   6
   1  -8   0 22.8884 2.54529   1
   1  -8   0 18.4691 2.20920   5
  -1   8   0 16.7393 2.25711   6
   0  -8   0 126.802 4.37693   5
   0  -8   0 132.629 4.75077   1
   0  -8   0 128.277 3.15374   2
   0   8   0 118.290 4.67341   6
  -1  -8   0 23.4648 2.44311   1
  -1  -8   0 16.1421 1.55056   2
  -1  -8   0 19.0848 2.09358   5
   1   8   0 21.0001 2.27182   6
  -2  -8   0 28.1227 2.11080   2
  -2  -8   0 23.2066 1.59193   7
  -2  -8   0 23.0316 2.31626   5
  -2  -8   0 25.2080 2.36295   1
  -3  -8   0 -3.2182 1.15887   3
  -3  -8   0 0.86751 1.38001   2
  -3  -8   0 0.89539 1.04309  10
  -3  -8   0 1.54580 1.50269   5
  -3  -8   0 -0.0077 1.00238   7
  -3  -8   0 -1.2957 1.14977   4
  -3  -8   0 0.33335 1.44740   1
  -4  -8   0 8.81640 1.86491   5
  -4  -8   0 7.79446 1.82953   2
  -4  -8   0 9.93970 1.72110   1
  -4  -8   0 9.33606 1.54531   7
  -4  -8   0 8.02667 1.60457   3
  -5  -8   0 207.658 5.77958   7
  -5  -8   0 207.980 5.67962   3
  -5  -8   0 212.010 6.45371   2
  -5  -8   0 197.357 5.93520   5
  -6  -8   0 0.85789 1.85684   2
  -6  -8   0 3.25493 1.76384   5
  -6  -8   0 2.18245 1.70500   7
  -7  -8   0 0.41660 1.91528   7
  -7  -8   0 4.54358 1.86230   5
  -7  -8   0 1.51592 2.10882   2
   5  -9   0 1.13167 2.04192   5
   5  -9   0 1.07705 2.20853   1
  -5   9   0 4.24149 2.46395   6
  -5   9   0 -2.5343 1.81251  10
   4  -9   0 2.05085 1.99728   5
   4  -9   0 2.16492 2.05255   1
  -4   9   0 0.20399 1.84760  10
  -4   9   0 -1.0271 1.93673   6
   3  -9   0 29.0537 3.17290   1
   3  -9   0 34.7404 3.09234   5
  -3   9   0 30.1502 3.12374   6
   2  -9   0 151.088 5.77444   1
   2  -9   0 156.703 5.42782   5
  -2   9   0 150.796 5.70198   6
   1  -9   0 0.66875 1.82433   1
   1  -9   0 3.65867 1.77453   5
  -1   9   0 1.01963 1.69826   6
   0  -9   0 5.28630 1.81663   5
   0  -9   0 6.11731 2.01881   1
   0   9   0 4.36052 1.91301   6
  -1  -9   0 -2.5103 1.32170   2
  -1  -9   0 -0.9567 1.54953   5
  -1  -9   0 0.26785 1.74968   1
   1   9   0 -0.2949 1.59325   6
  -2  -9   0 1.84385 1.69808   5
  -2  -9   0 -0.0209 1.30644   2
  -2  -9   0 -0.8811 1.70582   1
  -3  -9   0 76.6835 3.82053   5
  -3  -9   0 71.2509 3.59891   4
  -3  -9   0 85.8474 3.66822   2
  -3  -9   0 84.7308 3.47402   3
  -3  -9   0 79.0172 3.80342   1
  -4  -9   0 1.77882 1.70958   2
  -4  -9   0 1.40966 1.59730   1
  -4  -9   0 2.32121 1.73071   5
  -5  -9   0 12.3743 2.26775   2
  -5  -9   0 10.5891 2.18272   5
  -6  -9   0 -0.4592 1.74251   5
  -6  -9   0 -3.6858 1.79420   2
   4 -10   0 97.9485 4.97170   5
   4 -10   0 91.8570 5.27541   1
  -4  10   0 94.2854 5.35232   6
   3 -10   0 17.0492 2.76435   1
   3 -10   0 19.2854 2.79736   5
  -3  10   0 13.8628 2.75510   6
   2 -10   0 13.3512 2.75294   1
   2 -10   0 8.76740 2.26351   5
  -2  10   0 11.1148 2.59077   6
   1 -10   0 11.9094 2.37506   5
   1 -10   0 8.13589 2.40887   1
  -1  10   0 14.2836 2.50336   6
   0 -10   0 0.73542 1.99062   1
   0 -10   0 -1.3186 1.66847   5
   0  10   0 0.64619 1.88355   6
  -1 -10   0 40.3226 3.37743   1
  -1 -10   0 38.2878 3.13296   5
  -2 -10   0 -2.3618 1.68762   5
  -2 -10   0 0.58260 1.88464   1
  -3 -10   0 1.40998 1.80267   5
  -3 -10   0 -0.7093 1.77067   1
  -4 -10   0 8.09286 2.02551   1
  -4 -10   0 4.61799 2.02770   5
  -4 -10   0 4.51983 1.83780   2
  -5 -10   0 1.56526 1.90499   5
  -5 -10   0 -2.5889 1.82225   2
   2 -11   0 12.2703 2.88371   1
   2 -11   0 11.7627 2.56159   5
  -2  11   0 8.56002 2.59944   6
   1 -11   0 102.001 4.89307   5
   1 -11   0 98.1030 5.37874   1
  -1  11   0 99.5081 5.21021   6
   0 -11   0 1.76954 2.02883   5
   0 -11   0 0.33758 2.30581   1
   0  11   0 2.10314 2.05147   6
  -1 -11   0 -0.0392 2.08180   1
  -1 -11   0 2.68266 1.90995   5
  -2 -11   0 43.3552 3.58198   1
  -2 -11   0 36.1045 3.30972   5
  -3 -11   0 33.3817 3.22616   5
  -3 -11   0 34.2611 3.26008   1
  -2 -11   1 55.6457 4.17508   1
  -2 -11   1 55.2759 3.84770   5
  -1 -11   1 -1.5253 2.04908   1
  -1 -11   1 1.36498 1.95417   5
   0 -11   1 7.95891 2.55163   1
   0 -11   1 7.47664 2.16827   5
   1 -11   1 10.2059 2.58264   1
   1 -11   1 17.1770 2.61073   5
  -2  11  -1 38.6243 3.83657   6
   2 -11   1 39.6805 3.91012   1
   2 -11   1 35.6842 3.42463   5
  -4 -10   1 31.9072 2.95595   5
  -3 -10   1 -0.0486 1.79870   1
  -3 -10   1 0.80233 1.83823   5
  -2 -10   1 -0.2318 1.85665   1
  -2 -10   1 2.42320 1.81654   4
  -2 -10   1 2.29903 1.82500   5
  -1 -10   1 12.2745 2.35996   1
  -1 -10   1 5.18079 1.90427   5
   0 -10   1 21.5040 2.50431   5
   0 -10   1 24.3232 2.92913   1
  -1  10  -1 13.7588 2.58753   6
   1 -10   1 17.3189 2.79337   1
   1 -10   1 16.2066 2.47913   5
  -2  10  -1 1.15188 2.04429   6
   2 -10   1 -0.9957 1.96993   1
   2 -10   1 -0.7602 1.81301   5
  -3  10  -1 -2.8042 1.92848   6
   3 -10   1 3.08215 1.99606   5
   3 -10   1 1.16873 2.17614   1
  -4  10  -1 417.862 10.7579   6
   4 -10   1 372.192 9.85650   5
   4 -10   1 377.555 10.4337   1
  -5  -9   1 1.11583 1.67911   5
  -5  -9   1 1.03706 1.86989   2
  -4  -9   1 18.1411 2.28442   5
  -4  -9   1 17.2584 2.23638   3
  -4  -9   1 17.2844 2.32499   2
  -3  -9   1 1.07980 1.62942   5
  -3  -9   1 0.84784 1.38839   2
  -3  -9   1 2.55822 1.63462   1
  -3  -9   1 2.12154 1.62326   3
  -2  -9   1 10.6983 1.63710   2
  -2  -9   1 11.0372 2.07919   1
  -2  -9   1 12.3896 2.01539   4
  -2  -9   1 13.0624 2.02944   5
  -1  -9   1 20.9545 2.30547   5
  -1  -9   1 17.7178 2.40766   1
   0  -9   1 301.860 7.86581   1
   0  -9   1 300.441 7.46880   5
  -1   9  -1 0.31148 1.86674   6
   1  -9   1 1.79683 1.97351   1
   1  -9   1 0.03037 1.63753   5
  -2   9  -1 964.110 18.8744   6
   2  -9   1 953.134 18.7354   1
   2  -9   1 972.132 18.1695   5
  -3   9  -1 74.6064 4.47129   6
   3  -9   1 71.9696 4.03914   5
   3  -9   1 72.7155 4.51348   1
  -4   9  -1 189.451 6.82849   6
   4  -9   1 188.889 6.81105   1
   4  -9   1 184.346 6.26392   5
  -5   9  -1 118.093 5.85927   6
   5  -9   1 108.166 5.12092   5
   5  -9   1 110.724 5.43251   1
  -6  -8   1 16.9465 2.27196   5
  -6  -8   1 19.3390 2.38348   7
  -6  -8   1 17.9476 2.69180   2
  -5  -8   1 43.6372 3.11964   5
  -5  -8   1 40.1788 3.22345   2
  -5  -8   1 41.0232 3.10135   3
  -5  -8   1 39.2340 2.92399   7
  -4  -8   1 19.7424 2.22545   5
  -4  -8   1 17.0934 1.85285   7
  -4  -8   1 21.9696 2.30827   3
  -4  -8   1 22.1810 2.05722   1
  -4  -8   1 19.9049 2.00951  10
  -4  -8   1 20.6788 2.35927   2
  -3  -8   1 19.0868 2.06668   2
  -3  -8   1 17.6266 1.83137  10
  -3  -8   1 15.9916 1.88753   4
  -3  -8   1 18.6191 2.05815   5
  -3  -8   1 18.8577 2.04270   1
  -3  -8   1 19.4057 2.14555   3
  -3  -8   1 20.0065 1.62956   7
  -2  -8   1 430.070 9.32901   1
  -2  -8   1 434.096 8.83953   2
  -2  -8   1 443.258 9.24435   5
  -2  -8   1 445.476 9.46223   4
  -1  -8   1 51.7705 2.99299   5
  -1  -8   1 60.9983 3.34364   1
  -1  -8   1 53.2486 2.42031   2
   0  -8   1 617.354 11.9574   5
   0  -8   1 625.458 12.5529   1
   0  -8   1 608.490 10.5729   2
  -1   8  -1 135.145 5.03045   6
   1  -8   1 133.575 4.53678   5
   1  -8   1 134.552 5.01100   1
  -2   8  -1 237.145 6.92008   6
   2  -8   1 242.837 6.43175   5
   2  -8   1 243.528 6.89780   1
  -3   8  -1 93.3766 4.54239   6
   3  -8   1 101.983 4.27622   5
   3  -8   1 92.4055 4.45606   1
  -4   8  -1 35.0703 3.32672   6
  -4   8  -1 39.9356 3.19738  10
   4  -8   1 40.1870 3.42403   1
   4  -8   1 34.1186 2.99428   5
  -5   8  -1 -0.7975 1.84714   6
  -5   8  -1 -3.1077 1.82449  10
   5  -8   1 0.65450 1.92682   1
   5  -8   1 2.85838 2.00520   5
  -6   8  -1 5.26972 2.30347  10
  -6   8  -1 2.79268 2.13534   6
   6  -8   1 4.56226 2.49048   8
   6  -8   1 1.26655 2.07216   5
   6  -8   1 3.17203 2.26799   1
  -7  -7   1 23.3949 3.71632   3
  -7  -7   1 19.0063 2.65997   7
  -7  -7   1 22.7318 3.14530   2
  -6  -7   1 27.4827 2.69777   7
  -6  -7   1 24.3956 2.89085   2
  -6  -7   1 25.6325 2.55919   3
  -6  -7   1 31.3078 2.92485  10
  -5  -7   1 60.8162 3.14989  10
  -5  -7   1 60.7450 3.42224   7
  -5  -7   1 70.0883 3.52356   3
  -5  -7   1 64.9824 3.31011   5
  -5  -7   1 71.8630 3.97899   2
  -4  -7   1 198.322 5.17074   7
  -4  -7   1 187.420 5.67606   2
  -4  -7   1 192.945 5.09574  10
  -4  -7   1 194.217 4.81686   1
  -4  -7   1 189.953 5.39898   3
  -4  -7   1 193.870 5.27978   5
  -3  -7   1 60.3138 3.20636   2
  -3  -7   1 60.7847 2.80151   4
  -3  -7   1 67.2657 2.63544   7
  -3  -7   1 62.6203 2.86877   1
  -3  -7   1 62.5362 3.21241   3
  -3  -7   1 60.5599 2.82208  10
  -3  -7   1 57.6313 2.98162   5
  -2  -7   1 707.823 12.0223   7
  -2  -7   1 705.701 13.0706   1
  -2  -7   1 704.289 12.6575   9
  -2  -7   1 707.143 13.1784   4
  -2  -7   1 669.932 12.7700   2
  -2  -7   1 693.770 12.9287   5
  -1  -7   1 102.170 3.06313   2
  -1  -7   1 107.581 3.83941   1
  -1  -7   1 108.379 3.64535   5
   0   7  -1 424.453 9.52549   6
   0  -7   1 446.880 9.31738   1
   0  -7   1 450.177 7.87409   2
   0  -7   1 448.983 8.99810   5
  -1   7  -1 275.508 7.06359   6
   1  -7   1 286.011 6.99483   1
   1  -7   1 282.208 6.56735   5
  -2   7  -1 0.00233 1.44459   6
   2  -7   1 -0.9255 1.54838   1
   2  -7   1 -0.0030 1.40523   5
  -3   7  -1 0.20698 1.51994   6
   3  -7   1 -0.1197 1.55384   5
   3  -7   1 1.80561 1.70009   1
  -4   7  -1 7.94888 2.08551   6
  -4   7  -1 7.50201 1.11315   7
  -4   7  -1 9.88994 2.03854  10
   4  -7   1 5.58930 1.84028   5
   4  -7   1 9.17899 2.14984   1
  -5   7  -1 4.45381 1.99167  10
  -5   7  -1 0.28223 1.81347   6
  -5   7  -1 -1.9037 1.87199   3
   5  -7   1 0.21791 1.86000   1
   5  -7   1 -0.2992 1.76799   5
  -6   7  -1 7.60063 2.39162  10
  -6   7  -1 3.16539 2.27702   3
  -6   7  -1 1.21258 2.01936   6
   6  -7   1 4.61406 2.30671   8
   6  -7   1 3.79586 2.07089   5
   6  -7   1 8.38846 2.27977   1
  -7   7  -1 2.37456 2.47102   3
  -7   7  -1 1.89974 2.37540  10
  -7   7  -1 -0.1976 1.97152   6
   7  -7   1 2.18351 2.18782   5
   7  -7   1 -0.4336 2.36192   8
   7  -7   1 0.21623 2.00944   1
  -7  -6   1 8.28208 2.20603   7
  -7  -6   1 5.65994 1.89569  10
  -7  -6   1 3.87931 1.93980   3
  -7  -6   1 1.14589 2.14729   2
  -6  -6   1 259.565 7.71457   2
  -6  -6   1 264.208 6.91421  10
  -6  -6   1 271.127 7.06772   3
  -6  -6   1 264.581 7.20677   7
  -5  -6   1 22.7490 2.28772   3
  -5  -6   1 29.1821 2.29711  10
  -5  -6   1 23.9223 2.29556   7
  -5  -6   1 26.4182 2.64472   2
  -4  -6   1 1059.66 18.6275   7
  -4  -6   1 1052.64 17.8379   1
  -4  -6   1 1061.36 19.1839   2
  -4  -6   1 1056.01 18.4921  10
  -4  -6   1 1038.35 18.7430   3
  -4  -6   1 1052.47 17.6574   4
  -4  -6   1 1027.95 18.3693   5
  -3  -6   1 292.375 6.84587   2
  -3  -6   1 291.766 6.29318   7
  -3  -6   1 300.117 6.73159   3
  -3  -6   1 299.775 6.22387   1
  -3  -6   1 293.501 6.46775   5
  -3  -6   1 295.684 6.42256  10
  -3  -6   1 295.676 6.19746   4
  -2  -6   1 254.338 5.24769   9
  -2  -6   1 260.286 5.24675   7
  -2  -6   1 270.440 5.97283   4
  -2  -6   1 266.661 5.85732   1
  -2  -6   1 264.882 5.87274   2
  -2  -6   1 255.363 5.78624   5
  -1  -6   1 600.255 10.8427   2
  -1  -6   1 608.269 11.4392   1
  -1  -6   1 615.426 11.2349   5
  -1  -6   1 617.857 10.1208   7
   0   6  -1 2.98652 1.32913   6
   0  -6   1 0.20559 1.16065   5
   0  -6   1 -0.8218 1.26701   1
   0  -6   1 0.31618 0.68999   2
  -1   6  -1 36.6951 2.64983   6
   1  -6   1 35.6281 2.37888   5
   1  -6   1 39.1873 2.72624   1
  -2   6  -1 37.2985 2.73504   6
   2  -6   1 33.3855 2.51769   1
   2  -6   1 32.9244 2.37714   5
  -3   6  -1 10.4822 0.97346   7
  -3   6  -1 10.2992 1.78850  10
  -3   6  -1 8.85467 1.82859   6
  -3   6  -1 11.2012 1.12107   9
   3  -6   1 11.1225 1.75449   5
   3  -6   1 8.93136 1.93754   1
  -4   6  -1 32.9396 2.02173   7
  -4   6  -1 33.3915 2.76704  10
  -4   6  -1 39.5201 3.02190   6
  -4   6  -1 30.3268 2.69012   3
   4  -6   1 39.5696 2.83629   5
   4  -6   1 33.9045 2.85950   1
  -5   6  -1 1.48094 1.23420   7
  -5   6  -1 3.87219 1.94836   3
  -5   6  -1 -1.2167 1.63198  10
  -5   6  -1 3.34602 1.76500   6
   5  -6   1 1.01780 1.65629   5
   5  -6   1 -1.5010 1.58816   1
  -6   6  -1 44.1625 3.61665  10
  -6   6  -1 40.7361 3.30886   6
  -6   6  -1 40.3953 2.87179   7
  -6   6  -1 38.6080 3.45419   3
   6  -6   1 34.3029 3.34768   8
   6  -6   1 40.0949 3.33342   1
   6  -6   1 38.5631 3.13432   5
  -7   6  -1 -0.6038 1.89225   6
  -7   6  -1 -2.4265 1.49441   7
  -7   6  -1 -0.9365 2.18532  10
  -7   6  -1 1.98046 2.27823   3
   7  -6   1 -0.7226 1.91004   5
   7  -6   1 0.04170 1.84405   1
   7  -6   1 1.43430 2.12653   8
   8   5  -1 247.364 7.19335   8
  -8  -5   1 257.804 8.00341   7
  -8  -5   1 257.759 8.47588   2
  -8  -5   1 265.288 7.64820  10
  -8  -5   1 260.226 7.58868   3
   7   5  -1 39.2541 3.01964   8
  -7  -5   1 37.6395 3.57000   2
  -7  -5   1 36.1775 3.07366  10
  -7  -5   1 34.5066 3.21822   7
  -7  -5   1 34.4957 3.00047   3
  -6  -5   1 273.478 7.22870   3
  -6  -5   1 283.946 7.53738   7
  -6  -5   1 288.565 7.86064   2
  -6  -5   1 286.842 7.20506  10
  -5  -5   1 809.544 13.6470   1
  -5  -5   1 846.760 15.5873   7
  -5  -5   1 803.953 15.1456  10
  -5  -5   1 811.417 15.8490   2
  -5  -5   1 831.232 15.3784   3
  -4  -5   1 0.58497 0.87979   1
  -4  -5   1 -0.5839 1.21388   3
  -4  -5   1 -0.4572 1.19070  10
  -4  -5   1 1.20285 1.19254   7
  -4  -5   1 -0.0230 0.76816   4
  -4  -5   1 0.31393 1.37257   2
  -3  -5   1 160.607 3.80109   4
  -3  -5   1 160.890 4.42418   3
  -3  -5   1 160.835 4.19786  10
  -3  -5   1 157.120 3.74679   1
  -3  -5   1 167.145 4.59547   2
  -3  -5   1 165.515 4.19794   7
  -2  -5   1 8.81976 1.24061   4
  -2  -5   1 7.97635 1.19545   5
  -2  -5   1 6.96733 1.01338   9
  -2  -5   1 6.49430 1.18597   2
  -2  -5   1 6.45399 0.96571   7
  -2  -5   1 6.16176 1.14588   1
  -1  -5   1 203.274 3.88563   7
  -1  -5   1 206.956 4.42330   2
  -1  -5   1 204.265 4.58193   5
  -1  -5   1 211.841 3.88935   9
  -1  -5   1 202.644 4.74457   1
   0   5  -1 64.5512 2.79177   6
   0  -5   1 62.7717 2.64946   1
   0  -5   1 66.3196 2.43682   5
   0  -5   1 63.5595 1.79291   2
   1  -5   1 30.4712 2.21557   1
   1  -5   1 32.0001 2.05055   5
  -2   5  -1 504.645 9.97258   6
  -2   5  -1 486.575 9.67526  10
  -2   5  -1 493.752 8.23264   7
  -2   5  -1 510.505 8.42962   9
   2  -5   1 480.849 9.80967   1
   2  -5   1 504.692 9.58280   5
  -3   5  -1 34.1555 1.65292   7
  -3   5  -1 36.5433 2.72933   6
  -3   5  -1 35.4604 1.68127   9
  -3   5  -1 25.9596 2.24128   3
  -3   5  -1 30.1700 2.26907  10
   3  -5   1 37.5976 2.48559   5
   3  -5   1 34.5693 2.52933   1
  -4   5  -1 11.0805 1.94544   3
  -4   5  -1 15.0376 0.99820   2
  -4   5  -1 14.1096 2.01838  10
  -4   5  -1 11.7770 1.86596   6
  -4   5  -1 14.7565 1.43725   7
  -4   5  -1 13.7756 0.96758   2
   4  -5   1 12.2603 1.92436   1
   4  -5   1 19.8801 2.07571   5
  -5   5  -1 21.5549 1.48222   2
  -5   5  -1 24.0530 2.61360   3
  -5   5  -1 23.3180 2.59566  10
  -5   5  -1 17.6053 2.25339   6
  -5   5  -1 22.6491 1.95711   7
   5  -5   1 22.6069 2.37052   1
   5  -5   1 22.3597 2.58087   8
   5  -5   1 20.9847 2.24472   5
  -6   5  -1 13.2116 2.39896   3
  -6   5  -1 15.9695 2.29009   6
  -6   5  -1 14.7153 2.53122  10
  -6   5  -1 15.0159 1.57490   2
  -6   5  -1 9.01728 1.76951   7
   6  -5   1 11.3009 2.16977   1
   6  -5   1 11.4108 2.29504   8
   6  -5   1 14.5417 2.17984   5
  -7   5  -1 48.6427 3.37313   7
  -7   5  -1 43.8342 3.84896   3
  -7   5  -1 50.2501 3.93380  10
  -7   5  -1 49.9023 3.63086   6
   7  -5   1 38.4908 3.58360   8
   7  -5   1 45.3291 3.41620   1
   7  -5   1 38.4151 3.24329   5
  -8   5  -1 16.5677 3.04606  10
  -8   5  -1 24.7043 2.80863   7
  -8   5  -1 23.1774 3.38002   3
  -8   5  -1 24.5794 2.80325   6
   8  -5   1 26.4958 3.35904   8
   8  -5   1 26.7143 3.15974   5
   8  -5   1 26.1476 2.97469   1
   8   4  -1 60.6390 3.78575   8
  -8  -4   1 50.8080 4.02505  10
  -8  -4   1 61.4688 4.39375   7
  -8  -4   1 62.4645 4.18977   3
  -8  -4   1 60.5131 4.72474   2
   7   4  -1 141.511 4.90538   8
  -7  -4   1 132.605 5.21730   3
  -7  -4   1 141.392 5.28934  10
  -7  -4   1 143.682 5.76631   2
  -7  -4   1 137.423 5.42175   7
   6   4  -1 28.4253 2.38354   8
  -6  -4   1 27.9162 2.60412   3
  -6  -4   1 24.9662 2.48957  10
  -6  -4   1 27.7063 2.73043   7
   5   4  -1 -0.1337 1.30042   8
  -5  -4   1 2.06287 1.40034  10
  -5  -4   1 1.12278 1.44404   7
  -5  -4   1 0.92595 0.95968   6
  -5  -4   1 2.86858 1.40788   3
   4   4  -1 8.67226 1.49821   8
  -4  -4   1 11.8386 0.93543   1
  -4  -4   1 11.2542 1.51341  10
  -4  -4   1 10.2148 1.59191   3
  -4  -4   1 9.76706 0.89917   4
  -4  -4   1 11.3188 1.15459   6
  -3  -4   1 29.8618 1.43509   1
  -3  -4   1 28.2632 2.10674   3
  -3  -4   1 31.4532 1.55845   4
  -3  -4   1 29.3496 1.69756   6
  -3  -4   1 28.4214 1.98605  10
  -2  -4   1 42.5188 1.75797   1
  -2  -4   1 42.2635 1.82824   5
  -2  -4   1 40.3995 1.83795   4
  -2  -4   1 40.6361 1.80987   9
  -1  -4   1 27.0836 1.68012   1
  -1  -4   1 24.8627 1.56974   5
  -1  -4   1 27.5041 1.24824   9
  -1  -4   1 27.6530 1.24350   7
   0   4  -1 12.2048 1.44727   6
   0  -4   1 8.79731 1.08400   5
   0  -4   1 8.35575 1.07264  10
   0  -4   1 9.39456 0.79692   2
   0  -4   1 11.4803 1.34106   1
   1  -4   1 65.7765 2.68394   1
   1  -4   1 67.3173 2.32142   5
  -2   4  -1 140.967 2.82947   7
  -2   4  -1 134.710 3.90570   3
  -2   4  -1 137.222 3.84047  10
  -2   4  -1 146.901 3.99641   6
  -2   4  -1 135.365 2.92706   9
   2  -4   1 141.109 3.90295   1
   2  -4   1 138.243 3.68199   5
  -3   4  -1 0.17382 1.19221   3
  -3   4  -1 -0.2595 0.71838   7
  -3   4  -1 1.17120 1.17892  10
  -3   4  -1 0.80224 0.51314   2
  -3   4  -1 0.02855 0.49095   2
  -3   4  -1 -0.5636 0.59110   9
  -3   4  -1 -0.5555 1.10199   6
   3  -4   1 1.35828 1.14312   5
   3  -4   1 0.99811 1.23752   1
  -4   4  -1 2.72365 1.08870   7
  -4   4  -1 0.29741 1.42813   3
  -4   4  -1 0.40495 1.23343   6
  -4   4  -1 3.51704 1.52722  10
  -4   4  -1 2.33478 0.80717   2
   4  -4   1 2.77597 1.36195   1
   4  -4   1 1.04467 1.32158   5
  -5   4  -1 6.05162 1.93179   3
  -5   4  -1 8.11508 1.88816  10
  -5   4  -1 9.23121 1.74549   6
  -5   4  -1 8.87659 1.27045   2
  -5   4  -1 7.39770 1.46446   7
   5  -4   1 5.55231 1.65191   1
   5  -4   1 8.17295 1.72043   5
   5  -4   1 7.57857 1.87259   8
  -6   4  -1 83.4521 3.83484   6
  -6   4  -1 83.5750 4.38065  10
  -6   4  -1 80.6491 4.43672   3
  -6   4  -1 81.1740 3.17419   2
  -6   4  -1 87.1784 3.71712   7
   6  -4   1 82.1938 3.78318   1
   6  -4   1 82.2701 3.98192   5
   6  -4   1 91.2396 4.08601   8
  -7   4  -1 30.0575 3.20420  10
  -7   4  -1 39.1539 3.01558   7
  -7   4  -1 39.1622 2.73351   2
  -7   4  -1 30.8810 3.20348   3
  -7   4  -1 41.3877 3.05055   6
   7  -4   1 38.1641 3.00625   1
   7  -4   1 31.5642 3.21206   8
   7  -4   1 37.1526 3.26190   5
  -8   4  -1 337.477 9.70683  10
  -8   4  -1 330.774 8.76863   7
  -8   4  -1 330.696 9.56732   3
  -8   4  -1 332.505 8.33868   6
  -8   4  -1 331.523 8.65700   2
   8  -4   1 335.270 8.97611   5
   8  -4   1 327.104 9.13806   8
   8  -4   1 344.950 8.49538   1
   8   3  -1 10.6671 2.14318   8
  -8  -3   1 12.6114 2.62359   2
  -8  -3   1 13.1450 2.60110   7
  -8  -3   1 15.6740 2.59205  10
  -8  -3   1 15.2611 2.58314   3
   7   3  -1 42.4247 3.07158   8
  -7  -3   1 40.1374 3.21143   3
  -7  -3   1 38.1006 3.17905  10
  -7  -3   1 33.0698 3.10799   7
   6   3  -1 44.4858 2.88173   8
  -6  -3   1 51.4513 3.35553  10
  -6  -3   1 48.7667 3.29303   3
  -6  -3   1 49.8715 1.98965   6
   5   3  -1 27.2953 2.04750   8
   5   3  -1 25.2449 1.30566   4
  -5  -3   1 23.3209 2.18877   3
  -5  -3   1 24.8235 2.22390  10
   4   3  -1 17.8370 1.17197   4
   4   3  -1 16.6374 1.54388   8
  -4  -3   1 16.2831 1.67725  10
  -4  -3   1 16.3192 1.16129   4
  -4  -3   1 17.1893 1.72583   3
   3   3  -1 218.126 4.67288   8
  -3  -3   1 217.998 4.96648  10
  -3  -3   1 219.065 5.03127   3
  -3  -3   1 221.390 4.26303   4
  -3  -3   1 217.885 3.99052   1
  -2  -3   1 50.4853 1.87094   8
  -2  -3   1 49.2287 1.58796   1
  -2  -3   1 52.5376 2.16866   3
  -2  -3   1 47.5647 1.73847   4
  -2  -3   1 51.8859 1.99437   9
  -2  -3   1 49.1541 2.07529  10
  -1  -3   1 193.971 3.87719   5
  -1  -3   1 187.889 4.11900   6
  -1  -3   1 189.355 3.93715   1
  -1  -3   1 194.880 4.12569   4
  -1  -3   1 200.443 3.77600   9
   0   3  -1 121.499 2.78143   5
   0   3  -1 124.138 2.95210   1
   0   3  -1 119.078 3.21599   6
   0  -3   1 127.522 3.09427   1
   0  -3   1 125.677 3.21969   6
   0  -3   1 125.422 2.84259   5
  -1   3  -1 80.7398 2.28489   5
  -1   3  -1 79.4661 2.63238   6
   1  -3   1 78.8675 2.35974   5
   1  -3   1 78.4232 2.49261  10
   1  -3   1 78.9673 2.57645   3
   1  -3   1 79.9853 2.66986   1
  -2   3  -1 19.0434 1.56581  10
  -2   3  -1 21.3156 1.62618   6
  -2   3  -1 18.6631 1.58670   3
  -2   3  -1 16.5111 1.15056   7
  -2   3  -1 17.3474 1.21697   9
   2  -3   1 15.4209 1.53333   1
   2  -3   1 20.6864 1.47121   5
  -3   3  -1 0.17507 1.13400   3
  -3   3  -1 0.71498 1.02700   6
  -3   3  -1 0.49457 0.60792   2
  -3   3  -1 -0.6889 1.13233  10
  -3   3  -1 0.02680 0.78933   7
  -3   3  -1 0.74358 0.64290   9
   3  -3   1 2.38887 1.05288   5
   3  -3   1 -0.6151 1.09169   1
  -4   3  -1 499.610 8.97461   2
  -4   3  -1 500.176 9.69609   6
  -4   3  -1 500.029 9.47072   7
  -4   3  -1 505.737 10.1155  10
  -4   3  -1 505.693 10.1197   3
   4  -3   1 507.266 9.95220   8
   4  -3   1 506.441 9.77243   1
   4  -3   1 486.596 9.68532   5
  -5   3  -1 23.0731 2.35232   3
  -5   3  -1 23.5230 2.00838   7
  -5   3  -1 23.6445 1.89790   2
  -5   3  -1 20.8583 1.96362   6
  -5   3  -1 22.6239 2.22280  10
   5  -3   1 25.8429 2.13301   1
   5  -3   1 20.2075 2.01821   5
   5  -3   1 18.1753 2.07096   8
  -6   3  -1 678.063 12.7625   6
  -6   3  -1 659.300 12.4044   2
  -6   3  -1 663.183 13.0089   7
  -6   3  -1 649.682 13.5336  10
  -6   3  -1 659.325 13.5673   3
   6  -3   1 644.421 13.0646   5
   6  -3   1 671.634 12.8215   1
   6  -3   1 658.187 13.2389   8
  -7   3  -1 37.5290 3.37276   3
  -7   3  -1 44.8413 3.61583  10
  -7   3  -1 42.4386 2.98579   6
  -7   3  -1 42.6434 2.91027   2
  -7   3  -1 37.2057 2.98907   7
   7  -3   1 43.9908 3.32677   5
   7  -3   1 44.9404 3.15789   1
   7  -3   1 39.8723 3.29425   8
  -8   3  -1 241.265 7.81486  10
  -8   3  -1 248.428 6.62661   6
  -8   3  -1 241.828 7.80580   3
  -8   3  -1 252.034 7.43095   7
  -8   3  -1 240.512 6.73044   2
   8  -3   1 255.552 7.70804   8
   8  -3   1 248.818 6.77685   1
  -9   3  -1 60.9152 4.60714   7
  -9   3  -1 59.4589 4.68224  10
  -9   3  -1 47.9514 3.62742   2
  -9   3  -1 51.6435 4.39388   3
   9  -3   1 55.7825 4.33322   8
   9   2  -1 15.3156 2.58370   8
  -9  -2   1 15.7670 2.88967   7
  -9  -2   1 19.9933 3.05331  10
  -9  -2   1 16.1061 2.91579   2
  -9  -2   1 15.7208 2.94599   3
   8   2  -1 60.4092 3.64994   8
  -8  -2   1 46.3332 3.77582   2
  -8  -2   1 52.6061 4.07716   7
  -8  -2   1 49.7543 3.80833  10
  -8  -2   1 42.1220 3.58123   3
   7   2  -1 96.5269 3.93466   8
  -7  -2   1 103.972 4.60819   3
  -7  -2   1 96.5635 4.63459   7
  -7  -2   1 99.5808 4.60222  10
   6   2  -1 20.2161 1.96141   8
  -6  -2   1 19.8103 1.48200   6
  -6  -2   1 11.4802 2.09961   3
  -6  -2   1 20.0125 2.32050  10
   5   2  -1 7.81646 1.03680   4
   5   2  -1 8.87618 1.43389   8
  -5  -2   1 8.34424 1.09875   6
  -5  -2   1 7.04692 1.57922   3
  -5  -2   1 12.3897 1.75199  10
   4   2  -1 1.35853 0.73749   4
   4   2  -1 2.96484 1.04777   8
  -4  -2   1 1.24123 0.71792   4
  -4  -2   1 1.65474 1.18512   3
  -4  -2   1 1.06000 1.10479  10
   3   2  -1 7.70864 1.07440   8
   3   2  -1 8.00771 1.31137   9
   3   2  -1 8.67174 0.86964   4
  -3  -2   1 4.97706 1.15564  10
  -3  -2   1 8.13606 1.01163   8
  -3  -2   1 8.47757 1.25466   3
  -3  -2   1 7.80741 0.82679   4
   2   2  -1 23.6117 1.37446   8
   2   2  -1 25.2107 1.74922   9
   2   2  -1 23.7330 1.27206   4
  -2  -2   1 24.6627 1.36857   8
  -2  -2   1 23.3398 0.92541   1
  -2  -2   1 22.9342 1.74043  10
  -2  -2   1 26.2209 1.79775   3
  -2  -2   1 22.5815 1.62420   9
  -2  -2   1 24.5075 1.33379   4
   1   2  -1 23.5079 1.37377   9
  -1  -2   1 23.6104 1.31745   4
  -1  -2   1 22.9682 1.22747   8
  -1  -2   1 24.9805 1.15928   1
  -1  -2   1 25.3352 1.32008   9
   0   2  -1 231.599 4.17410   5
   0   2  -1 229.991 4.37288   1
   0  -2   1 232.237 4.19951   5
   0  -2   1 231.851 4.40847   1
   0  -2   1 233.944 3.91581   7
   0  -2   1 233.518 4.55528   6
  -1   2  -1 165.577 3.35261   5
  -1   2  -1 165.179 2.92864   7
  -1   2  -1 156.459 3.59395   6
  -1   2  -1 160.430 3.61551  10
   1  -2   1 162.833 3.57599  10
   1  -2   1 171.449 3.40801   5
   1  -2   1 165.370 3.59178   3
  -2   2  -1 868.772 14.5392   5
  -2   2  -1 861.716 14.6533   1
  -2   2  -1 888.485 14.7102   6
  -2   2  -1 864.583 14.8131   3
  -2   2  -1 876.367 14.8253  10
  -2   2  -1 871.227 14.0022   2
  -2   2  -1 873.421 14.3765   9
  -2   2  -1 854.890 14.2800   7
   2  -2   1 866.214 14.6987   1
   2  -2   1 854.416 14.7431  10
   2  -2   1 878.866 14.6623   6
   2  -2   1 856.217 14.5764   5
  -3   2  -1 0.86912 1.12620  10
  -3   2  -1 1.38365 1.09746   3
  -3   2  -1 -0.2682 0.93713   6
  -3   2  -1 -1.0653 0.79123   7
  -3   2  -1 0.01584 0.78938   9
  -3   2  -1 0.66446 0.72105   2
   3  -2   1 0.46071 1.06297   8
   3  -2   1 0.19410 0.99137   5
   3  -2   1 0.38261 1.00608   1
  -4   2  -1 954.094 16.5615   7
  -4   2  -1 947.825 16.9694  10
  -4   2  -1 968.594 16.2190   2
  -4   2  -1 943.829 16.9095   3
  -4   2  -1 954.575 16.4162   6
   4  -2   1 942.266 16.6234   5
   4  -2   1 965.198 16.5167   1
  -5   2  -1 67.8448 2.81721   2
  -5   2  -1 70.5671 3.37112   3
  -5   2  -1 73.4445 3.57017  10
  -5   2  -1 72.4673 2.82296   6
  -5   2  -1 71.9819 3.07223   7
   5  -2   1 77.5925 3.30921   5
   5  -2   1 76.4429 3.28501   8
   5  -2   1 70.8381 2.99609   1
  -6   2  -1 244.001 5.92208   2
  -6   2  -1 232.318 5.66886   6
  -6   2  -1 236.176 6.36202   7
  -6   2  -1 244.439 6.71397   3
  -6   2  -1 245.063 6.78417  10
   6  -2   1 237.316 5.85482   1
   6  -2   1 240.766 6.22940   5
   6  -2   1 238.310 6.42105   8
  -7   2  -1 212.086 5.88345   2
  -7   2  -1 202.692 5.35953   6
  -7   2  -1 201.473 6.21155   7
  -7   2  -1 211.521 6.58669  10
  -7   2  -1 200.372 6.36665   3
   7  -2   1 203.684 5.53628   1
   7  -2   1 209.418 6.26902   8
  -8   2  -1 1.51889 1.70564   2
  -8   2  -1 0.60745 1.86807   7
  -8   2  -1 -2.9095 1.91789  10
  -8   2  -1 1.08395 2.04455   3
   8  -2   1 0.71132 1.96041   8
   8  -2   1 1.28597 1.54977   1
  -9   2  -1 44.1874 3.97382  10
  -9   2  -1 50.1146 3.78459   2
  -9   2  -1 53.1714 4.29785   3
  -9   2  -1 42.9247 3.78924   7
   9  -2   1 49.8479 4.00832   8
   9   1  -1 37.3666 3.30545   8
  -9  -1   1 28.3567 3.37950   2
  -9  -1   1 27.2983 3.43638   3
  -9  -1   1 30.5743 3.62672  10
  -9  -1   1 31.2982 3.49246   7
   8   1  -1 34.7189 2.98624   8
  -8  -1   1 30.5516 3.19180   3
  -8  -1   1 34.7012 3.36845  10
  -8  -1   1 27.4148 3.23364   7
   7   1  -1 23.5526 2.42162   8
  -7  -1   1 16.2333 2.52736   3
  -7  -1   1 18.8528 2.57131  10
   6   1  -1 -0.2774 1.33900   8
  -6  -1   1 -0.6371 1.01110   6
  -6  -1   1 -2.0524 1.54461   3
  -6  -1   1 -1.5124 1.65821  10
   5   1  -1 10.0355 1.49216   8
  -5  -1   1 7.27899 1.60142  10
  -5  -1   1 10.5498 1.20639   6
  -5  -1   1 8.85194 1.67754   3
   4   1  -1 137.169 3.59229   8
   4   1  -1 139.002 4.18210   9
   4   1  -1 126.970 3.23571   4
  -4  -1   1 139.422 3.26337   6
  -4  -1   1 139.350 3.99601   3
  -4  -1   1 139.308 4.11081  10
   3   1  -1 1.50856 0.84327   8
   3   1  -1 1.89079 1.18459   9
   3   1  -1 1.56869 0.77321   4
  -3  -1   1 1.82023 0.80226   4
  -3  -1   1 1.18124 1.06498   3
  -3  -1   1 2.32299 0.82071   8
  -3  -1   1 0.67446 0.99968  10
   2   1  -1 112.590 3.00326   9
   2   1  -1 108.258 2.51496   4
   2   1  -1 109.256 2.50331   8
   2   1  -1 105.799 2.80671   3
   2   1  -1 108.351 2.86603  10
  -2  -1   1 104.284 2.94355  10
  -2  -1   1 104.980 2.93052   9
  -2  -1   1 111.252 2.92114   3
  -2  -1   1 109.072 2.45615   8
  -2  -1   1 107.571 2.52160   4
  -2  -1   1 110.612 2.57963   5
   1   1  -1 551.667 9.31968   4
   1   1  -1 565.868 9.08770   8
   1   1  -1 564.339 9.46536   9
   1   1  -1 557.224 8.91247   1
  -1  -1   1 547.549 8.91806   1
  -1  -1   1 566.795 9.53202  10
  -1  -1   1 557.678 9.34507   4
  -1  -1   1 557.972 9.54001   3
  -1  -1   1 567.588 9.45779   9
  -1  -1   1 563.035 9.09516   8
   0   1  -1 609.704 10.0346   4
   0   1  -1 594.551 9.86749   1
   0   1  -1 615.599 9.75101   9
   0   1  -1 603.317 9.64355   5
   0  -1   1 598.966 9.74366   9
   0  -1   1 600.502 9.75567   7
   0  -1   1 618.446 10.0789   4
   0  -1   1 607.858 9.87475   1
   0  -1   1 607.011 9.64983   5
  -1   1  -1 49.0656 1.33582   7
  -1   1  -1 50.4710 1.18706   2
  -1   1  -1 50.4097 1.42408   5
  -1   1  -1 50.1857 1.64470   3
  -1   1  -1 50.5765 1.64499   6
   1  -1   1 48.1660 1.44795   5
   1  -1   1 52.8531 1.33416   7
   1  -1   1 47.5344 1.62670   1
   1  -1   1 49.8206 1.56262  10
   1  -1   1 49.8231 1.59974   6
   1  -1   1 49.5770 1.16543   2
  -2   1  -1 2901.66 46.6450   2
  -2   1  -1 2896.12 46.0993   1
  -2   1  -1 2896.35 46.2635   3
  -2   1  -1 2975.52 46.1063   5
  -2   1  -1 2921.81 46.2924  10
  -2   1  -1 2910.62 47.0041   7
  -2   1  -1 2883.88 46.4816   6
   2  -1   1 2848.05 46.0834   5
   2  -1   1 2883.83 46.8378   8
   2  -1   1 2923.07 46.0164   6
   2  -1   1 2878.19 46.2114   3
   2  -1   1 2899.43 47.2625   1
  -3   1  -1 265.193 5.22184   6
  -3   1  -1 269.003 5.34086   1
  -3   1  -1 269.245 5.54492   7
  -3   1  -1 271.074 5.77685  10
  -3   1  -1 275.071 5.69234   3
  -3   1  -1 274.742 5.33221   2
   3  -1   1 283.429 5.26333   6
   3  -1   1 269.466 5.52780   5
   3  -1   1 268.567 5.42441   1
   3  -1   1 268.678 5.64846   8
  -4   1  -1 210.405 5.08059   3
  -4   1  -1 216.821 4.52685   6
  -4   1  -1 210.339 4.97063   7
  -4   1  -1 209.524 5.17221  10
  -4   1  -1 207.059 4.73252   2
   4  -1   1 215.144 4.45163   6
   4  -1   1 215.649 5.06006   8
   4  -1   1 213.052 4.70760   1
   4  -1   1 206.614 4.93247   5
  -5   1  -1 18.7138 1.85746   7
  -5   1  -1 21.6920 1.56619   6
  -5   1  -1 16.9886 1.70195   2
  -5   1  -1 18.0401 1.88482   3
  -5   1  -1 20.3658 2.00521  10
   5  -1   1 20.3129 2.02155   8
   5  -1   1 23.0872 1.71897   1
  -6   1  -1 0.60213 1.55416  10
  -6   1  -1 -1.4587 1.32501   7
  -6   1  -1 3.21921 1.65444   3
  -6   1  -1 -0.0451 1.30750   2
  -6   1  -1 -0.0751 0.99284   6
   6  -1   1 3.33550 1.58695   8
   6  -1   1 -0.1074 1.20071   1
  -7   1  -1 149.325 5.26153   7
  -7   1  -1 150.944 5.04658   2
  -7   1  -1 153.516 5.60347  10
  -7   1  -1 147.782 5.39896   3
  -7   1  -1 153.222 4.15404   6
   7  -1   1 148.182 5.08699   8
   7  -1   1 144.179 4.32948   1
  -8   1  -1 3.88632 2.15353   3
  -8   1  -1 5.54325 2.16257   7
  -8   1  -1 9.27238 2.13445   2
  -8   1  -1 4.79554 2.23862  10
   8  -1   1 9.65825 2.27424   8
   8  -1   1 8.91571 1.66625   1
  -9   1  -1 -1.1585 1.90454   2
  -9   1  -1 2.60737 2.20645   7
  -9   1  -1 -0.1446 2.14822   3
  -9   1  -1 -2.7398 2.09081  10
   9  -1   1 -0.3793 2.08103   8
   9   0  -1 7.35245 2.32676   8
  -9   0   1 12.4937 2.82424  10
  -9   0   1 12.2400 2.79219   3
  -9   0   1 15.5186 2.72739   2
  -9   0   1 11.7314 2.80985   7
   8   0  -1 4.10945 2.00212   8
  -8   0   1 6.07320 2.33400  10
  -8   0   1 2.05413 2.12382   3
  -8   0   1 -2.5370 1.83278   7
   7   0  -1 -0.1211 1.53258   8
  -7   0   1 -0.3735 1.17381   6
  -7   0   1 0.41323 1.75964   3
  -7   0   1 2.36726 1.96614  10
   6   0  -1 -0.2308 0.84610   1
   6   0  -1 -1.6771 1.28346   8
  -6   0   1 0.63491 1.13684   6
  -6   0   1 -0.8838 1.70383   3
  -6   0   1 0.53146 1.64638  10
   5   0  -1 114.361 2.79397   1
   5   0  -1 116.466 3.65345   8
  -5   0   1 119.340 3.31521   6
  -5   0   1 118.031 4.19081   3
  -5   0   1 116.691 2.71153   1
  -5   0   1 116.804 4.33329  10
   4   0  -1 185.937 3.67053   1
   4   0  -1 187.707 4.41010   8
   4   0  -1 185.089 5.04850   9
  -4   0   1 186.737 4.91641  10
  -4   0   1 185.756 3.60623   1
  -4   0   1 192.037 4.24653   6
  -4   0   1 184.740 4.86279   3
   3   0  -1 98.6558 2.68834   8
   3   0  -1 95.0212 2.80972   5
   3   0  -1 95.8455 2.65677   4
   3   0  -1 98.2078 2.13309   1
   3   0  -1 90.1045 3.19572   9
  -3   0   1 97.7594 3.13578  10
  -3   0   1 98.3968 2.07651   1
  -3   0   1 96.2578 3.08086   3
  -3   0   1 100.708 2.65048   6
   2   0  -1 176.191 3.60713   8
   2   0  -1 179.969 3.17485   1
   2   0  -1 177.235 3.68903   5
   2   0  -1 176.931 3.73400   4
   2   0  -1 178.763 4.11512   9
  -2   0   1 179.080 3.66386   5
  -2   0   1 193.634 3.57804   8
  -2   0   1 172.018 3.73272   4
  -2   0   1 177.976 4.01308   3
  -2   0   1 175.841 4.00065  10
   1   0  -1 551.932 8.97744   5
   1   0  -1 544.309 8.89599   8
   1   0  -1 553.064 9.31184   9
   1   0  -1 548.267 9.18988   4
  -1   0   1 533.313 9.26114   3
  -1   0   1 549.724 9.27026   9
  -1   0   1 560.948 8.97750   5
  -1   0   1 547.558 9.19784   4
  -1   0   1 544.325 9.29771  10
   0   0  -1 1199.81 19.7623   7
   0   0  -1 1230.61 19.2672   5
   0   0  -1 1226.70 19.7038   1
   0   0  -1 1247.64 19.3370   8
   0   0  -1 1210.02 19.9850   9
   0   0   1 1231.38 19.7359   1
   0   0   1 1273.38 19.2797   8
   0   0   1 1253.21 19.7878   7
   0   0   1 1233.23 19.3286   5
   0   0   1 1218.06 19.4447   4
   0   0   1 1122.36 19.3657   9
   0   0   1 1167.30 19.3563   2
  -1   0  -1 0.33020 0.45771   8
  -1   0  -1 0.90106 0.49261   7
  -1   0  -1 0.16201 0.50176  10
  -1   0  -1 -0.0204 0.46952   2
  -1   0  -1 0.14812 0.50040   1
  -1   0  -1 -0.2754 0.43235   3
   1   0   1 -0.8497 0.41818   3
   1   0   1 0.39131 0.44759   2
   1   0   1 0.28777 0.48298   4
   1   0   1 -0.1320 0.51629   1
   1   0   1 -0.4831 0.47726  10
   1   0   1 0.04672 0.54944   8
   1   0   1 -0.5408 0.45589   7
  -2   0  -1 35.2743 1.72224  10
  -2   0  -1 35.2414 1.52315   1
  -2   0  -1 36.4235 1.59646   8
  -2   0  -1 37.1031 1.65787   7
  -2   0  -1 35.7043 1.21576   6
  -2   0  -1 35.1546 1.56259   3
  -2   0  -1 35.0212 1.62979   2
   2   0   1 37.0283 1.57185   1
   2   0   1 37.7589 1.53835   3
   2   0   1 35.5859 1.19292   6
   2   0   1 36.3309 1.59634  10
   2   0   1 36.7861 1.69481   8
  -3   0  -1 10.6964 1.19128   3
  -3   0  -1 8.83953 1.21569  10
  -3   0  -1 11.7331 0.84814   6
  -3   0  -1 10.2354 1.19150   2
  -3   0  -1 8.22617 1.19893   7
  -3   0  -1 9.80311 1.01695   1
   3   0   1 11.4865 1.10526   3
   3   0   1 6.34207 0.97962  10
   3   0   1 12.4045 0.84576   6
   3   0   1 9.29344 1.06119   1
   3   0   1 9.62608 1.23275   8
  -4   0  -1 59.6512 1.79781   6
  -4   0  -1 55.3497 2.38066   3
  -4   0  -1 56.8732 2.01475   1
  -4   0  -1 54.8401 2.39143   2
  -4   0  -1 54.2817 2.62040  10
  -4   0  -1 54.7482 2.51536   7
   4   0   1 51.2187 2.48718   8
   4   0   1 55.8929 1.76290   6
   4   0   1 52.3209 2.07631   1
  -5   0  -1 129.745 3.06611   6
  -5   0  -1 135.194 4.17803   7
  -5   0  -1 126.318 4.02805   3
  -5   0  -1 126.346 3.89270   2
  -5   0  -1 139.979 4.23479  10
   5   0   1 125.857 3.98935   8
   5   0   1 127.860 3.42963   1
  -6   0  -1 8.63348 1.74812   3
  -6   0  -1 6.53377 1.79491  10
  -6   0  -1 7.90487 1.10870   6
  -6   0  -1 7.14720 1.63386   7
  -6   0  -1 6.92177 1.64468   2
   6   0   1 6.90269 1.34288   1
   6   0   1 7.17091 1.77041   8
  -7   0  -1 18.0864 2.41877  10
  -7   0  -1 17.1164 2.33768   3
  -7   0  -1 19.7232 2.41590   7
  -7   0  -1 15.5327 2.24065   2
  -7   0  -1 17.6491 1.46874   6
   7   0   1 18.8251 1.81747   1
   7   0   1 14.7016 2.23404   8
  -8   0  -1 1.27124 1.95174  10
  -8   0  -1 -3.0907 1.79838   7
  -8   0  -1 -2.0093 1.83921   3
  -8   0  -1 -0.3017 1.84676   2
   8   0   1 -0.7888 1.73208   8
  -9   0  -1 9.94652 2.55989   7
  -9   0  -1 18.4614 2.92430   3
  -9   0  -1 12.6952 2.75873  10
  -9   0  -1 10.6727 2.42208   2
   9   0   1 9.87922 2.49879   8
   9  -1  -1 20.3840 2.90171   8
  -9   1   1 19.5814 2.91162   2
  -9   1   1 17.6235 3.11195   3
  -9   1   1 19.9883 3.27148   7
  -9   1   1 17.7447 3.14629  10
   8  -1  -1 -0.1672 1.78229   8
  -8   1   1 -0.3914 2.05361   3
  -8   1   1 0.10380 2.12254  10
   7  -1  -1 30.1845 2.11798   1
   7  -1  -1 27.9920 2.64439   8
  -7   1   1 26.0878 2.19762   6
  -7   1   1 27.2598 2.98782   3
  -7   1   1 23.2539 2.80123  10
   6  -1  -1 1.90349 1.07172   1
   6  -1  -1 1.21291 1.49824   8
  -6   1   1 -0.0187 1.65471   3
  -6   1   1 1.78096 1.79148  10
  -6   1   1 2.24256 1.27376   6
   5  -1  -1 4.28146 1.04776   1
   5  -1  -1 5.90337 1.49286   5
   5  -1  -1 3.03101 1.60671   9
   5  -1  -1 6.04171 1.41628   8
  -5   1   1 6.28877 1.68363  10
  -5   1   1 2.52047 1.19860   6
  -5   1   1 3.76758 1.60525   3
   4  -1  -1 419.991 8.28036   8
   4  -1  -1 423.110 7.74190   1
   4  -1  -1 435.595 8.42218   5
   4  -1  -1 434.528 8.87825   9
  -4   1   1 438.688 8.87748  10
  -4   1   1 432.411 8.23210   6
  -4   1   1 421.777 7.66472   1
  -4   1   1 425.781 8.77520   3
   3  -1  -1 29.1478 1.47797   1
   3  -1  -1 26.4490 1.83975   5
   3  -1  -1 25.4375 1.98713   9
   3  -1  -1 28.9244 1.81931   8
  -3   1   1 30.1401 1.37774   1
  -3   1   1 27.6132 1.78910   6
  -3   1   1 31.3129 2.16006   3
  -3   1   1 29.7948 2.09734  10
   2  -1  -1 231.311 4.34047   1
   2  -1  -1 235.101 4.81849   4
   2  -1  -1 229.283 4.79152   3
   2  -1  -1 236.121 4.63494   5
   2  -1  -1 227.900 4.85892  10
   2  -1  -1 235.448 4.92076   9
  -2   1   1 228.479 4.58592   5
  -2   1   1 230.262 4.91319  10
  -2   1   1 225.390 4.77250   9
  -2   1   1 235.945 4.90941   3
  -2   1   1 228.967 4.71122   6
   1  -1  -1 1225.12 19.7945   9
   1  -1  -1 1207.15 19.8432   4
   1  -1  -1 1241.63 19.7823   3
   1  -1  -1 1210.37 19.6245   5
   1  -1  -1 1209.32 19.7561  10
  -1   1   1 1194.05 19.8273   4
  -1   1   1 1216.99 19.7473   9
  -1   1   1 1226.85 19.7924  10
  -1   1   1 1230.28 19.6383   2
  -1   1   1 1210.43 19.7690   3
  -1   1   1 1220.45 19.7818   6
  -1   1   1 1230.36 19.6204   5
   0  -1  -1 312.706 5.58570   4
   0  -1  -1 317.955 5.48880   2
   0  -1  -1 314.703 5.32387  10
   0  -1  -1 314.589 5.44500   5
   0  -1  -1 308.561 5.32512   3
   0  -1  -1 305.979 5.44754   7
   0   1   1 315.680 5.46571   2
   0   1   1 314.302 5.42490   5
   0   1   1 310.383 5.59709   4
   0   1   1 308.930 5.32329   3
   0   1   1 312.466 5.32937  10
   0   1   1 311.811 5.45202   7
   0   1   1 309.927 5.53442   6
  -1  -1  -1 666.258 10.6387   4
  -1  -1  -1 671.706 10.5401  10
  -1  -1  -1 655.763 10.8655   7
  -1  -1  -1 660.944 10.9170   2
  -1  -1  -1 649.661 10.4425   3
   1   1   1 665.871 10.8838   8
   1   1   1 652.991 10.6252   4
   1   1   1 668.813 10.8655   7
   1   1   1 643.203 10.5355  10
   1   1   1 666.956 10.5616   6
   1   1   1 665.979 10.4531   3
  -2  -1  -1 14.6093 1.14308   3
  -2  -1  -1 16.1464 1.22289   1
  -2  -1  -1 13.5285 1.16202   7
  -2  -1  -1 17.1612 1.29532  10
  -2  -1  -1 12.4351 1.14966   2
  -2  -1  -1 18.3417 1.23581   8
   2   1   1 15.4235 1.02064   1
   2   1   1 13.1568 0.94765  10
   2   1   1 14.4316 0.78292   4
   2   1   1 13.0122 1.14746   8
   2   1   1 14.2435 1.12574   2
   2   1   1 15.3549 1.10537   3
   2   1   1 13.5140 1.04233   7
  -3  -1  -1 367.897 6.56055   1
  -3  -1  -1 366.249 6.88147  10
  -3  -1  -1 364.615 7.09947   2
  -3  -1  -1 359.861 6.78036   3
   3   1   1 378.044 7.01858   8
   3   1   1 363.216 6.76216   3
   3   1   1 368.709 6.86143  10
   3   1   1 364.423 6.58646   1
  -4  -1  -1 122.104 3.54241  10
  -4  -1  -1 125.232 3.64763   2
  -4  -1  -1 130.236 3.48340   3
  -4  -1  -1 128.400 3.69455   7
  -4  -1  -1 129.283 2.44375   6
  -4  -1  -1 123.252 2.99029   1
   4   1   1 123.659 3.03444   1
   4   1   1 126.837 3.55217   8
   4   1   1 127.652 2.72081   4
  -5  -1  -1 74.6864 3.15299   2
  -5  -1  -1 70.9231 3.12892   7
  -5  -1  -1 76.8922 1.85721   6
  -5  -1  -1 72.9451 3.12182  10
  -5  -1  -1 65.5093 2.66502   1
  -5  -1  -1 75.5069 2.99866   3
   5   1   1 73.9725 2.99761   8
   5   1   1 74.9776 2.15288   4
   5   1   1 69.6348 2.39225   1
  -6  -1  -1 22.5464 2.29590  10
  -6  -1  -1 24.0792 2.36691   2
  -6  -1  -1 24.4158 2.27190   3
  -6  -1  -1 25.4300 1.36443   6
  -6  -1  -1 23.6211 2.23892   7
   6   1   1 27.6531 1.58478   4
   6   1   1 22.8465 2.23749   8
   6   1   1 28.7368 1.92786   1
  -7  -1  -1 16.8914 2.32075   7
  -7  -1  -1 16.1087 2.24402   3
  -7  -1  -1 21.3746 2.48554   2
  -7  -1  -1 18.6140 2.41337  10
   7   1   1 23.5468 1.75841   1
   7   1   1 22.7753 2.46608   8
  -8  -1  -1 0.06005 1.90899   3
  -8  -1  -1 -0.5200 1.85965   2
  -8  -1  -1 0.40931 1.93399   7
  -8  -1  -1 -0.1961 1.84878  10
   8   1   1 0.52408 1.93885   8
  -9  -1  -1 33.4219 3.44068   3
  -9  -1  -1 36.2277 3.58133  10
  -9  -1  -1 36.9418 3.60951   7
  -9  -1  -1 32.7207 3.42397   2
   9   1   1 36.8294 3.42687   8
   8  -2  -1 3.70692 2.12590   8
  -8   2   1 -0.2133 2.02919   3
  -8   2   1 3.42111 2.31329  10
   7  -2  -1 -0.9884 1.22348   1
   7  -2  -1 -1.9022 1.59565   8
  -7   2   1 -0.8976 1.35358   6
  -7   2   1 0.48373 1.91484  10
  -7   2   1 -1.4926 1.73593   3
   6  -2  -1 -1.3399 1.49278   5
   6  -2  -1 -2.5120 1.45315   8
   6  -2  -1 -0.4265 1.14210   1
  -6   2   1 0.67374 1.35774   6
  -6   2   1 -1.2669 1.59519   3
  -6   2   1 0.65815 1.70420  10
   5  -2  -1 8.53860 1.65279   5
   5  -2  -1 7.00630 1.77679   9
   5  -2  -1 6.22874 1.56607   8
   5  -2  -1 6.24932 1.26598   1
  -5   2   1 7.43659 1.74845  10
  -5   2   1 9.68417 1.55058   6
  -5   2   1 6.30073 1.74933   3
   4  -2  -1 3.91787 1.37927   9
   4  -2  -1 2.43258 1.23230   8
   4  -2  -1 1.79735 1.01884   1
   4  -2  -1 1.86834 1.13331   5
  -4   2   1 4.98028 1.21259   6
  -4   2   1 2.10765 1.36031   3
  -4   2   1 3.48657 1.42014  10
   3  -2  -1 1.41504 0.88697   1
   3  -2  -1 2.74741 1.07821   5
   3  -2  -1 0.53426 1.12453   9
  -3   2   1 1.61454 1.22318  10
  -3   2   1 0.65556 1.11112   3
  -3   2   1 0.84586 1.01775   6
   2  -2  -1 43.5270 1.94169   5
   2  -2  -1 46.0041 2.19226  10
   2  -2  -1 45.9329 2.07599   9
   2  -2  -1 43.9806 1.84466   1
  -2   2   1 41.7202 2.12867   3
  -2   2   1 39.5689 1.66929   2
  -2   2   1 42.7926 2.13109  10
  -2   2   1 40.8085 2.14305   6
  -2   2   1 41.2324 1.90086   9
   1  -2  -1 466.773 8.20116   3
   1  -2  -1 460.073 8.20428   5
   1  -2  -1 461.722 8.14768   9
   1  -2  -1 469.574 8.17016  10
   1  -2  -1 472.981 7.97659   2
  -1   2   1 484.574 7.99499   2
  -1   2   1 463.557 8.37448   6
  -1   2   1 468.165 8.22906   3
  -1   2   1 466.808 8.11960   9
  -1   2   1 463.344 8.19607  10
  -1   2   1 463.374 8.16607   5
   0  -2  -1 159.190 3.15939   2
   0  -2  -1 162.043 3.07113   3
   0  -2  -1 155.054 2.95965  10
   0  -2  -1 158.937 3.32273   5
   0  -2  -1 156.337 3.10789   7
   0  -2  -1 160.730 3.41046   6
   0  -2  -1 157.619 3.40746   4
   0   2   1 162.530 3.09585   7
   0   2   1 161.274 3.15702   2
   0   2   1 162.744 2.99352  10
   0   2   1 162.455 3.10938   3
   0   2   1 160.540 3.40472   6
  -1  -2  -1 3000.72 50.5749   7
  -1  -2  -1 3045.46 49.8281   6
  -1  -2  -1 3137.00 50.2952   2
  -1  -2  -1 3125.26 49.6506   4
  -1  -2  -1 3141.57 50.1956   8
   1   2   1 3177.41 49.5910   2
   1   2   1 3100.29 49.9378   6
   1   2   1 3171.49 49.9245   7
  -2  -2  -1 162.061 3.65857   7
  -2  -2  -1 169.076 2.96804   6
  -2  -2  -1 173.708 3.81435   2
  -2  -2  -1 170.456 3.24403   3
  -2  -2  -1 163.283 3.25890  10
  -2  -2  -1 171.420 3.69464   8
   2   2   1 172.062 3.23949   3
   2   2   1 166.059 3.67675   7
   2   2   1 170.144 3.25812  10
   2   2   1 172.410 2.96402   6
   2   2   1 165.419 3.68334   2
   2   2   1 162.143 3.71419   8
  -3  -2  -1 4.59504 0.86035   3
  -3  -2  -1 4.29260 0.83105   1
  -3  -2  -1 3.78862 1.11979   2
  -3  -2  -1 3.52748 0.89457  10
  -3  -2  -1 3.92659 1.03182   7
   3   2   1 2.93325 1.07864   8
   3   2   1 4.11429 0.84827  10
   3   2   1 4.63808 0.87870   3
  -4  -2  -1 811.723 13.6786   1
  -4  -2  -1 808.886 14.1208   3
  -4  -2  -1 803.170 14.1721  10
  -4  -2  -1 816.789 14.5845   7
  -4  -2  -1 810.398 14.6257   2
   4   2   1 838.472 14.4002   8
  -5  -2  -1 115.196 3.95476   7
  -5  -2  -1 125.435 4.14005   2
  -5  -2  -1 120.311 3.73416   3
  -5  -2  -1 118.079 2.99255   1
  -5  -2  -1 126.103 3.82168  10
   5   2   1 126.668 3.94397   8
  -6  -2  -1 2.05059 1.46020   3
  -6  -2  -1 1.79747 1.44632   7
  -6  -2  -1 1.73866 1.63370   2
  -6  -2  -1 1.18391 1.39425  10
   6   2   1 0.43183 1.48262   8
  -7  -2  -1 0.72067 1.60790   3
  -7  -2  -1 2.65886 1.85700   2
  -7  -2  -1 2.47388 1.69618   7
  -7  -2  -1 1.72577 1.65348  10
   7   2   1 2.35992 1.72434   8
  -8  -2  -1 1.47982 1.86544  10
  -8  -2  -1 2.32256 1.90041   3
  -8  -2  -1 3.36943 1.99213   2
  -8  -2  -1 6.90429 2.18086   7
   8   2   1 -0.7831 1.80584   8
  -9  -2  -1 10.0219 2.60971   7
  -9  -2  -1 14.3610 2.78988   2
  -9  -2  -1 13.0645 2.66241  10
  -9  -2  -1 13.8173 2.66329   3
   9   2   1 14.6443 2.60420   8
   8  -3  -1 0.02507 2.00716   8
  -8   3   1 0.93808 1.72895   6
  -8   3   1 0.98729 2.18373   3
  -8   3   1 -2.4244 2.21985  10
   7  -3  -1 35.8128 3.10283   5
   7  -3  -1 37.5728 2.75979   1
   7  -3  -1 41.3944 3.31594   8
  -7   3   1 38.9214 3.59108  10
  -7   3   1 38.0495 2.88716   6
  -7   3   1 35.1391 3.24025   3
   6  -3  -1 12.9647 2.08373   5
   6  -3  -1 13.2334 2.19166   8
   6  -3  -1 14.4712 1.80659   1
  -6   3   1 15.6359 2.05469   6
  -6   3   1 13.4142 2.38270  10
  -6   3   1 14.2850 2.40906   3
   5  -3  -1 1.95009 1.38179   5
   5  -3  -1 4.13984 1.54383   8
   5  -3  -1 0.41545 1.14008   1
   5  -3  -1 2.00665 1.54216   9
  -5   3   1 2.08978 1.64500  10
  -5   3   1 3.35181 1.58040   3
  -5   3   1 2.23734 1.40402   6
   4  -3  -1 1.10036 1.19185   5
   4  -3  -1 0.94882 1.27284   9
   4  -3  -1 -1.2625 1.08540   1
  -4   3   1 -0.9167 1.27540  10
  -4   3   1 1.26948 1.29441   3
  -4   3   1 1.62203 1.30038   6
   3  -3  -1 6.80874 1.33835   5
   3  -3  -1 8.22161 1.37022   9
   3  -3  -1 9.06168 1.25944   1
  -3   3   1 9.60459 1.47539  10
  -3   3   1 8.05690 1.33699   6
  -3   3   1 6.07095 1.27726   3
   2  -3  -1 111.413 3.27746   5
   2  -3  -1 117.998 3.15579   9
   2  -3  -1 118.277 3.20412   1
  -2   3   1 114.703 3.32372   3
  -2   3   1 117.948 3.38859  10
  -2   3   1 112.591 2.96889   9
  -2   3   1 120.001 2.79185   2
  -2   3   1 117.556 3.39740   6
   1  -3  -1 87.8505 2.37533   9
   1  -3  -1 85.2436 2.20608   2
   1  -3  -1 88.5809 2.54488   3
   1  -3  -1 89.8004 2.52781  10
   1  -3  -1 87.4935 2.65938   5
   1  -3  -1 91.1920 2.70524   1
  -1   3   1 90.1368 2.51819  10
  -1   3   1 89.1490 2.20338   2
  -1   3   1 92.6613 2.65533   3
  -1   3   1 89.2843 2.34714   9
  -1   3   1 90.9115 2.82446   6
  -1   3   1 92.2871 2.31972   7
   0  -3  -1 615.947 10.2701   3
   0  -3  -1 587.604 10.2019   2
   0  -3  -1 622.381 10.5681   5
   0  -3  -1 621.952 10.1223   7
   0  -3  -1 607.156 10.0797  10
   0  -3  -1 600.276 10.5909   6
   0   3   1 617.507 10.1035   7
   0   3   1 605.306 10.6570   6
   0   3   1 611.164 10.2024   2
   0   3   1 612.339 10.1004  10
   0   3   1 602.562 10.2740   3
  -1  -3  -1 647.698 10.9168   7
  -1  -3  -1 653.758 11.1200   2
  -1  -3  -1 660.664 11.0719   6
  -1  -3  -1 651.469 11.2122   5
   1   3   1 636.229 11.0423   6
   1   3   1 655.622 10.8930   7
   1   3   1 659.535 11.0760   2
  -2  -3  -1 82.7002 2.03617   6
  -2  -3  -1 79.9148 2.41877   7
  -2  -3  -1 84.1464 1.89192  10
  -2  -3  -1 81.1174 2.01206   3
  -2  -3  -1 82.9385 1.94275   4
  -2  -3  -1 82.1919 2.62867   2
   2   3   1 80.0941 2.34134   7
   2   3   1 79.3271 2.04373   6
  -3  -3  -1 117.871 2.30836   6
  -3  -3  -1 115.350 3.29976   7
  -3  -3  -1 118.306 3.46449   2
  -3  -3  -1 116.456 2.83108   3
  -3  -3  -1 114.889 2.82553  10
   3   3   1 116.753 3.31749   8
   3   3   1 118.144 2.81593  10
  -4  -3  -1 147.200 4.13716   7
  -4  -3  -1 141.729 3.70249  10
  -4  -3  -1 150.237 3.65053   3
  -4  -3  -1 156.327 4.28691   2
  -4  -3  -1 138.057 3.35922   1
   4   3   1 139.244 3.93612   8
  -5  -3  -1 28.0471 2.13544  10
  -5  -3  -1 35.5037 2.28566   3
  -5  -3  -1 31.2288 2.44413   2
  -5  -3  -1 30.8721 2.48023   7
  -5  -3  -1 34.4174 2.12417   1
   5   3   1 35.0203 2.58131   8
  -6  -3  -1 -0.4691 1.67626   2
  -6  -3  -1 0.86117 1.39414  10
  -6  -3  -1 -1.4415 1.36402   7
  -6  -3  -1 -0.5341 1.32879   3
   6   3   1 -0.2336 1.40370   8
  -7  -3  -1 111.093 4.90421   2
  -7  -3  -1 111.877 4.30267   3
  -7  -3  -1 108.920 4.33149  10
  -7  -3  -1 118.821 4.92225   7
   7   3   1 106.016 4.30275   8
  -8  -3  -1 28.1464 2.89851  10
  -8  -3  -1 24.1333 2.68785   3
  -8  -3  -1 17.4077 2.67060   7
  -8  -3  -1 22.4366 2.91152   2
   8   3   1 19.7200 2.59256   8
  -9  -3  -1 8.89355 2.36482  10
  -9  -3  -1 6.78158 2.52115   7
  -9  -3  -1 13.8580 2.59155   3
  -9  -3  -1 9.00328 2.77620   2
   9   3   1 6.93600 2.40768   8
   8  -4  -1 11.7325 2.71500   8
   8  -4  -1 13.3807 2.64634   5
  -8   4   1 15.3600 2.85007   3
  -8   4   1 9.83128 2.29680   6
  -8   4   1 7.04055 2.61317  10
   7  -4  -1 41.2465 3.09287   1
   7  -4  -1 48.1083 3.64099   8
   7  -4  -1 47.7656 3.53918   5
  -7   4   1 50.4125 3.50844   6
  -7   4   1 40.2015 3.57773   3
  -7   4   1 55.7209 4.27267  10
   6  -4  -1 3.79451 1.80397   5
   6  -4  -1 -0.3732 1.68219   8
   6  -4  -1 -0.3017 1.38331   1
  -6   4   1 2.45130 1.92062  10
  -6   4   1 -1.1052 1.72729   3
  -6   4   1 0.77986 1.60050   6
   5  -4  -1 -0.4210 1.45811   9
   5  -4  -1 3.65980 1.56399   5
   5  -4  -1 3.27379 1.69996   8
   5  -4  -1 2.69156 1.45067   1
  -5   4   1 0.72476 1.50750   6
  -5   4   1 3.10845 1.77958   3
  -5   4   1 -0.0915 1.68175  10
   4  -4  -1 3.83067 1.43124   9
   4  -4  -1 0.73621 1.39274   5
   4  -4  -1 3.27201 1.36806   1
  -4   4   1 2.51963 1.49870   3
  -4   4   1 4.63738 1.56658  10
  -4   4   1 2.13700 1.41224   6
   3  -4  -1 11.2290 1.52644   5
   3  -4  -1 16.1765 1.59831   9
   3  -4  -1 16.6456 1.62657   1
  -3   4   1 15.5231 1.77956   6
  -3   4   1 12.1481 1.03115   2
  -3   4   1 15.3754 1.75785   3
  -3   4   1 14.9347 1.73254  10
   2  -4  -1 132.321 3.67073   1
   2  -4  -1 127.903 3.34957   9
   2  -4  -1 128.853 3.74043   5
  -2   4   1 132.065 3.87279   6
  -2   4   1 138.307 3.05179   2
  -2   4   1 131.363 3.14729   7
  -2   4   1 130.650 3.65105  10
  -2   4   1 129.124 3.80257   3
   1  -4  -1 254.341 4.88861   9
   1  -4  -1 247.606 5.38417   5
   1  -4  -1 243.384 5.41113   1
   1  -4  -1 251.901 5.07762  10
   1  -4  -1 256.039 4.72074   2
  -1   4   1 239.186 5.52126   6
  -1   4   1 259.197 4.70934   2
  -1   4   1 248.408 5.28961   3
  -1   4   1 254.092 4.75754   7
  -1   4   1 254.250 5.13143  10
   0  -4  -1 26.2161 1.36905   9
   0  -4  -1 24.3669 1.39814   2
   0  -4  -1 24.9035 1.30925  10
   0  -4  -1 28.2708 1.79376   5
   0  -4  -1 27.4283 1.48822   3
   0  -4  -1 25.3770 1.26879   7
   0   4   1 23.9533 1.36455   2
   0   4   1 25.4718 1.21333   7
   0   4   1 24.8916 1.84130   6
   0   4   1 26.6543 1.35319  10
  -1  -4  -1 151.739 3.70145   5
  -1  -4  -1 149.106 3.17654   3
  -1  -4  -1 151.637 3.18979   7
  -1  -4  -1 145.472 3.53354   6
  -1  -4  -1 145.987 2.83989  10
  -1  -4  -1 146.762 3.44495   2
   1   4   1 148.177 3.13714   7
   1   4   1 151.205 3.37284   2
   1   4   1 147.741 3.57609   6
  -2  -4  -1 17.5938 1.01196  10
  -2  -4  -1 18.2647 1.48173   2
  -2  -4  -1 18.1479 1.30398   7
  -2  -4  -1 17.5289 1.45781   5
  -2  -4  -1 18.4905 1.25785   6
   2   4   1 18.0988 1.36666   7
   2   4   1 16.1116 1.18634   6
  -3  -4  -1 395.116 6.98345   6
  -3  -4  -1 398.749 7.73270   7
  -3  -4  -1 398.198 6.72039   4
  -3  -4  -1 405.799 8.00170   2
  -3  -4  -1 397.717 7.10555  10
  -3  -4  -1 386.490 7.22878   3
  -4  -4  -1 0.22293 1.20459   2
  -4  -4  -1 0.74883 0.52622   6
  -4  -4  -1 0.11257 1.09949   7
  -4  -4  -1 0.19257 0.90670  10
  -4  -4  -1 -0.1110 0.91012   3
   4   4   1 -1.2927 1.19369   8
  -5  -4  -1 51.4850 2.49216   3
  -5  -4  -1 45.9075 2.95112   7
  -5  -4  -1 47.8033 3.20912   2
  -5  -4  -1 48.1117 2.49490  10
   5   4   1 46.7016 2.80961   8
  -6  -4  -1 41.1411 2.75419  10
  -6  -4  -1 44.1139 3.14789   7
  -6  -4  -1 44.1566 3.34912   2
  -6  -4  -1 41.0740 2.71389   3
  -7  -4  -1 66.4305 4.18423   2
  -7  -4  -1 68.9232 3.60542  10
  -7  -4  -1 75.1704 4.14850   7
  -7  -4  -1 69.7679 3.55494   3
   7   4   1 63.7281 3.70403   8
  -8  -4  -1 51.1788 3.56357   3
  -8  -4  -1 44.2318 3.67675   7
  -8  -4  -1 46.4232 3.40192  10
  -8  -4  -1 48.1747 3.93709   2
   8   4   1 43.1446 3.41949   8
  -9  -4  -1 0.12063 1.93983  10
  -9  -4  -1 -2.0742 2.10041   7
  -9  -4  -1 2.23028 2.03203   3
  -9  -4  -1 -3.7009 2.20143   2
   9   4   1 2.41485 2.24548   8
   8  -5  -1 27.0385 3.49939   8
   8  -5  -1 18.0123 2.99032   5
  -8   5   1 19.2626 3.30816   3
  -8   5   1 17.3130 2.70841   6
  -8   5   1 22.7885 2.98820   7
  -8   5   1 17.5498 3.25021  10
   7  -5  -1 46.0177 3.65642   5
   7  -5  -1 46.8900 3.52723   1
   7  -5  -1 46.4662 3.79878   8
  -7   5   1 48.8759 3.76260   6
  -7   5   1 43.1586 3.83417  10
  -7   5   1 45.0592 3.88435   3
   6  -5  -1 47.4791 3.23977   1
   6  -5  -1 51.0857 3.79314   8
   6  -5  -1 48.5657 3.48719   5
  -6   5   1 53.3133 4.10704   3
  -6   5   1 50.5887 3.63948   6
  -6   5   1 51.4290 3.78877  10
   5  -5  -1 7.16988 1.81756   1
   5  -5  -1 6.81315 1.89939   5
   5  -5  -1 7.99494 1.78733   9
  -5   5   1 6.00769 1.94389  10
  -5   5   1 10.0867 2.02224   6
  -5   5   1 8.27995 2.10198   3
   4  -5  -1 6.71620 1.67290   1
   4  -5  -1 5.93184 1.50251   9
   4  -5  -1 9.20368 1.86492   5
  -4   5   1 3.60538 1.67643   3
  -4   5   1 3.55937 1.65150  10
  -4   5   1 7.26826 1.78558   6
   3  -5  -1 91.3357 3.12931   9
   3  -5  -1 96.5348 3.63796   5
   3  -5  -1 94.0878 3.49216   1
  -3   5   1 98.1146 2.68717   2
  -3   5   1 91.4170 3.69191   6
  -3   5   1 92.2301 3.75506   3
  -3   5   1 101.904 3.67379  10
   2  -5  -1 141.546 3.60565   9
   2  -5  -1 140.300 4.09987   5
   2  -5  -1 139.415 4.14013   1
  -2   5   1 144.069 4.36271   6
  -2   5   1 147.696 4.21990   3
  -2   5   1 149.855 3.22370   2
  -2   5   1 148.221 3.39781   7
  -2   5   1 142.408 4.03206  10
   1  -5  -1 230.915 5.45944   1
   1  -5  -1 230.817 4.47819   2
   1  -5  -1 230.849 4.63617   9
  -1   5   1 233.959 4.45308   7
  -1   5   1 226.749 5.20770   3
  -1   5   1 233.555 4.46978   2
  -1   5   1 241.084 5.62923   6
  -1   5   1 230.344 5.00878  10
   0  -5  -1 2.25055 1.10954   5
   0  -5  -1 1.68459 0.72247  10
   0  -5  -1 2.38179 1.17668   1
   0  -5  -1 1.69185 0.80526   2
   0  -5  -1 2.09661 0.78661   9
   0  -5  -1 2.36868 0.67657   7
   0   5   1 1.02754 0.58567   7
   0   5   1 0.31246 1.07748   6
   0   5   1 1.16966 0.71169   2
  -1  -5  -1 208.785 4.17770   7
  -1  -5  -1 210.056 4.53725   2
  -1  -5  -1 214.078 4.39036   3
  -1  -5  -1 204.296 4.80669   5
  -1  -5  -1 211.577 3.98517  10
   1   5   1 208.052 4.80629   6
   1   5   1 208.795 4.13749   7
  -2  -5  -1 219.357 4.65727   7
  -2  -5  -1 223.106 5.04530   2
  -2  -5  -1 219.603 4.12697  10
  -2  -5  -1 224.319 5.10823   5
   2   5   1 221.653 4.81667   6
  -3  -5  -1 1.03442 0.99753   7
  -3  -5  -1 1.19714 0.82744   6
  -3  -5  -1 2.62747 0.73602   4
  -3  -5  -1 1.06934 0.72190  10
  -3  -5  -1 1.86939 0.84978   3
  -3  -5  -1 2.33177 1.18668   2
  -4  -5  -1 16.0235 1.12509   6
  -4  -5  -1 15.2764 1.64574   7
  -4  -5  -1 16.6654 1.92202   2
  -4  -5  -1 14.3089 1.28662  10
  -4  -5  -1 16.1166 1.41664   3
  -5  -5  -1 15.4116 2.12468   2
  -5  -5  -1 13.8087 1.90517   7
  -5  -5  -1 15.1407 1.58206  10
  -5  -5  -1 16.6561 1.69063   3
   5   5   1 17.7145 2.16913   8
  -6  -5  -1 22.0274 2.45668   7
  -6  -5  -1 24.5209 2.12310   3
  -6  -5  -1 25.0757 2.04585  10
  -6  -5  -1 22.4650 2.57388   2
   6   5   1 22.2343 2.46992   8
  -7  -5  -1 1.55357 2.06613   2
  -7  -5  -1 -1.4654 1.69981   7
  -7  -5  -1 -0.1484 1.50379   3
  -7  -5  -1 -0.3051 1.46889  10
   7   5   1 0.03704 1.81387   8
  -8  -5  -1 -0.0619 2.23948   2
  -8  -5  -1 -0.8081 2.03904   7
  -8  -5  -1 0.39282 1.68568  10
  -8  -5  -1 -1.6455 1.70210   3
   8   5   1 -0.2887 2.04592   8
   7  -6  -1 36.2901 3.28506   1
   7  -6  -1 36.1041 3.74469   8
   7  -6  -1 40.8506 3.50584   5
  -7   6   1 40.9715 3.78531  10
  -7   6   1 38.4166 3.77720   3
  -7   6   1 36.9973 3.45662   6
   6  -6  -1 82.9016 4.17568   1
   6  -6  -1 72.0859 4.57874   8
   6  -6  -1 75.1446 4.17731   5
  -6   6   1 79.5865 4.30600   6
  -6   6   1 78.8123 4.80862   3
  -6   6   1 81.9072 4.77384  10
   5  -6  -1 152.998 5.33841   5
   5  -6  -1 148.294 4.88873   9
   5  -6  -1 156.593 5.29599   1
  -5   6   1 153.106 5.58456  10
  -5   6   1 153.727 5.61785   3
  -5   6   1 151.129 5.50472   6
   4  -6  -1 34.6663 2.75736   5
   4  -6  -1 34.4427 2.55262   9
   4  -6  -1 38.7247 2.95852   1
  -4   6   1 41.2445 3.15947   6
  -4   6   1 34.4286 2.88306   3
  -4   6   1 40.6111 3.20191  10
   3  -6  -1 302.466 6.56055   9
   3  -6  -1 305.235 7.27089   5
   3  -6  -1 304.534 7.30713   1
  -3   6   1 311.189 7.25055  10
  -3   6   1 320.226 5.92882   2
  -3   6   1 309.845 7.63593   6
  -3   6   1 310.211 7.42553   3
   2  -6  -1 153.370 4.74158   1
   2  -6  -1 155.668 3.85499   9
   2  -6  -1 162.948 4.73521   5
  -2   6   1 163.953 4.50039  10
  -2   6   1 159.271 3.60321   7
  -2   6   1 167.092 4.72608   3
  -2   6   1 160.020 3.42705   2
  -2   6   1 155.134 4.84492   6
   1  -6  -1 132.411 4.20250   1
   1  -6  -1 133.251 3.20740   9
   1  -6  -1 133.670 3.07827   2
   1  -6  -1 140.349 4.22952   5
  -1   6   1 135.794 4.39022   6
  -1   6   1 140.596 3.70924  10
  -1   6   1 142.318 3.05685   2
  -1   6   1 137.978 2.98582   7
   0  -6  -1 102.585 3.58522   1
   0  -6  -1 104.491 2.72786   2
   0  -6  -1 98.2487 2.51844   9
   0  -6  -1 100.451 2.37045   7
   0  -6  -1 97.3952 3.34407   5
   0  -6  -1 99.7291 2.71845  10
   0   6   1 100.130 2.30709   7
   0   6   1 98.1447 3.58295   6
   0   6   1 96.8497 2.60150   2
  -1  -6  -1 40.0430 1.55431  10
  -1  -6  -1 34.5193 2.29609   1
  -1  -6  -1 34.2201 2.00288   2
  -1  -6  -1 37.9999 1.60165   7
  -1  -6  -1 37.5911 2.41831   5
   1   6   1 41.7143 2.43729   6
   1   6   1 35.8253 1.52821   7
  -2  -6  -1 1.08142 1.26227   5
  -2  -6  -1 1.21926 0.65501  10
  -2  -6  -1 2.38751 0.89397   7
  -2  -6  -1 1.43399 1.10932   2
   2   6   1 2.10994 1.13840   6
  -3  -6  -1 8.88258 1.12501   4
  -3  -6  -1 11.9038 1.04663  10
  -3  -6  -1 11.4733 1.29654   3
  -3  -6  -1 11.1453 1.38570   7
  -3  -6  -1 10.1224 1.57228   2
  -3  -6  -1 8.37200 1.54903   5
  -4  -6  -1 22.4507 1.99006   7
  -4  -6  -1 22.9390 1.67186  10
  -4  -6  -1 28.7426 1.99426   3
  -4  -6  -1 20.3224 2.14784   2
  -4  -6  -1 20.8887 1.21512   4
  -4  -6  -1 24.2220 1.28937   4
  -5  -6  -1 63.1865 2.79397   3
  -5  -6  -1 58.5310 3.22553   7
  -5  -6  -1 56.9769 3.61566   2
  -5  -6  -1 59.9654 2.56302  10
  -6  -6  -1 1.73194 1.65244   7
  -6  -6  -1 -0.4903 1.20202  10
  -6  -6  -1 1.46415 1.35990   3
  -6  -6  -1 -1.1792 1.67206   2
  -7  -6  -1 0.41098 2.00144   2
  -7  -6  -1 -0.4059 1.86422   7
  -7  -6  -1 -1.5377 1.55985   3
  -8  -6  -1 4.78465 2.56522   2
  -8  -6  -1 4.34813 2.16669   7
   8   6   1 3.09722 2.35697   8
   7  -7  -1 9.19193 2.62786   5
   7  -7  -1 9.54713 2.50398   1
   7  -7  -1 9.22371 2.79100   8
  -7   7   1 4.28028 2.64024   3
  -7   7   1 12.1255 2.87584  10
  -7   7   1 6.29975 2.41245   6
   6  -7  -1 8.59446 2.81203   8
   6  -7  -1 7.31651 2.27373   5
   6  -7  -1 8.76879 2.29014   1
  -6   7   1 6.81112 2.46366  10
  -6   7   1 9.05544 2.51380   3
  -6   7   1 4.95054 2.22814   6
   5  -7  -1 42.7850 3.30454   5
   5  -7  -1 44.1552 3.49012   1
  -5   7   1 42.7130 3.49521   3
  -5   7   1 48.2412 3.70789   6
  -5   7   1 42.2307 3.43024  10
   4  -7  -1 20.4759 1.97963   9
   4  -7  -1 12.7525 2.17466   5
   4  -7  -1 13.3273 2.27378   1
  -4   7   1 18.7856 2.38179  10
  -4   7   1 15.2095 2.40456   3
  -4   7   1 12.9138 2.33593   6
   3  -7  -1 11.7450 2.10864   1
   3  -7  -1 10.1772 1.45539   9
   3  -7  -1 9.29417 1.98073   5
  -3   7   1 8.01855 2.01147   6
  -3   7   1 10.4752 1.96002   3
  -3   7   1 10.7701 1.86611  10
   2  -7  -1 49.5074 3.05344   5
   2  -7  -1 44.0398 2.10459   9
   2  -7  -1 49.2792 3.30062   1
  -2   7   1 41.6882 1.81380   7
  -2   7   1 47.1006 2.67901  10
  -2   7   1 44.5473 1.63804   2
  -2   7   1 47.0508 3.20815   6
  -2   7   1 45.2929 2.97579   3
   1  -7  -1 1.59274 0.81776   2
   1  -7  -1 2.00569 1.46338   1
   1  -7  -1 0.24513 1.45271   5
   1  -7  -1 1.40223 0.83165   9
  -1   7   1 -0.5819 0.58380   7
  -1   7   1 -0.3848 1.39888   6
  -1   7   1 1.31597 0.74398   2
   0  -7  -1 7.45658 1.67929   1
   0  -7  -1 9.62795 1.16817   2
   0  -7  -1 13.1169 1.08682   9
   0  -7  -1 10.7010 1.73635   5
   0   7   1 8.24630 1.63677   6
   0   7   1 10.7155 0.81342   7
  -1  -7  -1 202.218 5.51548   1
  -1  -7  -1 206.221 5.42643   5
  -1  -7  -1 214.989 4.24028   7
  -1  -7  -1 212.144 4.36393  10
  -1  -7  -1 211.607 4.85055   2
   1   7   1 201.994 5.46616   6
  -2  -7  -1 0.01511 0.69873  10
  -2  -7  -1 -0.5523 0.85891   7
  -2  -7  -1 0.32092 1.31571   5
  -2  -7  -1 -2.3506 1.24332   1
  -2  -7  -1 -1.6884 1.08708   2
   2   7   1 0.10933 1.20197   6
  -3  -7  -1 10.6267 1.34576   7
  -3  -7  -1 10.9757 1.82604   5
  -3  -7  -1 11.8413 1.74006   2
  -3  -7  -1 11.5659 1.39546   3
  -3  -7  -1 10.1275 1.04429  10
  -4  -7  -1 112.233 3.00882   4
  -4  -7  -1 111.265 4.29427   2
  -4  -7  -1 116.725 3.04323  10
  -4  -7  -1 114.202 3.49588   3
  -4  -7  -1 122.136 4.19414   5
  -4  -7  -1 109.108 3.79498   7
  -5  -7  -1 102.320 3.51629   3
  -5  -7  -1 101.532 4.03750   7
  -5  -7  -1 105.241 4.08576   5
  -5  -7  -1 97.0460 4.40546   2
  -6  -7  -1 -2.4721 1.78377   2
  -6  -7  -1 -0.0335 1.61045   7
  -7  -7  -1 1.69328 1.95241   7
  -7  -7  -1 6.44694 2.35252   2
   6  -8  -1 4.26810 2.27661   5
   6  -8  -1 0.29547 2.14332   1
  -6   8   1 0.34728 2.21129   6
  -6   8   1 6.27117 2.57034   3
  -6   8   1 2.22709 2.25859  10
   5  -8  -1 34.8853 3.37572   1
   5  -8  -1 44.7783 3.50454   5
  -5   8   1 36.1308 3.48380   6
  -5   8   1 33.4311 3.40804   3
  -5   8   1 36.4214 3.35541  10
   4  -8  -1 6.44503 2.06109   5
   4  -8  -1 4.20328 2.06369   1
  -4   8   1 2.56710 1.87330  10
  -4   8   1 -1.1061 1.81631   3
  -4   8   1 4.14078 2.10869   6
   3  -8  -1 -0.7707 1.84390   1
   3  -8  -1 0.31549 1.78634   5
  -3   8   1 0.43872 1.66900   3
  -3   8   1 -0.5805 1.71126   6
  -3   8   1 0.25542 1.48279  10
   2  -8  -1 111.481 4.39477   5
   2  -8  -1 109.976 3.36191   9
   2  -8  -1 115.743 4.71375   1
  -2   8   1 105.361 4.62039   6
  -2   8   1 114.864 4.05287  10
   1  -8  -1 47.0991 1.85901   2
   1  -8  -1 49.0280 3.32547   5
   1  -8  -1 47.3199 1.80659   9
   1  -8  -1 51.7055 3.36437   1
  -1   8   1 49.4084 3.36554   6
   0  -8  -1 1.05546 1.02991   2
   0  -8  -1 1.86119 1.72628   1
   0  -8  -1 2.20131 1.63889   5
   0   8   1 1.87753 1.62644   6
  -1  -8  -1 66.7386 2.17608   9
  -1  -8  -1 68.5319 2.03028   7
  -1  -8  -1 66.8653 2.73191   2
  -1  -8  -1 63.3768 3.39808   1
  -1  -8  -1 62.5570 3.41663   5
  -2  -8  -1 0.27342 1.19033   2
  -2  -8  -1 -1.1593 1.50484   5
  -2  -8  -1 0.62922 0.90865   7
  -2  -8  -1 -3.0726 1.41634   1
   2   8   1 0.94655 1.39884   6
  -3  -8  -1 16.2973 1.58717   7
  -3  -8  -1 15.6424 2.12535   5
  -3  -8  -1 16.3106 1.65863   3
  -3  -8  -1 14.4044 2.01627   1
  -3  -8  -1 11.7605 1.85651   2
  -4  -8  -1 157.121 4.27534   3
  -4  -8  -1 149.624 4.97863   5
  -4  -8  -1 150.361 5.12830   2
  -4  -8  -1 154.950 4.76156   1
  -4  -8  -1 153.598 4.50544   7
  -5  -8  -1 94.3624 4.39473   2
  -5  -8  -1 82.4622 3.56469   1
  -5  -8  -1 93.0680 4.11986   5
  -5  -8  -1 89.1878 3.87397   7
  -6  -8  -1 -1.0641 1.58646   5
  -6  -8  -1 -3.0727 1.77622   2
  -6  -8  -1 2.83406 1.73380   7
  -7  -8  -1 5.29341 2.46640   2
  -7  -8  -1 5.19654 1.93306   5
  -7  -8  -1 2.04909 1.93653   7
   5  -9  -1 2.50212 2.34160   1
   5  -9  -1 7.55139 2.34693   5
  -5   9   1 -0.3282 2.00378  10
  -5   9   1 3.77274 2.33826   3
  -5   9   1 3.04791 2.35562   6
   4  -9  -1 1.55434 1.99474   5
   4  -9  -1 0.58472 2.03738   1
  -4   9   1 0.50728 1.73337  10
  -4   9   1 -3.0268 1.91471   6
   3  -9  -1 8.27882 2.40717   1
   3  -9  -1 10.6377 2.30826   5
  -3   9   1 9.08881 2.38920   6
  -3   9   1 11.0543 2.05213  10
   2  -9  -1 11.5494 2.49346   1
   2  -9  -1 19.7224 2.53159   5
  -2   9   1 14.6344 2.55100   6
   1  -9  -1 18.1680 2.43915   5
   1  -9  -1 15.2569 2.41666   1
  -1   9   1 18.2385 2.58368   6
   0  -9  -1 17.2803 2.28202   5
   0  -9  -1 13.7783 2.37102   1
   0   9   1 15.5835 2.35709   6
  -1  -9  -1 -0.4820 1.67137   1
  -1  -9  -1 0.10260 1.14712   2
  -1  -9  -1 2.99277 1.77460   5
   1   9   1 3.55516 1.75905   6
  -2  -9  -1 18.6556 2.36419   5
  -2  -9  -1 21.4849 2.52960   1
  -2  -9  -1 17.7664 1.89930   2
   2   9   1 17.3305 2.24391   6
  -3  -9  -1 4.64523 1.88453   1
  -3  -9  -1 1.97754 1.52745   2
  -3  -9  -1 1.71134 1.79199   5
  -4  -9  -1 54.6855 3.37702   1
  -4  -9  -1 55.0871 3.64369   5
  -4  -9  -1 53.6369 3.51710   2
  -5  -9  -1 94.6652 3.96200   1
  -5  -9  -1 92.4799 4.57096   2
  -5  -9  -1 92.7702 4.37892   5
  -6  -9  -1 29.7525 2.98421   5
  -6  -9  -1 27.2607 3.14526   2
   4 -10  -1 2.31772 2.26605   1
   4 -10  -1 4.16429 2.17756   5
  -4  10   1 9.29891 2.73359   6
  -4  10   1 6.26094 2.24626  10
   3 -10  -1 -1.0631 2.10725   1
   3 -10  -1 5.82057 2.20567   5
  -3  10   1 1.87131 2.15048   6
   2 -10  -1 7.04511 2.24502   5
   2 -10  -1 2.58770 2.12167   1
  -2  10   1 4.65866 2.26810   6
   1 -10  -1 6.10965 2.31530   1
   1 -10  -1 4.96218 2.17176   5
  -1  10   1 6.14412 2.17031   6
   0 -10  -1 6.20182 2.15278   5
   0 -10  -1 9.05173 2.34827   1
   0  10   1 8.30955 2.17301   6
  -1 -10  -1 25.1165 2.76166   5
  -1 -10  -1 25.2525 2.96942   1
   1  10   1 24.1135 2.70031   6
  -2 -10  -1 0.25726 1.82005   5
  -2 -10  -1 1.69132 1.85781   1
   2  10   1 0.93770 1.66018   6
  -3 -10  -1 3.47026 1.97221   1
  -3 -10  -1 4.85217 2.07994   5
  -3 -10  -1 2.80435 1.66814   2
  -4 -10  -1 7.93923 2.17216   5
  -4 -10  -1 5.26085 1.93384   1
  -4 -10  -1 2.49780 1.83586   2
  -5 -10  -1 4.80089 2.12635   5
  -5 -10  -1 -2.3223 1.83531   2
   2 -11  -1 112.193 5.78734   1
   2 -11  -1 104.533 5.23763   5
  -2  11   1 106.086 5.51988   6
   1 -11  -1 0.20069 2.05147   5
   1 -11  -1 -1.7926 2.30337   1
  -1  11   1 0.04463 2.14030   6
   0 -11  -1 0.30765 2.25271   1
   0 -11  -1 3.78207 2.12419   5
   0  11   1 2.80890 2.05651   6
  -1 -11  -1 4.67861 2.11331   5
  -1 -11  -1 5.54060 2.30582   1
   1  11   1 4.08815 2.13877   6
  -2 -11  -1 59.0470 4.26769   1
  -2 -11  -1 54.9958 4.03183   5
  -3 -11  -1 56.6045 4.11087   5
  -3 -11  -1 58.3415 4.18127   1
  -1 -11   2 -1.6877 2.06987   1
  -1 -11   2 -0.3490 2.03575   4
  -1 -11   2 1.73789 1.93921   5
   0 -11   2 -0.0980 2.18250   4
   0 -11   2 2.81304 2.26397   1
   0 -11   2 2.63379 1.95774   5
   1 -11   2 45.4834 3.47137   5
   1 -11   2 41.2603 3.87153   1
  -3 -10   2 12.2340 2.19345   5
  -3 -10   2 10.1273 2.30032   3
  -2 -10   2 2.94078 1.92607   1
  -2 -10   2 1.56875 1.76194   5
  -2 -10   2 3.92924 1.86011   4
  -1 -10   2 1.92000 2.01727   1
  -1 -10   2 -0.3365 1.72589   5
  -1 -10   2 3.57297 2.08314   4
   0 -10   2 8.88941 2.02981   5
   0 -10   2 5.72465 2.22025   1
   1 -10   2 52.0175 3.55844   5
   1 -10   2 52.1223 3.97131   1
   2 -10   2 203.400 7.12698   1
   2 -10   2 217.835 6.46979   5
   3 -10   2 12.8304 2.85824   1
   3 -10   2 21.1606 2.61200   5
  -4  10  -2 117.032 5.88000   6
   4 -10   2 122.809 5.84263   1
   4 -10   2 120.118 5.25106   5
  -5  -9   2 13.2283 2.42416   2
  -5  -9   2 14.4630 3.36153   3
  -4  -9   2 5.29632 1.83155   2
  -4  -9   2 9.60595 2.03305   3
  -4  -9   2 7.79904 1.89270   5
  -3  -9   2 7.21161 1.77419   1
  -3  -9   2 4.93384 1.71303   2
  -3  -9   2 6.60473 1.75692   5
  -3  -9   2 3.02707 1.83046   3
  -2  -9   2 -0.3209 1.59422   1
  -2  -9   2 -2.0727 1.38830   5
  -2  -9   2 2.08998 1.70485   4
  -1  -9   2 10.6365 1.86334   5
  -1  -9   2 9.31987 2.10840   4
  -1  -9   2 4.55689 1.90833   1
   0  -9   2 66.0090 3.47751   5
   0  -9   2 64.8943 3.94352   1
   1  -9   2 4.12812 1.75280   5
   1  -9   2 1.91887 1.92626   1
   2  -9   2 3.91550 1.80554   5
   2  -9   2 3.15663 2.02747   1
  -3   9  -2 22.5458 2.94753   6
   3  -9   2 21.5673 2.54709   5
   3  -9   2 19.4721 2.81420   1
  -4   9  -2 100.956 5.26763   6
   4  -9   2 96.0847 4.57169   5
   4  -9   2 98.6621 5.13281   1
  -5   9  -2 22.2979 3.23872   6
   5  -9   2 18.3333 2.70808   5
   5  -9   2 18.9043 3.04162   1
  -6  -8   2 -0.5805 1.73236   3
  -6  -8   2 1.25221 2.05476   2
  -5  -8   2 5.50737 1.69296   5
  -5  -8   2 5.92494 1.93060   3
  -5  -8   2 1.62105 1.86189   2
  -4  -8   2 13.4380 2.17470   2
  -4  -8   2 17.1929 2.30377   3
  -4  -8   2 14.1782 1.92748  10
  -4  -8   2 15.1585 2.03287   5
  -3  -8   2 7.53355 1.87686   3
  -3  -8   2 11.6378 1.84384   5
  -3  -8   2 8.50775 1.78083   2
  -3  -8   2 10.4683 1.70266   1
  -3  -8   2 10.8426 1.77517   4
  -3  -8   2 9.40901 1.74603  10
  -2  -8   2 49.7619 3.23507   4
  -2  -8   2 53.2847 3.04175   1
  -2  -8   2 51.4465 2.74468   2
  -2  -8   2 54.9298 2.94131   5
  -1  -8   2 7.47888 1.88090   4
  -1  -8   2 7.38832 1.81132   1
  -1  -8   2 6.82693 1.64612   5
  -1  -8   2 7.21737 1.27680   2
   0  -8   2 40.8167 2.73632   5
   0  -8   2 45.1314 3.21310   1
   1  -8   2 169.201 5.48691   1
   1  -8   2 163.445 4.88236   5
  -2   8  -2 198.162 6.25653   6
   2  -8   2 186.937 6.04050   1
   2  -8   2 190.844 5.54406   5
  -3   8  -2 80.6768 4.36120   6
   3  -8   2 87.4685 3.92318   5
   3  -8   2 83.8853 4.48051   1
  -4   8  -2 21.3608 2.79979   6
   4  -8   2 22.1335 2.60629   5
   4  -8   2 23.6200 2.86039   1
  -5   8  -2 5.73788 2.22869   6
   5  -8   2 13.2238 2.59974   1
   5  -8   2 9.74246 2.26084   5
  -6   8  -2 5.30888 2.32279   6
  -6   8  -2 1.11003 2.28257  10
   6  -8   2 9.13588 2.65485   1
   6  -8   2 5.31744 2.28812   5
   6  -8   2 7.74582 2.69168   8
  -6  -7   2 11.4298 2.03423  10
  -6  -7   2 7.18004 2.06628   3
  -6  -7   2 7.10340 1.70991   5
  -6  -7   2 8.57757 2.03618   7
  -6  -7   2 8.85711 2.28136   2
  -5  -7   2 36.4640 3.10286   2
  -5  -7   2 43.5717 3.25773   3
  -5  -7   2 40.1444 3.16607  10
  -5  -7   2 40.6582 3.09349   7
  -5  -7   2 42.1115 2.78657   5
  -4  -7   2 28.9112 2.58546   3
  -4  -7   2 33.3486 2.57583   7
  -4  -7   2 30.2315 2.26514   1
  -4  -7   2 25.4736 2.34789  10
  -4  -7   2 23.6944 2.44524   2
  -4  -7   2 28.7223 2.26416   5
  -3  -7   2 1.61973 1.43911   2
  -3  -7   2 -0.2764 1.11855   7
  -3  -7   2 2.12793 1.39607  10
  -3  -7   2 2.58813 1.29047   1
  -3  -7   2 0.64115 1.28240   5
  -3  -7   2 0.63446 1.21706   4
  -3  -7   2 0.71588 1.50587   3
  -2  -7   2 25.3517 2.03533   5
  -2  -7   2 32.4971 2.52740   4
  -2  -7   2 28.7341 2.21238   1
  -2  -7   2 28.6316 1.72866   7
  -2  -7   2 29.6590 2.15917   2
  -1  -7   2 59.2714 3.26093   4
  -1  -7   2 62.2736 2.50612   2
  -1  -7   2 65.9882 2.84535   5
  -1  -7   2 54.4927 3.09419   1
   0  -7   2 6.32072 0.92485   2
   0  -7   2 5.94235 1.46750   5
   0  -7   2 5.03697 1.65315   1
   1  -7   2 1.60134 1.42510   5
   1  -7   2 0.73573 1.58836   1
  -2   7  -2 100.793 4.44623   6
   2  -7   2 101.500 3.80107   5
   2  -7   2 96.2236 4.27836   1
  -3   7  -2 127.026 4.87247   6
   3  -7   2 117.069 4.24579   5
   3  -7   2 124.940 4.77258   1
  -4   7  -2 76.7762 4.11297   6
   4  -7   2 77.7735 4.04831   1
   4  -7   2 81.0072 3.85059   5
  -5   7  -2 13.4064 2.37647   6
  -5   7  -2 11.5841 2.43005  10
   5  -7   2 9.26466 2.27990   1
   5  -7   2 11.8550 2.16585   5
  -6   7  -2 37.9654 3.36055   6
  -6   7  -2 37.2532 3.57603  10
   6  -7   2 48.7647 3.86969   1
   6  -7   2 41.0349 3.37483   5
   6  -7   2 47.5589 3.97552   8
  -7   7  -2 1.78244 2.40616  10
  -7   7  -2 -1.4772 2.23007   3
  -7   7  -2 3.63052 2.11892   6
   7  -7   2 0.65640 2.23138   8
   7  -7   2 4.25534 2.26005   5
   7  -7   2 7.05718 2.49189   1
  -7  -6   2 8.27415 2.24768   3
  -7  -6   2 4.78196 2.28083   2
  -7  -6   2 5.03773 2.06775  10
  -7  -6   2 10.4542 2.44057   7
  -6  -6   2 1.14549 1.72546   7
  -6  -6   2 -2.2532 1.66632   2
  -6  -6   2 -1.9380 1.59495   3
  -6  -6   2 -0.7649 1.59187  10
  -5  -6   2 28.0113 2.76264   2
  -5  -6   2 29.0809 2.64022   3
  -5  -6   2 33.2833 2.62859  10
  -5  -6   2 34.2633 2.68978   7
  -4  -6   2 9.29173 1.69440   7
  -4  -6   2 5.46046 1.71882   3
  -4  -6   2 9.18163 1.35064   4
  -4  -6   2 8.40430 1.71220  10
  -4  -6   2 10.1335 1.29358   1
  -4  -6   2 9.34614 1.51431   5
  -3  -6   2 27.6267 2.35886   3
  -3  -6   2 29.5648 2.21011   4
  -3  -6   2 32.2099 2.35724  10
  -3  -6   2 30.3608 2.15816   5
  -3  -6   2 26.1553 2.02860   1
  -3  -6   2 24.5854 1.89732   7
  -2  -6   2 5.54935 1.35777   4
  -2  -6   2 8.67821 1.37672   2
  -2  -6   2 7.46019 1.10042   9
  -2  -6   2 3.28299 1.25071   1
  -2  -6   2 8.20690 1.33740   5
  -2  -6   2 5.86918 1.05331   7
  -1  -6   2 74.2457 2.96861   1
  -1  -6   2 71.8622 1.93355   7
  -1  -6   2 65.2549 3.11601   4
  -1  -6   2 66.1696 2.66174   5
  -1  -6   2 69.8942 2.50961   2
  -1  -6   2 71.5636 1.89490   7
   0  -6   2 11.2637 1.71285   1
   0  -6   2 11.5689 1.00755   2
   0  -6   2 8.68536 1.33560   5
  -1   6  -2 63.2704 3.18673   6
   1  -6   2 59.3248 3.01039   1
   1  -6   2 58.2796 2.69184   5
  -2   6  -2 111.141 4.09798   6
   2  -6   2 116.026 4.13219   1
   2  -6   2 104.508 3.62587   5
  -3   6  -2 4.68585 1.68473   6
  -3   6  -2 3.43762 0.80873   9
  -3   6  -2 4.12299 0.69893   7
   3  -6   2 6.02618 1.80306   1
   3  -6   2 2.73397 1.45677   5
  -4   6  -2 -1.1871 1.46065  10
  -4   6  -2 -1.7933 1.47551   6
  -4   6  -2 -1.2722 0.85075   7
   4  -6   2 0.18299 1.50554   5
   4  -6   2 0.47684 1.57306   1
  -5   6  -2 10.5796 1.45290   7
  -5   6  -2 11.9735 2.20265   6
  -5   6  -2 11.0476 2.31169   3
  -5   6  -2 10.9602 2.24778  10
   5  -6   2 9.43489 1.92352   5
   5  -6   2 6.42045 2.07103   8
   5  -6   2 13.8469 2.33021   1
  -6   6  -2 2.79326 2.17164  10
  -6   6  -2 2.18698 2.12751   3
  -6   6  -2 0.43099 1.77817   6
  -6   6  -2 2.84653 1.37349   7
   6  -6   2 -0.6807 1.73645   5
   6  -6   2 -1.0136 1.91978   8
   6  -6   2 4.87066 1.99683   1
  -7   6  -2 9.52882 2.66946   3
  -7   6  -2 8.94815 2.28224   6
  -7   6  -2 14.7071 2.83762  10
  -7   6  -2 10.8585 1.92411   7
   7  -6   2 11.2688 2.45045   1
   7  -6   2 9.90531 2.63618   8
   7  -6   2 12.2633 2.42651   5
  -8   6  -2 -0.1339 2.46872  10
  -8   6  -2 2.21557 2.03146   6
  -8   6  -2 -1.3940 2.42270   3
   8  -6   2 0.47117 2.18335   1
   8  -6   2 0.06513 2.32142   8
   8  -6   2 -0.0127 2.11714   5
  -7  -5   2 5.91305 2.17981   7
  -7  -5   2 12.3877 2.52632   2
  -7  -5   2 9.57786 2.27184  10
  -7  -5   2 6.24559 2.18418   3
  -6  -5   2 10.8442 2.14742   7
  -6  -5   2 10.2936 2.06317  10
  -6  -5   2 13.3987 2.24312   3
  -5  -5   2 24.0345 2.34294  10
  -5  -5   2 25.5817 2.50457   3
  -4  -5   2 53.5291 2.27286   4
  -4  -5   2 53.2282 3.10019   3
  -4  -5   2 54.2744 1.86506   1
  -4  -5   2 49.7432 2.91858  10
  -3  -5   2 40.3182 2.70530   3
  -3  -5   2 40.9870 1.86402   1
  -3  -5   2 36.6049 2.13309   5
  -3  -5   2 39.3832 2.58854  10
  -3  -5   2 36.2213 2.14146   4
  -2  -5   2 18.9125 1.44076   9
  -2  -5   2 14.1527 1.54471   4
  -2  -5   2 17.0866 1.43317   1
  -2  -5   2 18.9250 1.48898   5
  -1  -5   2 11.5214 1.39776   1
  -1  -5   2 10.9773 1.48591   4
  -1  -5   2 12.7385 0.95928   9
  -1  -5   2 10.4550 1.18797   5
   0  -5   2 10.0898 1.43365   1
   0  -5   2 9.11133 1.17212   5
  -1   5  -2 1.61843 1.27847   6
   1  -5   2 0.54238 1.21361   1
   1  -5   2 0.82574 0.99467   5
  -2   5  -2 109.505 3.77167   6
   2  -5   2 103.838 3.74423   1
   2  -5   2 104.275 3.30580   5
  -3   5  -2 208.963 4.29905   9
  -3   5  -2 210.676 5.60399   6
  -3   5  -2 205.147 5.61491  10
  -3   5  -2 207.506 4.17743   7
   3  -5   2 212.876 5.22015   5
   3  -5   2 213.534 5.58109   1
  -4   5  -2 31.6277 2.64531  10
  -4   5  -2 26.2733 2.30511   6
  -4   5  -2 31.3210 2.65127   3
  -4   5  -2 29.5979 1.85222   7
   4  -5   2 30.3778 2.57148   1
   4  -5   2 26.8159 2.30874   5
  -5   5  -2 85.8616 4.16199   3
  -5   5  -2 93.2916 3.28628   7
  -5   5  -2 90.2384 3.90146   6
  -5   5  -2 91.7759 2.48898   2
  -5   5  -2 86.1518 4.37196  10
   5  -5   2 90.4296 4.10865   8
   5  -5   2 86.1039 3.97228   1
   5  -5   2 83.8020 3.73121   5
  -6   5  -2 90.0178 3.65617   7
  -6   5  -2 86.4295 4.53485  10
  -6   5  -2 88.1805 4.07441   6
  -6   5  -2 84.8287 3.01722   2
  -6   5  -2 87.6227 4.69519   3
   6  -5   2 78.8119 4.21415   8
   6  -5   2 84.6635 4.20997   1
   6  -5   2 88.4066 4.17574   5
  -7   5  -2 17.2127 2.99163  10
  -7   5  -2 22.5046 2.63189   6
  -7   5  -2 14.5003 2.74493   3
  -7   5  -2 15.1551 2.11976   7
   7  -5   2 21.3802 2.72486   1
   7  -5   2 10.9612 2.35337   5
   7  -5   2 16.0962 2.82343   8
  -8   5  -2 -0.0728 1.72486   7
  -8   5  -2 -1.5309 1.64903   6
  -8   5  -2 -2.6099 2.19470   3
  -8   5  -2 -1.2034 2.31676  10
   8  -5   2 -0.0661 1.99381   1
   8  -5   2 -1.5295 1.99815   5
   8  -5   2 4.18421 2.49115   8
  -8  -4   2 4.59958 2.37518   2
  -8  -4   2 -0.2229 2.03005  10
  -8  -4   2 -2.5076 1.91954   3
  -8  -4   2 -3.4183 1.96433   7
   7   4  -2 2.28978 1.65426   8
  -7  -4   2 2.46132 1.97219   7
  -7  -4   2 0.28764 1.78547   3
  -7  -4   2 1.09011 1.92015  10
   6   4  -2 6.25914 1.58010   8
  -6  -4   2 7.67380 2.03848  10
  -6  -4   2 5.33750 1.92710   3
   5   4  -2 45.2299 2.58127   8
  -5  -4   2 43.1415 1.89885   4
  -5  -4   2 40.3548 3.12231  10
  -5  -4   2 46.3921 3.18305   3
  -4  -4   2 227.446 5.83425  10
  -4  -4   2 230.753 5.86347   3
  -4  -4   2 225.488 4.83110   4
  -3  -4   2 15.9463 1.38479   4
  -3  -4   2 13.0114 1.61778  10
  -3  -4   2 13.2256 1.02731   1
  -3  -4   2 17.3981 1.79775   3
  -2  -4   2 80.8843 3.16521   9
  -2  -4   2 99.5128 2.62150   5
  -2  -4   2 98.5005 2.96318   4
  -2  -4   2 99.1984 2.57425   1
  -1  -4   2 21.6728 1.47780   1
  -1  -4   2 21.7514 1.42259   5
  -1  -4   2 21.9990 1.29549   9
  -1  -4   2 22.2845 1.83278   4
   0   4  -2 535.288 9.22775   5
   0  -4   2 521.499 8.69720   7
   0  -4   2 542.487 9.29670   5
   0  -4   2 525.585 9.72773   1
   1  -4   2 550.679 10.1952   1
   1  -4   2 542.306 9.68688   5
  -2   4  -2 79.7665 2.98992   6
  -2   4  -2 71.9614 1.87922   9
  -2   4  -2 74.9914 1.82946   7
   2  -4   2 77.1352 2.95192   1
   2  -4   2 74.9731 2.55963   5
  -3   4  -2 9.74028 1.00475   7
  -3   4  -2 7.49713 1.48533  10
  -3   4  -2 7.53896 0.97813   9
  -3   4  -2 11.5453 1.64081   6
   3  -4   2 5.76866 1.40235   1
   3  -4   2 8.21282 1.41626   5
  -4   4  -2 122.587 4.26774   3
  -4   4  -2 120.197 3.38829   7
  -4   4  -2 129.173 4.10925   6
  -4   4  -2 124.401 2.81863   2
  -4   4  -2 123.069 4.36464  10
   4  -4   2 120.720 4.12287   8
   4  -4   2 130.836 4.18879   1
   4  -4   2 129.491 3.98592   5
  -5   4  -2 18.8740 2.27007   3
  -5   4  -2 17.9734 1.71184   7
  -5   4  -2 18.5617 1.42052   2
  -5   4  -2 16.1572 1.96510   6
  -5   4  -2 17.1064 2.23194  10
   5  -4   2 15.9080 1.93476   5
   5  -4   2 18.5558 2.30176   8
   5  -4   2 15.6903 2.03837   1
  -6   4  -2 75.1201 4.25132  10
  -6   4  -2 82.1614 3.02804   2
  -6   4  -2 81.3010 3.64375   7
  -6   4  -2 86.9711 3.74980   6
  -6   4  -2 81.4719 4.38376   3
   6  -4   2 84.8963 4.05774   8
   6  -4   2 83.0827 3.95154   5
   6  -4   2 81.0453 3.89758   1
  -7   4  -2 -0.8662 1.94085   3
  -7   4  -2 -1.7663 1.50898   6
  -7   4  -2 -1.0545 1.86688  10
  -7   4  -2 -1.1025 1.26988   2
  -7   4  -2 1.72267 1.58125   7
   7  -4   2 0.56701 1.73825   1
   7  -4   2 0.43926 2.01225   8
   7  -4   2 3.59981 1.94592   5
  -8   4  -2 3.48262 1.97321   7
  -8   4  -2 0.65002 2.16369  10
  -8   4  -2 1.33593 2.27149   3
  -8   4  -2 -0.5312 1.62252   6
   8  -4   2 -0.6976 1.84693   1
   8  -4   2 2.25985 2.17803   8
   8   3  -2 2.02515 2.73661   8
  -8  -3   2 1.11794 2.04662  10
  -8  -3   2 -2.0197 2.04196   7
  -8  -3   2 -2.4066 1.92271   3
   7   3  -2 2.32886 1.56827   8
  -7  -3   2 1.62060 1.96398   3
  -7  -3   2 1.68120 1.92028  10
   6   3  -2 18.2467 1.90310   8
  -6  -3   2 14.5743 2.29158   3
  -6  -3   2 16.4166 2.36283  10
   5   3  -2 -1.1835 1.12980   8
   5   3  -2 -0.4514 0.78338   4
  -5  -3   2 -0.5421 1.39918  10
  -5  -3   2 -1.0226 1.40031   3
  -5  -3   2 1.44558 0.92286   4
   4   3  -2 364.302 6.76199   4
   4   3  -2 345.422 6.90740   8
  -4  -3   2 361.243 7.78787  10
  -4  -3   2 339.279 7.68910   3
  -4  -3   2 348.912 6.75315   4
   3   3  -2 221.129 4.89236   4
   3   3  -2 237.305 5.58613   9
  -3  -3   2 248.798 4.86732   8
  -3  -3   2 240.274 5.61191  10
  -3  -3   2 244.567 5.02518   4
  -3  -3   2 253.395 5.74158   3
   2   3  -2 4.14041 1.08802   9
   2   3  -2 6.64891 0.95021   4
  -2  -3   2 4.77767 0.98173   4
  -2  -3   2 4.64121 1.21013   3
  -2  -3   2 4.91968 1.32558   9
  -2  -3   2 6.38604 1.23375  10
  -2  -3   2 6.09791 0.77156   1
  -2  -3   2 5.08241 0.82349   8
   1   3  -2 2231.13 35.8562   1
   1   3  -2 2202.58 35.8935   9
  -1  -3   2 2281.78 35.9000   9
  -1  -3   2 2219.86 36.3595   4
  -1  -3   2 2286.12 35.9353   1
  -1  -3   2 2252.20 35.6997   5
   0   3  -2 596.209 9.72676   5
   0   3  -2 571.203 9.50037   9
   0   3  -2 569.702 10.0808   1
   0  -3   2 563.497 9.54519   7
   0  -3   2 580.178 10.5132   4
   0  -3   2 587.818 10.1971   1
   0  -3   2 587.866 9.74223   5
  -1   3  -2 314.690 5.36650   7
  -1   3  -2 325.979 5.85157   5
   1  -3   2 318.742 6.29331   1
   1  -3   2 305.445 5.83871   5
   1  -3   2 318.578 5.34960   7
   1  -3   2 314.888 5.34060   2
  -2   3  -2 23.3487 1.73708   6
  -2   3  -2 24.4262 1.24089   7
   2  -3   2 24.5588 1.69315   5
   2  -3   2 25.5161 1.91625   1
  -3   3  -2 428.944 8.31049   6
  -3   3  -2 408.077 7.67847   9
  -3   3  -2 416.085 8.45008  10
  -3   3  -2 415.722 7.63451   7
  -3   3  -2 420.528 7.18306   2
   3  -3   2 414.585 8.05051   5
   3  -3   2 429.069 8.39457   1
  -4   3  -2 30.0104 1.62267   2
  -4   3  -2 28.5920 2.20867  10
  -4   3  -2 27.7051 2.16148   3
  -4   3  -2 34.7728 2.27865   6
  -4   3  -2 29.4950 1.97396   7
   4  -3   2 31.1978 2.28519   5
   4  -3   2 33.2925 2.37706   8
   4  -3   2 31.2791 2.21521   1
  -5   3  -2 35.2626 2.70923   3
  -5   3  -2 33.0995 2.37384   6
  -5   3  -2 35.7980 2.42580   7
  -5   3  -2 38.1085 2.97673  10
  -5   3  -2 38.4520 2.10496   2
   5  -3   2 37.6688 2.71306   8
   5  -3   2 33.3606 2.42812   5
   5  -3   2 36.6806 2.69521   1
  -6   3  -2 230.075 6.68042  10
  -6   3  -2 219.266 5.35061   2
  -6   3  -2 215.924 5.81957   7
  -6   3  -2 224.705 5.74337   6
  -6   3  -2 221.018 6.48554   3
   6  -3   2 219.001 6.25667   8
   6  -3   2 219.233 5.93173   1
   6  -3   2 218.993 6.05543   5
  -7   3  -2 21.1908 2.44238   7
  -7   3  -2 23.8097 2.85068   3
  -7   3  -2 25.8100 2.39546   6
  -7   3  -2 24.2171 2.15412   2
  -7   3  -2 24.6112 2.90846  10
   7  -3   2 23.2382 2.54575   1
   7  -3   2 30.7214 3.00903   8
  -8   3  -2 18.6651 2.23090   6
  -8   3  -2 16.1929 2.84728   3
  -8   3  -2 19.3435 2.84201  10
  -8   3  -2 19.8308 2.36785   2
  -8   3  -2 17.1574 2.52075   7
   8  -3   2 20.0741 2.51206   1
   8  -3   2 16.6250 2.77278   8
  -9   3  -2 -1.6916 1.98581   7
  -9   3  -2 -1.8056 2.27613   3
  -9   3  -2 -0.9549 2.28201  10
  -9   3  -2 0.11160 1.90142   2
   9  -3   2 -0.7867 1.86874   1
   9  -3   2 -0.4003 2.25325   8
   8   2  -2 12.0543 2.09081   8
  -8  -2   2 11.9230 2.57159  10
  -8  -2   2 12.1398 2.56111   3
   7   2  -2 -0.9755 1.42760   8
  -7  -2   2 -0.4451 1.81507   3
  -7  -2   2 0.59893 1.92750  10
   6   2  -2 31.0437 2.26914   8
  -6  -2   2 33.9685 2.18467   6
  -6  -2   2 31.2397 2.80637  10
  -6  -2   2 35.5710 2.94705   3
   5   2  -2 169.744 4.40945   8
  -5  -2   2 177.636 4.18387   4
  -5  -2   2 180.633 5.39111  10
  -5  -2   2 170.855 5.21778   3
   4   2  -2 75.1246 2.48301   4
   4   2  -2 79.4058 2.55374   8
   4   2  -2 79.0721 3.43266   9
  -4  -2   2 79.9936 2.55412   4
  -4  -2   2 84.5015 3.36071   3
  -4  -2   2 79.7161 3.32664  10
   3   2  -2 508.010 9.00183   8
   3   2  -2 524.144 9.26293   4
  -3  -2   2 506.266 8.98428   8
  -3  -2   2 511.584 9.25145   4
  -3  -2   2 524.649 9.95777   3
  -3  -2   2 518.235 9.90712  10
   2   2  -2 19.5091 1.51347   4
   2   2  -2 20.2755 1.23186   8
   2   2  -2 21.9718 1.78530   9
  -2  -2   2 22.8265 1.64997  10
  -2  -2   2 21.3767 1.63545   3
  -2  -2   2 24.3444 1.61164   4
  -2  -2   2 21.3393 1.14447   8
   1   2  -2 110.218 2.72909   9
   1   2  -2 111.375 2.85983   4
   1   2  -2 108.101 2.32754   1
  -1  -2   2 104.216 2.22238   8
  -1  -2   2 105.206 2.37363   1
  -1  -2   2 104.933 2.89880   4
  -1  -2   2 104.829 2.65461   9
   0   2  -2 8.88036 0.95344   1
   0   2  -2 8.65680 0.81594   9
   0   2  -2 6.97155 0.62041   5
   0  -2   2 7.43257 0.64484   5
   0  -2   2 7.05603 0.84451   2
   0  -2   2 7.30256 1.09203   4
   0  -2   2 8.68646 0.81354   7
   0  -2   2 8.64403 1.01519   1
  -1   2  -2 6.37958 0.96324   1
  -1   2  -2 6.95673 0.80746   5
  -1   2  -2 6.17495 0.71307   7
  -1   2  -2 8.03317 0.69905   2
   1  -2   2 7.61028 0.88632   5
   1  -2   2 6.43266 0.69894   2
   1  -2   2 8.80487 1.20115   1
   1  -2   2 7.00125 0.69184   7
  -2   2  -2 407.568 7.77550  10
  -2   2  -2 395.483 7.30409   5
  -2   2  -2 414.093 7.64398   6
  -2   2  -2 410.411 6.93418   2
  -2   2  -2 407.749 7.17551   7
   2  -2   2 404.992 7.35483   5
   2  -2   2 415.463 6.90786   2
   2  -2   2 404.211 7.67797   1
   2  -2   2 422.541 7.18894   7
   2  -2   2 402.254 7.55789   8
  -3   2  -2 859.976 15.0014   3
  -3   2  -2 857.995 14.4863   7
  -3   2  -2 851.058 14.1567   2
  -3   2  -2 836.839 14.6398   6
  -3   2  -2 855.916 15.0360  10
   3  -2   2 848.846 14.8734   8
   3  -2   2 872.801 14.9017   1
   3  -2   2 840.252 14.6161   5
  -4   2  -2 6.62607 1.03182   2
  -4   2  -2 5.45126 1.39725   3
  -4   2  -2 6.22737 1.20325   6
  -4   2  -2 4.30679 1.12089   7
  -4   2  -2 6.80810 1.42596  10
   4  -2   2 6.32237 1.35992   1
   4  -2   2 5.09696 1.29185   5
   4  -2   2 5.03414 1.30495   8
  -5   2  -2 3.32238 1.15062   2
  -5   2  -2 3.90404 1.25009   7
  -5   2  -2 2.30919 1.14805   6
  -5   2  -2 2.08085 1.43394  10
  -5   2  -2 3.12075 1.50012   3
   5  -2   2 2.96368 1.38392   5
   5  -2   2 2.33651 1.47418   8
   5  -2   2 5.24968 1.42881   1
  -6   2  -2 283.505 7.04292   7
  -6   2  -2 285.605 6.61307   2
  -6   2  -2 298.441 6.51237   6
  -6   2  -2 300.080 7.53487   3
  -6   2  -2 288.301 7.54480  10
   6  -2   2 306.815 7.34286   8
   6  -2   2 294.035 6.85831   1
  -7   2  -2 -0.6469 1.47426   7
  -7   2  -2 2.52247 1.37987   6
  -7   2  -2 2.64822 1.87897   3
  -7   2  -2 -1.0487 1.79021  10
  -7   2  -2 -1.7996 1.36238   2
   7  -2   2 2.17364 1.86427   8
   7  -2   2 0.15762 1.51663   1
  -8   2  -2 1.86843 2.01896   3
  -8   2  -2 2.33270 1.98107   7
  -8   2  -2 3.32076 2.17634  10
  -8   2  -2 3.17973 1.78156   2
   8  -2   2 2.85587 1.66503   1
   8  -2   2 1.67355 2.12866   8
  -9   2  -2 5.67894 2.47124   3
  -9   2  -2 6.73485 2.62030  10
  -9   2  -2 7.88424 2.22039   2
  -9   2  -2 2.95856 2.19413   7
   9  -2   2 9.21082 2.65106   8
   8   1  -2 0.89217 1.76287   8
  -8  -1   2 3.72981 2.34109  10
  -8  -1   2 3.76666 2.22176   3
   7   1  -2 55.7696 3.18404   8
  -7  -1   2 61.8653 4.12515   3
  -7  -1   2 60.0136 4.03482  10
   6   1  -2 9.02272 1.63607   8
  -6  -1   2 6.97481 1.92220   3
  -6  -1   2 13.2391 1.57463   6
  -6  -1   2 11.3520 2.15227  10
   5   1  -2 221.775 6.26351   9
   5   1  -2 217.929 5.12711   8
  -5  -1   2 227.022 6.15530  10
  -5  -1   2 217.538 5.06780   6
  -5  -1   2 222.133 6.00363   3
   4   1  -2 34.3868 2.53584   9
   4   1  -2 33.3785 1.83238   8
  -4  -1   2 37.9521 2.48249  10
  -4  -1   2 32.4246 1.97315   4
  -4  -1   2 32.4745 2.40697   3
   3   1  -2 235.643 4.96762   4
   3   1  -2 234.818 4.64401   8
   3   1  -2 235.879 5.54787   9
  -3  -1   2 236.156 5.49088  10
  -3  -1   2 239.141 5.52502   3
  -3  -1   2 239.026 4.99432   4
  -3  -1   2 239.936 4.65385   8
   2   1  -2 645.095 10.6855   8
   2   1  -2 661.235 11.2696   4
   2   1  -2 650.423 11.5473   9
  -2  -1   2 631.667 11.5393  10
  -2  -1   2 647.362 11.5766   3
  -2  -1   2 652.959 10.8391   5
  -2  -1   2 638.751 11.2379   4
  -2  -1   2 653.435 10.6823   8
   1   1  -2 39.1214 1.81581   9
   1   1  -2 37.0928 1.13667   1
   1   1  -2 34.8210 1.66421   4
  -1  -1   2 35.0051 1.95309   3
  -1  -1   2 34.6976 1.70950   9
  -1  -1   2 34.7628 1.13409   1
  -1  -1   2 36.6729 1.09778   5
  -1  -1   2 34.8284 0.91090   8
  -1  -1   2 34.8925 1.83000   4
   0   1  -2 111.934 2.49583   9
   0   1  -2 106.771 2.49957   7
   0   1  -2 104.223 2.38844   1
   0   1  -2 101.528 2.73713   4
   0   1  -2 110.938 2.53633   2
   0  -1   2 106.048 2.52961   2
   0  -1   2 103.671 2.76957   4
   0  -1   2 105.421 2.44691   1
   0  -1   2 106.228 2.45834   7
  -1   1  -2 896.724 15.0826   2
  -1   1  -2 914.699 15.1315   7
  -1   1  -2 961.029 14.9834   5
   1  -1   2 922.891 15.1367   7
   1  -1   2 940.469 15.4007   1
   1  -1   2 925.488 15.1678   8
   1  -1   2 954.261 15.6028   4
   1  -1   2 946.445 14.9843   5
   1  -1   2 918.307 15.0735   2
  -2   1  -2 21.3088 1.56905   1
  -2   1  -2 23.5599 1.71823   3
  -2   1  -2 22.6069 1.36486   2
  -2   1  -2 23.7110 1.45519   7
  -2   1  -2 23.1154 1.43798   5
  -2   1  -2 23.2446 1.50784   8
  -2   1  -2 19.6682 1.39055  10
   2  -1   2 23.7083 1.72553   8
   2  -1   2 24.9847 1.42344   7
   2  -1   2 23.8306 1.49722   6
   2  -1   2 22.1189 1.60552   3
   2  -1   2 24.4484 1.27314   2
   2  -1   2 24.1759 1.47906   5
   2  -1   2 23.3594 1.80926   1
  -3   1  -2 29.2549 1.73197   7
  -3   1  -2 32.0024 2.02598  10
  -3   1  -2 31.4927 1.70088   6
  -3   1  -2 33.8712 2.00103   3
  -3   1  -2 31.4082 1.67737   2
   3  -1   2 34.9254 1.88624   5
   3  -1   2 30.4001 1.58293   6
   3  -1   2 27.5814 1.86850   1
   3  -1   2 26.5911 1.95453   8
  -4   1  -2 12.3540 1.18340   6
  -4   1  -2 13.5163 1.30760   2
  -4   1  -2 10.7149 1.34208   7
  -4   1  -2 12.4206 1.51800   3
  -4   1  -2 14.3397 1.58788  10
   4  -1   2 12.5348 1.44381   1
   4  -1   2 11.9670 1.07556   6
   4  -1   2 14.4745 1.58215   8
  -5   1  -2 86.2893 3.11880   2
  -5   1  -2 87.0792 3.49533  10
  -5   1  -2 86.3579 3.25720   7
  -5   1  -2 83.8434 3.42170   3
  -5   1  -2 89.7654 2.75877   6
   5  -1   2 90.0795 3.14619   1
   5  -1   2 79.2058 3.34021   8
  -6   1  -2 163.450 5.00754   7
  -6   1  -2 160.958 5.06342   3
  -6   1  -2 162.352 4.02952   6
  -6   1  -2 156.310 4.67675   2
  -6   1  -2 156.247 5.10227  10
   6  -1   2 155.547 4.51121   1
   6  -1   2 163.362 5.01118   8
  -7   1  -2 11.2339 1.45851   6
  -7   1  -2 9.00796 2.10076  10
  -7   1  -2 10.0096 1.92508   2
  -7   1  -2 8.96239 1.96027   7
  -7   1  -2 8.11925 1.99312   3
   7  -1   2 10.7068 2.13134   8
   7  -1   2 9.87018 1.79255   1
  -8   1  -2 11.2435 2.13050   2
  -8   1  -2 12.6897 2.45371   3
  -8   1  -2 11.5879 2.34972   7
  -8   1  -2 12.6642 2.50231  10
   8  -1   2 15.1679 2.06909   1
   8  -1   2 12.8049 2.41913   8
  -9   1  -2 0.84279 1.86637   2
  -9   1  -2 -0.9581 2.10797   3
  -9   1  -2 0.00745 2.07767   7
  -9   1  -2 -2.1313 1.98973  10
   9  -1   2 1.94979 2.13375   8
   8   0  -2 2.55191 1.76929   8
  -8   0   2 2.74048 2.19063   3
  -8   0   2 5.02769 2.37641  10
   7   0  -2 282.119 7.03496   8
  -7   0   2 293.707 8.12751  10
  -7   0   2 288.415 6.71028   6
  -7   0   2 276.070 8.00742   3
   6   0  -2 62.9045 3.81872   9
   6   0  -2 63.5287 3.11348   8
  -6   0   2 65.1902 3.78523   3
  -6   0   2 64.1616 3.94007  10
  -6   0   2 64.2889 2.96051   6
   5   0  -2 73.8831 1.91809   1
   5   0  -2 72.2721 3.65792   9
   5   0  -2 77.3318 2.94259   8
  -5   0   2 69.3679 3.54586   3
  -5   0   2 73.1706 2.88322   6
  -5   0   2 79.0074 3.64306  10
   4   0  -2 43.8902 2.85900   9
   4   0  -2 46.1480 1.39353   1
   4   0  -2 44.8990 2.08187   8
  -4   0   2 45.4101 2.72785  10
  -4   0   2 48.6765 2.72400   3
  -4   0   2 47.7961 2.27894   6
   3   0  -2 29.7480 1.55447   8
   3   0  -2 30.4162 1.76172   5
   3   0  -2 31.7266 2.30751   9
   3   0  -2 29.4178 1.04609   1
  -3   0   2 29.5476 2.12425  10
  -3   0   2 27.0310 1.86841   4
  -3   0   2 21.4970 1.76232   3
   2   0  -2 140.571 2.89842   8
   2   0  -2 139.131 3.43375   4
   2   0  -2 140.591 3.07511   5
   2   0  -2 139.059 3.65463   9
  -2   0   2 135.627 3.44552   4
  -2   0   2 139.534 3.03457   5
  -2   0   2 131.526 3.59558  10
   1   0  -2 130.048 3.15325   4
   1   0  -2 126.115 3.11394   9
   1   0  -2 124.687 2.53131   5
   1   0  -2 127.077 3.06939   3
  -1   0   2 123.611 3.12820   4
  -1   0   2 125.461 2.51810   5
  -1   0   2 125.059 3.08784   3
  -1   0   2 127.982 3.16188  10
  -1   0   2 124.557 3.07986   9
   0   0  -2 654.975 10.3369   8
   0   0  -2 639.102 10.6674   1
   0   0  -2 619.673 10.8247   2
   0   0  -2 641.176 10.8761   9
   0   0  -2 661.578 10.3412   5
   0   0   2 652.026 10.8499   7
   0   0   2 662.234 10.3347   8
   0   0   2 654.032 11.0223   4
   0   0   2 644.587 10.3262   5
   0   0   2 647.048 10.6868   1
   0   0   2 650.499 10.8642   2
  -1   0  -2 -1.3426 0.73956   7
  -1   0  -2 -0.3179 0.66152   8
  -1   0  -2 0.11264 0.74621   4
  -1   0  -2 -0.5273 0.71701   2
  -1   0  -2 -1.6000 0.22463   1
   1   0   2 -0.5069 0.66300   7
   1   0   2 -0.9089 0.80232   4
   1   0   2 -2.1345 0.80278   1
   1   0   2 -0.6446 0.69975   8
   1   0   2 -0.4791 0.72126   2
  -2   0  -2 48.6765 1.89980   2
  -2   0  -2 49.7663 1.87084  10
  -2   0  -2 48.2451 1.83633   8
  -2   0  -2 46.7073 1.88983   7
  -2   0  -2 47.1293 1.78333   3
   2   0   2 50.2306 1.73510   3
   2   0   2 50.4134 1.90289  10
   2   0   2 48.9409 1.85565   4
   2   0   2 49.2941 1.83069   7
   2   0   2 49.3729 1.93424   8
   2   0   2 46.7389 1.98530   1
   2   0   2 50.7604 1.82541   2
  -3   0  -2 165.616 3.98506  10
  -3   0  -2 165.923 3.78290   1
  -3   0  -2 166.484 3.94505   7
  -3   0  -2 171.528 3.83587   3
  -3   0  -2 170.878 3.89544   2
   3   0   2 173.656 3.35092   6
   3   0   2 169.903 4.00185   8
   3   0   2 170.888 3.72595   3
   3   0   2 173.745 3.81880   2
   3   0   2 151.985 3.73927  10
   3   0   2 161.542 3.80334   1
  -4   0  -2 3.41505 1.06522   2
  -4   0  -2 4.47943 1.15981   3
  -4   0  -2 3.88983 1.18784  10
  -4   0  -2 2.27430 1.05865   7
   4   0   2 1.14598 1.11943   8
   4   0   2 2.34502 1.01929   1
   4   0   2 3.09634 0.70957   6
  -5   0  -2 43.7008 2.46282   2
  -5   0  -2 40.2053 2.65355   7
  -5   0  -2 38.5535 2.44977   3
  -5   0  -2 43.3184 1.70898   6
  -5   0  -2 37.5556 2.62684  10
   5   0   2 44.3060 2.58930   8
   5   0   2 40.6123 2.21051   1
   5   0   2 42.0318 1.64887   6
  -6   0  -2 25.1133 1.64197   6
  -6   0  -2 28.4462 2.44556  10
  -6   0  -2 24.8188 2.22667   2
  -6   0  -2 19.0986 2.03484   7
  -6   0  -2 26.2400 2.34645   3
   6   0   2 27.0717 1.99946   1
   6   0   2 23.3615 1.49380   6
   6   0   2 26.1773 2.45150   8
  -7   0  -2 5.64611 1.84789   3
  -7   0  -2 4.71087 1.71217   2
  -7   0  -2 4.14964 1.85865  10
  -7   0  -2 4.07588 1.83238   7
   7   0   2 4.73921 1.49913   1
   7   0   2 3.47752 1.81862   8
  -8   0  -2 6.12906 2.16516  10
  -8   0  -2 9.71464 2.15895   2
  -8   0  -2 9.82547 2.24484   7
  -8   0  -2 10.8879 2.38211   3
   8   0   2 12.2085 1.80665   1
   8   0   2 10.6525 2.37687   8
  -9   0  -2 73.7228 4.52095   2
  -9   0  -2 75.3728 4.99816   7
  -9   0  -2 74.4529 4.58183   3
  -9   0  -2 69.8894 4.54717  10
   9   0   2 70.7262 4.53520   8
   8  -1  -2 28.6880 2.89615   8
  -8   1   2 29.3361 3.35721  10
  -8   1   2 26.0258 3.30610   3
   7  -1  -2 10.1128 2.03823   8
  -7   1   2 12.7316 2.53980  10
  -7   1   2 14.2275 1.99181   6
  -7   1   2 10.3208 2.41418   3
   6  -1  -2 0.10134 0.96118   1
   6  -1  -2 1.15277 1.79476   9
   6  -1  -2 -0.8510 1.33844   8
  -6   1   2 0.99080 1.79471  10
  -6   1   2 -0.2728 1.73930   3
  -6   1   2 -0.6903 1.25967   6
   5  -1  -2 24.3298 2.09372   5
   5  -1  -2 22.5780 1.95027   8
   5  -1  -2 20.7545 2.31652   9
   5  -1  -2 24.0454 1.57538   1
  -5   1   2 25.9753 2.48800   3
  -5   1   2 24.8656 2.03310   6
  -5   1   2 23.4332 2.46687  10
   4  -1  -2 30.7546 2.04309   8
   4  -1  -2 30.6808 2.45247   9
   4  -1  -2 30.3785 2.18258   5
   4  -1  -2 31.2887 1.55577   1
  -4   1   2 31.0393 2.42915   3
  -4   1   2 28.2455 2.20470  10
  -4   1   2 31.9160 2.13374   6
   3  -1  -2 132.856 2.95359   1
   3  -1  -2 134.009 3.96997   9
   3  -1  -2 133.755 3.44243   5
   3  -1  -2 134.546 3.32770   8
  -3   1   2 135.410 3.76895   4
  -3   1   2 135.103 3.93447  10
  -3   1   2 135.138 3.89450   3
  -3   1   2 136.765 3.64617   6
   2  -1  -2 185.413 4.39140   9
   2  -1  -2 180.932 3.92459   5
  -2   1   2 188.738 4.41081   3
  -2   1   2 183.744 3.92667   5
  -2   1   2 185.383 4.34712  10
  -2   1   2 182.442 4.20687   6
  -2   1   2 187.475 4.37702   4
   1  -1  -2 389.222 7.18190  10
   1  -1  -2 404.108 7.18001   3
   1  -1  -2 389.852 7.17672   2
   1  -1  -2 404.640 7.37531   4
   1  -1  -2 400.478 7.29042   9
   1  -1  -2 388.145 6.87925   5
  -1   1   2 390.911 7.17633   3
  -1   1   2 419.919 6.87728   5
  -1   1   2 402.196 7.16794   2
  -1   1   2 331.679 7.06683   9
  -1   1   2 402.723 7.37890   4
  -1   1   2 398.569 7.18776   7
  -1   1   2 399.416 7.24107  10
   0  -1  -2 1362.60 21.6506   3
   0  -1  -2 1353.96 21.9957   4
   0  -1  -2 1374.01 21.9060   2
   0  -1  -2 1332.17 21.5901   5
   0  -1  -2 1352.11 21.9310   9
   0   1   2 1309.84 21.9917   4
   0   1   2 1352.38 21.7167  10
   0   1   2 1352.15 21.8537   7
   0   1   2 1363.32 21.5898   5
   0   1   2 1361.00 21.8774   2
   0   1   2 1328.54 21.6470   3
  -1  -1  -2 72.4358 1.94873   8
  -1  -1  -2 73.0991 2.06049   4
  -1  -1  -2 73.0307 2.13400   7
  -1  -1  -2 72.6565 2.18125   2
   1   1   2 72.8637 2.09462   4
   1   1   2 74.4289 2.01301   8
  -2  -1  -2 246.810 4.94685   7
  -2  -1  -2 241.182 4.92064   2
  -2  -1  -2 249.636 4.38280   3
  -2  -1  -2 253.234 4.59831  10
  -2  -1  -2 245.633 4.52217   4
   2   1   2 238.368 4.86970   8
   2   1   2 247.351 4.37037   3
   2   1   2 240.984 4.85735   2
   2   1   2 243.772 4.53673  10
   2   1   2 252.190 4.59007   4
   2   1   2 239.138 4.81402   1
  -3  -1  -2 216.525 4.50467  10
  -3  -1  -2 207.974 4.44849   1
  -3  -1  -2 215.867 4.31962   3
  -3  -1  -2 217.725 4.76212   2
  -3  -1  -2 221.004 4.79269   7
   3   1   2 222.560 3.75059   6
   3   1   2 213.001 4.28787   3
   3   1   2 211.387 4.74582   8
   3   1   2 221.202 4.14283   4
   3   1   2 219.639 4.45181  10
   3   1   2 212.244 4.53944   1
  -4  -1  -2 11.7153 1.32513  10
  -4  -1  -2 12.3533 1.28220   3
  -4  -1  -2 9.93881 1.37527   2
  -4  -1  -2 9.81241 1.35506   7
   4   1   2 13.5348 1.02598   4
   4   1   2 9.90158 1.22032   1
   4   1   2 12.6286 1.55802   8
  -5  -1  -2 27.2833 2.11802   2
  -5  -1  -2 26.7755 1.91792   3
  -5  -1  -2 23.9184 1.95913  10
  -5  -1  -2 23.1637 1.99267   7
   5   1   2 28.5990 2.15352   8
   5   1   2 28.6090 1.52828   4
   5   1   2 26.4706 1.95979   1
  -6  -1  -2 43.2092 2.95373   2
  -6  -1  -2 44.8428 2.81823   3
  -6  -1  -2 47.8092 3.07283   7
  -6  -1  -2 48.0009 2.98482  10
   6   1   2 50.3528 3.10047   8
   6   1   2 49.1101 2.51361   1
   6   1   2 48.1115 1.99360   4
  -7  -1  -2 243.124 6.87485   7
  -7  -1  -2 246.486 6.72348   2
  -7  -1  -2 249.305 6.64301  10
  -7  -1  -2 236.952 6.46107   3
   7   1   2 239.424 5.18624   4
   7   1   2 243.318 6.69428   8
   7   1   2 241.257 5.72899   1
  -8  -1  -2 1.17111 1.83974   2
  -8  -1  -2 2.12263 1.89523   3
  -8  -1  -2 2.86774 1.96309   7
  -8  -1  -2 -1.3702 1.74987  10
   8   1   2 -0.4577 1.86325   8
   8   1   2 -0.4121 1.35264   1
  -9  -1  -2 27.7149 3.14309   3
  -9  -1  -2 21.7963 3.03910   2
  -9  -1  -2 21.0310 2.89391  10
  -9  -1  -2 22.4371 3.10831   7
   9   1   2 24.1492 3.03011   8
   8  -2  -2 0.24422 1.85891   8
  -8   2   2 1.73564 2.21715   3
  -8   2   2 -1.0057 2.28059  10
   7  -2  -2 34.7211 2.96847   8
  -7   2   2 35.4126 3.46132  10
  -7   2   2 33.3601 3.17742   3
  -7   2   2 34.9392 2.80183   6
   6  -2  -2 13.5985 1.53236   1
   6  -2  -2 13.7556 2.39029   9
   6  -2  -2 13.2390 2.09879   5
   6  -2  -2 11.4056 1.93824   8
  -6   2   2 15.4957 1.99142   6
  -6   2   2 7.90660 2.12447  10
  -6   2   2 12.0485 2.29552   3
   5  -2  -2 3.23752 1.14800   1
   5  -2  -2 6.38589 1.58128   8
   5  -2  -2 4.49913 1.54807   5
   5  -2  -2 6.63638 1.86709   9
  -5   2   2 7.27083 1.57121   6
  -5   2   2 7.28466 1.89454  10
  -5   2   2 6.52937 1.87074   3
   4  -2  -2 46.6132 2.49924   8
   4  -2  -2 48.8210 2.11310   1
   4  -2  -2 43.5993 2.49527   5
   4  -2  -2 51.1157 2.90441   9
  -4   2   2 47.6729 2.90992   3
  -4   2   2 50.2731 2.97475  10
  -4   2   2 44.0692 2.55155   6
   3  -2  -2 24.2793 1.93957   9
   3  -2  -2 21.6649 1.67614   5
   3  -2  -2 23.7103 1.56002   1
  -3   2   2 18.6379 1.69099   6
  -3   2   2 23.0459 1.86625  10
  -3   2   2 23.4767 1.92992   3
   2  -2  -2 4.49803 1.17949   9
   2  -2  -2 5.45275 1.10145   5
   2  -2  -2 8.47528 1.07776   1
  -2   2   2 7.48965 1.26775  10
  -2   2   2 4.50738 1.12528   3
  -2   2   2 4.48420 1.19320   6
   1  -2  -2 223.856 4.74217   9
   1  -2  -2 222.550 4.54107  10
   1  -2  -2 225.467 4.56805   5
   1  -2  -2 226.281 4.60912   3
   1  -2  -2 214.664 4.56186   2
  -1   2   2 229.269 4.65904  10
  -1   2   2 226.511 4.84944   6
  -1   2   2 220.903 4.93007   4
  -1   2   2 221.074 4.57445   2
  -1   2   2 228.024 4.63012   7
  -1   2   2 225.493 4.68139   9
  -1   2   2 225.527 4.65225   3
  -1   2   2 222.778 4.49106   5
   0  -2  -2 5712.80 93.3042   5
   0  -2  -2 5698.25 91.3464  10
   0  -2  -2 5555.61 91.2542   3
   0  -2  -2 5754.14 92.2504   2
   0  -2  -2 5711.10 92.6491   9
   0  -2  -2 5771.36 92.3344   4
   0  -2  -2 5629.36 92.4976   7
   0   2   2 5889.17 92.4864   7
   0   2   2 5681.01 91.9491   6
   0   2   2 5722.28 92.0968   2
   0   2   2 5802.43 91.6509   5
   0   2   2 5620.83 91.4048  10
   0   2   2 5695.71 92.2085   4
   0   2   2 5709.02 91.8172   3
  -1  -2  -2 317.423 5.91203   7
  -1  -2  -2 319.111 6.00262   2
  -1  -2  -2 320.505 5.88337   4
  -1  -2  -2 306.601 5.83447   5
  -1  -2  -2 320.479 5.90614   8
   1   2   2 323.164 5.79567   6
   1   2   2 318.669 5.88074   7
   1   2   2 323.940 5.91053   4
   1   2   2 317.463 5.95086   2
  -2  -2  -2 5.57889 0.65486  10
  -2  -2  -2 5.75850 1.01231   7
  -2  -2  -2 4.55324 0.77748   4
  -2  -2  -2 4.29484 1.08808   2
   2   2   2 6.50093 0.65054  10
   2   2   2 6.38643 0.69802   6
   2   2   2 5.38897 0.46707   3
   2   2   2 7.23923 1.15358   8
   2   2   2 5.50028 0.78861   4
   2   2   2 4.72736 0.90131   7
  -3  -2  -2 44.7330 2.27695   2
  -3  -2  -2 48.4394 2.19577   7
  -3  -2  -2 47.3640 1.57968   3
  -3  -2  -2 49.8253 1.75290  10
  -3  -2  -2 48.5070 1.95548   1
   3   2   2 45.5525 1.55301   3
   3   2   2 47.1311 2.21297   8
   3   2   2 48.1009 1.74874  10
   3   2   2 47.7020 1.33048   4
  -4  -2  -2 35.8655 1.77175   3
  -4  -2  -2 28.0899 2.23636   7
  -4  -2  -2 33.2658 2.37832   2
  -4  -2  -2 35.2620 1.88972  10
   4   2   2 32.5539 1.61762   3
   4   2   2 35.2058 2.18137   8
  -5  -2  -2 312.595 6.49468   3
  -5  -2  -2 313.004 7.08354   2
  -5  -2  -2 310.854 6.63173  10
  -5  -2  -2 307.655 7.07094   7
   5   2   2 313.961 6.96652   8
  -6  -2  -2 38.4579 2.66990   3
  -6  -2  -2 39.1692 2.91959   7
  -6  -2  -2 35.7437 2.73553   2
  -6  -2  -2 36.7434 2.66538  10
   6   2   2 35.8136 2.76639   8
  -7  -2  -2 6.40283 1.96280   7
  -7  -2  -2 7.19061 1.86094  10
  -7  -2  -2 10.2327 1.86550   3
  -7  -2  -2 9.56780 2.08726   2
   7   2   2 7.47731 2.01038   8
  -8  -2  -2 7.90131 2.04792  10
  -8  -2  -2 5.43367 2.10736   7
  -8  -2  -2 7.44320 2.19320   2
  -8  -2  -2 7.17222 2.02007   3
   8   2   2 9.25996 2.15896   8
  -9  -2  -2 20.2352 2.93932   7
  -9  -2  -2 22.3716 3.04481   2
  -9  -2  -2 20.5875 2.80967  10
  -9  -2  -2 20.3524 2.76092   3
   9   2   2 27.3895 3.11296   8
   8  -3  -2 4.27025 2.28105   8
  -8   3   2 4.91525 2.43543  10
  -8   3   2 -0.0851 2.19439   3
  -8   3   2 2.08961 1.88946   6
   7  -3  -2 40.9694 3.28589   8
   7  -3  -2 40.8753 3.25102   5
   7  -3  -2 44.7055 3.90920   1
  -7   3   2 45.7658 3.40619   6
  -7   3   2 37.2563 3.63799  10
  -7   3   2 39.5242 3.54994   3
   6  -3  -2 8.81197 1.93786   5
   6  -3  -2 7.46555 1.54125   1
   6  -3  -2 4.75995 1.88056   8
   6  -3  -2 9.08058 2.18946   9
  -6   3   2 7.51651 2.15988  10
  -6   3   2 7.66261 2.01395   3
  -6   3   2 8.44500 1.91179   6
   5  -3  -2 1.21726 1.44456   8
   5  -3  -2 2.37846 1.49282   5
   5  -3  -2 1.94671 1.22119   1
   5  -3  -2 1.88443 1.67899   9
  -5   3   2 3.01883 1.74106  10
  -5   3   2 -1.7216 1.42052   3
  -5   3   2 2.35007 1.50921   6
   4  -3  -2 109.058 3.42457   1
   4  -3  -2 112.527 4.04817   9
   4  -3  -2 113.913 3.83934   5
  -4   3   2 111.146 4.08964  10
  -4   3   2 114.059 4.14547   3
  -4   3   2 115.589 3.97356   6
   3  -3  -2 20.3733 1.88077   9
   3  -3  -2 22.1201 1.83226   5
   3  -3  -2 23.5564 1.67137   1
  -3   3   2 22.9477 1.98555   3
  -3   3   2 19.2858 1.80572   6
  -3   3   2 25.4239 2.08454  10
   2  -3  -2 356.658 7.05646   5
   2  -3  -2 352.681 7.15425   9
   2  -3  -2 366.258 6.95779   1
  -2   3   2 351.904 7.31002   6
  -2   3   2 357.689 7.24346   3
  -2   3   2 355.005 7.17675  10
   1  -3  -2 0.07396 0.85674   2
   1  -3  -2 1.03717 0.98717   9
   1  -3  -2 1.07637 0.99010   5
   1  -3  -2 0.22331 0.80526   3
   1  -3  -2 0.29462 0.77906  10
  -1   3   2 0.88107 0.83380   2
  -1   3   2 0.13080 1.02298   6
  -1   3   2 -0.4905 0.86870  10
  -1   3   2 0.14327 0.84205   3
  -1   3   2 0.20667 0.76216   7
  -1   3   2 0.69108 0.84205   9
   0  -3  -2 1739.79 28.1445   7
   0  -3  -2 1756.92 28.1965   2
   0  -3  -2 1729.51 28.2330   9
   0  -3  -2 1740.20 28.5623   4
   0  -3  -2 1757.61 28.4477   6
   0  -3  -2 1716.88 27.8266  10
   0  -3  -2 1753.60 27.9408   3
   0  -3  -2 1737.61 28.3195   5
   0   3   2 1751.13 28.1056   7
   0   3   2 1756.16 28.4672   6
   0   3   2 1757.96 27.8401  10
   0   3   2 1715.89 27.9355   3
   0   3   2 1745.04 28.1590   2
  -1  -3  -2 231.864 4.60933   6
  -1  -3  -2 221.022 3.88050   3
  -1  -3  -2 230.183 4.60387   7
  -1  -3  -2 224.023 4.63782   4
  -1  -3  -2 224.873 4.69121   5
  -1  -3  -2 221.680 4.67336   2
   1   3   2 230.415 4.62955   6
   1   3   2 225.692 4.49813   7
   1   3   2 221.357 4.62101   2
  -2  -3  -2 0.64146 0.72178   4
  -2  -3  -2 1.38765 0.71889   6
  -2  -3  -2 1.39927 1.05726   2
  -2  -3  -2 1.77414 0.91707   7
   2   3   2 2.70344 0.80229   7
   2   3   2 2.57960 0.69021   6
  -3  -3  -2 933.298 14.8122   4
  -3  -3  -2 932.626 15.8999   7
  -3  -3  -2 916.275 16.0010   2
  -3  -3  -2 893.198 14.9587   3
  -3  -3  -2 905.739 15.0351  10
   3   3   2 949.255 14.7809   6
   3   3   2 891.415 15.9052   8
   3   3   2 936.320 15.0678  10
  -4  -3  -2 1.94009 1.16183   7
  -4  -3  -2 2.66210 0.90346  10
  -4  -3  -2 1.62275 0.81831   3
  -4  -3  -2 0.44723 1.20659   2
   4   3   2 -2.8543 1.09802   8
   4   3   2 1.00901 0.66930   3
   4   3   2 1.38268 0.74198  10
  -5  -3  -2 221.431 5.77067   7
  -5  -3  -2 217.467 5.09423  10
  -5  -3  -2 221.343 5.79611   2
  -5  -3  -2 224.521 4.97132   3
   5   3   2 216.337 5.57379   8
  -6  -3  -2 15.6577 2.06243   7
  -6  -3  -2 15.8111 1.85699  10
  -6  -3  -2 16.4625 2.17296   2
  -6  -3  -2 20.7015 1.92816   3
   6   3   2 17.0490 2.21008   8
  -7  -3  -2 68.7731 3.55685  10
  -7  -3  -2 69.4093 3.91867   7
  -7  -3  -2 67.4334 3.37901   3
  -7  -3  -2 68.1199 4.14094   2
   7   3   2 65.6515 3.66387   8
  -8  -3  -2 1.99907 1.99796   2
  -8  -3  -2 -0.5554 1.67383  10
  -8  -3  -2 4.21685 1.82645   3
  -8  -3  -2 -2.2418 1.77408   7
   8   3   2 -1.8904 1.85177   8
  -9  -3  -2 3.65238 2.12008   3
  -9  -3  -2 4.97651 2.47549   2
  -9  -3  -2 1.24978 2.29822   7
  -9  -3  -2 0.21382 1.87328  10
   9   3   2 5.40792 2.37023   8
   8  -4  -2 7.06374 2.48480   8
   8  -4  -2 7.36092 2.41116   5
  -8   4   2 3.80818 2.01035   6
  -8   4   2 7.49499 2.64372   3
  -8   4   2 2.83109 2.52765  10
   7  -4  -2 3.67876 1.99958   5
   7  -4  -2 6.68186 2.12202   8
   7  -4  -2 0.99716 1.63349   1
  -7   4   2 5.31710 1.98164   6
  -7   4   2 3.93952 2.21767   3
  -7   4   2 0.96121 2.18589  10
   6  -4  -2 16.2792 2.45663   8
   6  -4  -2 16.1612 1.98803   1
   6  -4  -2 15.6310 2.47600   9
   6  -4  -2 18.0518 2.36441   5
  -6   4   2 12.8345 2.49226  10
  -6   4   2 16.9249 2.38095   6
  -6   4   2 16.4738 2.54133   3
   5  -4  -2 6.69965 1.60327   1
   5  -4  -2 6.46389 1.90720   8
   5  -4  -2 8.91011 1.91337   5
   5  -4  -2 5.25152 1.83938   9
  -5   4   2 6.82357 2.10787  10
  -5   4   2 7.80397 1.93829   3
  -5   4   2 3.68199 1.68942   6
   4  -4  -2 29.4898 2.41156   9
   4  -4  -2 21.6200 1.94629   1
   4  -4  -2 23.0627 2.15302   5
  -4   4   2 22.1371 2.19813   3
  -4   4   2 23.1305 2.29176  10
  -4   4   2 21.3866 2.21506   6
   3  -4  -2 59.6719 2.78652   9
   3  -4  -2 51.8705 2.74089   5
   3  -4  -2 63.6449 2.74186   1
  -3   4   2 59.7834 3.00502   3
  -3   4   2 63.3226 3.05047  10
  -3   4   2 56.8084 3.01218   6
   2  -4  -2 7.23975 1.30354   1
   2  -4  -2 7.29003 1.29523   9
   2  -4  -2 9.01396 1.44886   5
  -2   4   2 6.73951 1.29832  10
  -2   4   2 8.28086 1.37611   3
  -2   4   2 6.96507 1.37417   6
   1  -4  -2 113.400 3.10995   9
   1  -4  -2 119.286 2.98659   2
   1  -4  -2 115.046 2.99781  10
   1  -4  -2 113.533 3.31786   5
  -1   4   2 113.493 3.17091   3
  -1   4   2 111.229 2.88060   2
  -1   4   2 116.162 3.53800   6
  -1   4   2 114.590 2.94041   7
  -1   4   2 113.383 3.07942  10
   0  -4  -2 479.253 8.55294   3
   0  -4  -2 504.872 8.68490   7
   0  -4  -2 482.400 8.75377   2
   0  -4  -2 484.877 8.38166  10
   0  -4  -2 495.573 8.81822   9
   0   4   2 493.096 9.21074   6
   0   4   2 485.028 8.61990   7
   0   4   2 486.483 8.61125   3
   0   4   2 485.736 8.71244   2
   0   4   2 488.470 8.39210  10
  -1  -4  -2 635.889 11.3142   2
  -1  -4  -2 655.085 10.6605   3
  -1  -4  -2 647.184 11.4742   5
  -1  -4  -2 634.210 11.0848   7
  -1  -4  -2 636.466 11.4093   4
   1   4   2 645.975 11.0528   7
   1   4   2 650.151 11.4163   6
  -2  -4  -2 53.3293 1.37580   3
  -2  -4  -2 52.7851 1.40232   3
  -2  -4  -2 53.9025 1.97539   6
  -2  -4  -2 51.4749 2.33083   5
  -2  -4  -2 52.6575 1.94097   4
  -2  -4  -2 55.8364 2.16022   7
  -2  -4  -2 51.1077 2.37539   2
   2   4   2 54.7005 1.98187   6
  -3  -4  -2 81.8443 1.88789  10
  -3  -4  -2 80.6628 1.99833   3
  -3  -4  -2 80.7641 2.81218   7
  -3  -4  -2 82.0635 2.03457   4
  -3  -4  -2 80.6317 2.12223   6
  -3  -4  -2 83.4342 3.04064   2
   3   4   2 80.9436 2.13611   6
  -4  -4  -2 0.25877 0.75242  10
  -4  -4  -2 1.35208 1.15681   7
  -4  -4  -2 0.01621 1.27619   2
  -4  -4  -2 0.66780 0.77456   3
   4   4   2 2.65573 1.43111   8
   4   4   2 0.56884 0.70565  10
  -5  -4  -2 5.23489 1.12269   3
  -5  -4  -2 3.81285 1.46705   7
  -5  -4  -2 6.59559 1.17458  10
  -5  -4  -2 4.51127 1.53809   2
   5   4   2 6.09572 1.67483   8
  -6  -4  -2 4.96109 1.37200   3
  -6  -4  -2 4.47474 1.80253   7
  -6  -4  -2 5.90189 1.90861   2
  -6  -4  -2 4.53485 1.40570  10
   6   4   2 5.91411 1.85349   8
  -7  -4  -2 18.9586 2.06710   3
  -7  -4  -2 17.4864 2.44537   7
  -7  -4  -2 16.8905 2.02752  10
  -7  -4  -2 18.5353 2.59432   2
   7   4   2 21.4630 2.57066   8
  -8  -4  -2 6.55516 2.22935   7
  -8  -4  -2 11.2113 2.59967   2
  -8  -4  -2 9.54926 2.02760  10
  -8  -4  -2 13.5673 2.13737   3
   8   4   2 10.8302 2.44536   8
  -9  -4  -2 -0.2373 1.83698  10
  -9  -4  -2 4.34437 2.44376   2
  -9  -4  -2 0.79314 2.31684   7
   9   4   2 -0.8408 2.14313   8
   7  -5  -2 5.54972 2.28007   8
   7  -5  -2 8.40410 2.29357   5
   7  -5  -2 8.28572 2.06277   1
  -7   5   2 5.36675 2.44297   3
  -7   5   2 8.50061 2.29713   6
  -7   5   2 3.34413 2.31468  10
   6  -5  -2 85.4008 4.23960   5
   6  -5  -2 78.2847 4.19595   9
   6  -5  -2 87.5938 4.59413   8
   6  -5  -2 78.4915 3.85052   1
  -6   5   2 86.2567 4.76459  10
  -6   5   2 86.0678 4.41502   6
  -6   5   2 74.4937 4.46449   3
   5  -5  -2 34.7194 2.83668   5
   5  -5  -2 39.7295 3.09950   9
   5  -5  -2 30.2256 2.49154   1
  -5   5   2 34.3248 2.93090   6
  -5   5   2 29.2584 2.85414  10
  -5   5   2 32.1011 2.96161   3
   4  -5  -2 11.5359 1.84984   1
   4  -5  -2 12.7238 1.89941   9
   4  -5  -2 14.3971 2.16466   5
  -4   5   2 11.8410 2.05818   3
  -4   5   2 12.3162 2.02544  10
  -4   5   2 13.3638 2.07167   6
   3  -5  -2 -0.2985 1.22826   9
   3  -5  -2 0.87972 1.31140   1
   3  -5  -2 2.74367 1.43262   5
  -3   5   2 2.02955 1.42682   3
  -3   5   2 -1.5729 1.26816  10
  -3   5   2 -0.9558 1.39309   6
   2  -5  -2 11.7595 1.63004   1
   2  -5  -2 14.5085 1.55540   9
   2  -5  -2 15.4130 1.76306   5
  -2   5   2 13.3616 1.82190   6
  -2   5   2 13.9174 1.67652   3
  -2   5   2 10.9567 1.49778  10
   1  -5  -2 580.794 10.1633   2
   1  -5  -2 568.851 10.7809   5
   1  -5  -2 586.564 10.9314   1
   1  -5  -2 583.313 10.3388   9
  -1   5   2 592.572 11.1627   6
  -1   5   2 565.329 10.3159  10
  -1   5   2 539.244 10.0577   7
  -1   5   2 584.972 10.6091   3
  -1   5   2 558.990 10.0827   2
   0  -5  -2 83.6929 2.97960   5
   0  -5  -2 87.6284 2.27926  10
   0  -5  -2 82.8484 2.48612   3
   0  -5  -2 83.6192 2.57213   9
   0  -5  -2 86.7935 2.51691   7
   0  -5  -2 79.9890 2.58322   2
   0   5   2 86.4258 2.33631  10
   0   5   2 92.3587 3.20735   6
   0   5   2 89.3778 2.41863   7
   0   5   2 87.6313 2.60960   3
  -1  -5  -2 137.279 3.29606   7
  -1  -5  -2 136.041 3.02772   3
  -1  -5  -2 139.103 3.56258   2
  -1  -5  -2 134.522 3.78893   5
   1   5   2 136.393 3.71579   6
   1   5   2 135.210 3.17953   7
  -2  -5  -2 13.7467 1.04940   3
  -2  -5  -2 14.4047 1.54891   2
  -2  -5  -2 14.4349 1.30929   7
  -2  -5  -2 16.3410 1.37443   4
  -2  -5  -2 11.7589 1.47827   5
  -3  -5  -2 22.5843 1.80950   5
  -3  -5  -2 27.9064 2.20500   2
  -3  -5  -2 26.3791 1.60313   6
  -3  -5  -2 28.7267 1.98270   7
  -3  -5  -2 24.8126 1.47391   4
  -3  -5  -2 27.8939 1.31832   3
   3   5   2 27.6440 1.65221   6
  -4  -5  -2 22.5935 1.35608  10
  -4  -5  -2 21.3961 2.09894   2
  -4  -5  -2 20.1931 1.28599   6
  -4  -5  -2 23.8718 1.96909   7
  -4  -5  -2 25.4524 1.55041   3
  -5  -5  -2 25.5701 2.27188   7
  -5  -5  -2 27.8069 1.82138  10
  -5  -5  -2 28.9343 2.57150   2
  -5  -5  -2 25.9720 1.88713   3
   5   5   2 23.9610 2.40395   8
  -6  -5  -2 4.57758 1.89154   2
  -6  -5  -2 3.96273 1.30748   3
  -6  -5  -2 2.49744 1.65177   7
  -6  -5  -2 4.04563 1.28893  10
   6   5   2 4.77047 1.96328   8
  -7  -5  -2 2.77663 1.41314   3
  -7  -5  -2 4.17863 1.55694  10
  -7  -5  -2 2.33427 1.85889   7
  -7  -5  -2 0.49912 1.83601   2
   7   5   2 4.22289 2.09530   8
  -8  -5  -2 -0.1726 1.98670   7
  -8  -5  -2 -3.3296 1.89011   2
   8   5   2 0.58450 2.08858   8
  -9  -5  -2 1.88835 2.56959   2
  -9  -5  -2 -1.0389 2.29774   7
   9   5   2 0.34665 2.28392   8
   7  -6  -2 14.6855 3.04982   8
   7  -6  -2 21.9021 2.71911   1
   7  -6  -2 20.0960 2.92825   5
  -7   6   2 21.9651 3.20708  10
  -7   6   2 19.3790 2.82534   6
  -7   6   2 19.4206 3.23154   3
   6  -6  -2 56.4660 3.85765   5
   6  -6  -2 60.1196 3.83530   9
   6  -6  -2 51.6182 3.95634   8
   6  -6  -2 51.2416 3.55386   1
  -6   6   2 56.7097 4.47026   3
  -6   6   2 55.4917 4.09139   6
  -6   6   2 45.5686 3.68793  10
   5  -6  -2 -0.4444 1.74582   5
   5  -6  -2 1.26712 1.56744   9
   5  -6  -2 1.06687 1.62048   1
  -5   6   2 -0.1675 1.73642  10
  -5   6   2 -0.7960 1.71716   6
  -5   6   2 1.61761 1.90036   3
   4  -6  -2 13.0056 2.07133   1
   4  -6  -2 17.3594 2.05291   9
   4  -6  -2 14.7330 2.24724   5
  -4   6   2 13.5610 2.24440   6
  -4   6   2 14.2315 2.10188  10
  -4   6   2 14.9444 2.33586   3
   3  -6  -2 402.410 9.02060   5
   3  -6  -2 414.678 9.07735   1
   3  -6  -2 414.047 8.58202   9
  -3   6   2 405.880 8.88750  10
  -3   6   2 411.158 9.11180   3
  -3   6   2 423.003 9.43465   6
   2  -6  -2 1.22460 1.15906   9
   2  -6  -2 0.94273 1.35236   5
   2  -6  -2 3.74250 1.42444   1
  -2   6   2 -0.4200 1.36914   6
  -2   6   2 1.56184 1.33361   3
  -2   6   2 0.75149 1.17533  10
   1  -6  -2 33.2760 1.90968   2
   1  -6  -2 35.1222 2.50712   5
   1  -6  -2 31.8087 1.97322   9
   1  -6  -2 34.1241 2.48863   1
  -1   6   2 33.8083 2.60721   6
  -1   6   2 32.4269 1.99107  10
  -1   6   2 35.0336 2.30436   3
   0  -6  -2 39.9503 1.88759   7
   0  -6  -2 42.3485 2.09546   2
   0  -6  -2 45.9737 2.53787   5
   0  -6  -2 39.8099 1.98276   9
   0  -6  -2 43.0403 1.75820  10
   0   6   2 40.4114 1.75220   7
   0   6   2 43.0771 1.81969  10
   0   6   2 41.7354 2.67288   6
  -1  -6  -2 51.2301 1.94442   3
  -1  -6  -2 53.5707 2.65629   5
  -1  -6  -2 48.8856 1.45839  10
  -1  -6  -2 49.5212 2.04256   7
  -1  -6  -2 49.1744 2.32072   2
   1   6   2 41.4181 1.76598   7
   1   6   2 49.5060 2.56516   6
  -2  -6  -2 50.1658 2.25603   7
  -2  -6  -2 51.9048 2.70179   5
  -2  -6  -2 51.8871 1.83085   3
  -2  -6  -2 52.3944 2.57950   2
   2   6   2 55.2096 2.45055   6
  -3  -6  -2 5.21081 0.88454   3
  -3  -6  -2 3.68234 1.18839   7
  -3  -6  -2 4.64397 1.46239   5
  -3  -6  -2 4.56301 1.03658   4
  -3  -6  -2 5.17011 1.46288   2
   3   6   2 5.97344 1.16692   6
  -4  -6  -2 36.1033 1.51790   4
  -4  -6  -2 38.3892 1.81747   3
  -4  -6  -2 39.6129 1.44694  10
  -4  -6  -2 35.4422 2.59990   7
  -4  -6  -2 36.4483 1.85067   6
  -4  -6  -2 42.5803 2.76224   5
  -4  -6  -2 36.1845 2.65885   2
  -5  -6  -2 0.26739 1.65148   2
  -5  -6  -2 1.57662 1.06627   3
  -5  -6  -2 3.84003 1.53290   7
  -5  -6  -2 0.90860 0.90105  10
  -6  -6  -2 -0.1002 1.18540   3
  -6  -6  -2 1.92101 1.92664   2
  -6  -6  -2 3.88253 1.76724   7
  -6  -6  -2 -0.2052 1.10797  10
  -7  -6  -2 8.87624 2.17647   7
  -7  -6  -2 7.63039 2.40616   2
   7   6   2 11.4431 2.43333   8
  -8  -6  -2 57.7571 4.55812   2
  -8  -6  -2 47.4303 3.87631   7
   8   6   2 53.7503 4.01404   8
   6  -7  -2 57.7631 4.26954   5
   6  -7  -2 47.7605 3.73303   1
  -6   7   2 53.7157 4.09936   6
  -6   7   2 58.1158 4.46066  10
  -6   7   2 46.0168 4.06952   3
   5  -7  -2 220.516 6.32404   9
   5  -7  -2 221.673 6.77267   5
   5  -7  -2 207.456 6.55195   1
  -5   7   2 222.422 7.18080   3
  -5   7   2 221.353 7.04899   6
  -5   7   2 223.022 6.95863  10
   4  -7  -2 1.77423 1.44252   9
   4  -7  -2 5.81736 1.89573   5
   4  -7  -2 3.93674 1.88693   1
  -4   7   2 4.72990 1.93210   6
  -4   7   2 4.05699 1.94029   3
  -4   7   2 2.66720 1.78990  10
   3  -7  -2 0.65189 1.28053   9
   3  -7  -2 1.13799 1.62306   1
   3  -7  -2 -0.7430 1.51912   5
  -3   7   2 -0.6885 1.33810  10
  -3   7   2 0.66026 1.58561   3
  -3   7   2 0.97456 1.69500   6
   2  -7  -2 8.28218 1.44671   9
   2  -7  -2 10.4390 1.86571   5
   2  -7  -2 10.8608 1.98643   1
  -2   7   2 8.25549 1.56447  10
  -2   7   2 10.5445 1.80773   3
  -2   7   2 7.04798 1.90724   6
   1  -7  -2 45.8036 2.18067   9
   1  -7  -2 43.2888 2.10987   2
   1  -7  -2 40.9791 3.03912   1
   1  -7  -2 41.6382 2.94037   5
  -1   7   2 40.3349 2.96449   6
  -1   7   2 42.6074 2.32395  10
   0  -7  -2 26.9481 2.33905   5
   0  -7  -2 30.8377 1.90191   9
   0  -7  -2 33.8484 2.09991   2
   0  -7  -2 29.1845 1.69588  10
   0  -7  -2 29.8797 2.41003   1
   0   7   2 27.0274 1.53317   7
   0   7   2 28.4446 2.34879   6
  -1  -7  -2 0.76104 1.36520   5
  -1  -7  -2 4.25483 0.72370  10
  -1  -7  -2 2.11484 0.97578   7
  -1  -7  -2 3.97571 1.27765   2
   1   7   2 5.13857 1.43344   6
  -2  -7  -2 34.3356 2.50065   5
  -2  -7  -2 31.1705 1.79257   3
  -2  -7  -2 35.9825 2.45862   2
  -2  -7  -2 44.1806 2.10727   7
   2   7   2 37.4352 2.52476   6
  -3  -7  -2 -0.2987 1.16999   7
  -3  -7  -2 1.29738 1.48830   5
  -3  -7  -2 1.10892 1.38113   2
  -3  -7  -2 1.11197 0.90212   3
  -3  -7  -2 0.68477 1.04042   3
   3   7   2 0.48764 1.16670   6
  -4  -7  -2 4.82535 1.70772   2
  -4  -7  -2 5.88597 1.05537   3
  -4  -7  -2 3.13693 1.59613   5
  -4  -7  -2 4.63623 1.41689   7
  -5  -7  -2 0.13169 1.71124   2
  -5  -7  -2 -0.5268 1.52840   5
  -5  -7  -2 -1.0180 1.38301   7
  -6  -7  -2 73.3335 4.38752   2
  -6  -7  -2 68.4706 3.86237   7
  -7  -7  -2 -1.3782 2.02429   2
  -7  -7  -2 -0.7436 1.75853   7
  -8  -7  -2 2.42110 2.10656   7
  -8  -7  -2 -0.2392 2.25465   2
   6  -8  -2 39.6677 3.73154   5
   6  -8  -2 42.1584 3.79697   1
  -6   8   2 38.9971 3.87420   3
  -6   8   2 42.7659 3.85341  10
  -6   8   2 43.5648 4.01335   6
   5  -8  -2 -2.0349 1.84255   5
   5  -8  -2 0.63677 2.03675   1
  -5   8   2 1.23320 2.14896   3
  -5   8   2 -2.2428 1.95856   6
  -5   8   2 -2.0532 1.88591  10
   4  -8  -2 2.89556 1.52039   9
   4  -8  -2 3.51411 2.01586   1
   4  -8  -2 0.98119 1.84748   5
  -4   8   2 1.52216 1.97457   6
  -4   8   2 2.48166 2.02516   3
  -4   8   2 1.48998 1.79044  10
   3  -8  -2 78.1857 3.16779   9
   3  -8  -2 68.4488 4.08601   1
   3  -8  -2 78.1593 4.19941   5
  -3   8   2 72.4917 3.75412  10
  -3   8   2 75.7188 4.01468   3
  -3   8   2 71.9097 4.35182   6
   2  -8  -2 5.90053 1.98125   1
   2  -8  -2 4.88132 1.85619   5
   2  -8  -2 8.27609 1.37739   9
  -2   8   2 4.62999 1.67772   3
  -2   8   2 3.23676 1.84946   6
  -2   8   2 3.92368 1.48727  10
   1  -8  -2 1.38890 1.00015   2
   1  -8  -2 1.86526 1.66220   5
   1  -8  -2 4.03051 1.15256   9
   1  -8  -2 1.93136 1.69506   1
  -1   8   2 1.76451 1.64070   6
   0  -8  -2 39.1160 2.28150   2
   0  -8  -2 37.7210 2.95889   1
   0  -8  -2 37.4322 2.81338   5
   0  -8  -2 38.2340 2.04961   9
   0   8   2 36.7856 2.84019   6
  -1  -8  -2 5.57167 1.42522   2
  -1  -8  -2 7.72092 1.84470   5
  -1  -8  -2 10.0304 1.37918   9
  -1  -8  -2 7.85701 1.98837   1
  -1  -8  -2 9.30123 1.17539   7
   1   8   2 9.67795 1.84075   6
  -2  -8  -2 -1.2962 1.24942   2
  -2  -8  -2 0.52494 1.03868   7
  -2  -8  -2 0.26383 1.55099   5
   2   8   2 -0.8753 1.33452   6
  -3  -8  -2 4.60371 1.74927   5
  -3  -8  -2 5.38818 1.16614   3
  -3  -8  -2 5.73620 1.65560   2
  -3  -8  -2 5.34193 1.34766   7
   3   8   2 4.70328 1.42154   6
  -4  -8  -2 109.412 4.51538   5
  -4  -8  -2 120.850 4.01391   7
  -4  -8  -2 123.903 4.64899   2
  -5  -8  -2 44.6906 3.58671   2
  -5  -8  -2 47.5263 3.33491   5
  -5  -8  -2 46.8481 3.12719   7
  -6  -8  -2 0.21462 1.69560   5
  -6  -8  -2 -2.0748 1.53901   7
  -6  -8  -2 -1.7992 1.76563   2
  -7  -8  -2 5.01459 1.98332   5
  -7  -8  -2 6.06871 2.55251   2
  -7  -8  -2 10.8899 2.43131   7
   5  -9  -2 20.9234 3.08827   5
   5  -9  -2 15.3211 2.81807   1
  -5   9   2 16.7184 2.91992   6
  -5   9   2 17.6854 2.97896   3
  -5   9   2 14.0582 2.74186  10
   4  -9  -2 4.31754 2.28211   1
   4  -9  -2 9.52976 2.35991   5
  -4   9   2 6.10253 2.38996   6
  -4   9   2 4.40891 2.01318  10
  -4   9   2 7.83074 2.31340   3
   3  -9  -2 9.48254 2.37882   1
   3  -9  -2 9.92897 2.34171   5
  -3   9   2 5.49798 2.27720   6
  -3   9   2 10.3229 2.04729  10
   2  -9  -2 6.20978 2.10908   5
   2  -9  -2 3.19609 2.10234   1
  -2   9   2 1.98494 1.49848  10
  -2   9   2 2.48542 2.07022   6
   1  -9  -2 10.2614 2.19872   1
   1  -9  -2 6.51526 1.98610   5
  -1   9   2 7.71153 2.07751   6
   0  -9  -2 40.6501 3.06847   5
   0  -9  -2 34.5242 3.12563   1
   0  -9  -2 31.9196 2.60165   2
   0   9   2 38.4318 3.15438   6
  -1  -9  -2 5.65983 1.99130   1
  -1  -9  -2 4.82415 1.83307   5
  -1  -9  -2 2.26227 1.30837   2
   1   9   2 4.36801 1.80856   6
  -2  -9  -2 45.6282 3.45789   1
  -2  -9  -2 41.4684 2.82781   2
  -2  -9  -2 46.4319 3.44025   5
   2   9   2 51.4161 3.30810   6
  -3  -9  -2 -1.1153 1.46101   2
  -3  -9  -2 0.40344 1.77963   1
  -3  -9  -2 0.46257 1.69077   5
   3   9   2 1.20319 1.48377   6
  -4  -9  -2 17.2016 2.36490   1
  -4  -9  -2 26.8750 2.75281   5
  -4  -9  -2 19.9645 2.46443   2
  -4  -9  -2 22.9858 2.75913   7
  -5  -9  -2 33.8117 2.80015   1
  -5  -9  -2 36.3283 3.13559   5
  -5  -9  -2 34.7622 3.12190   2
  -5  -9  -2 32.1102 2.79214   7
  -6  -9  -2 24.9024 3.05078   2
  -6  -9  -2 25.1047 2.96217   5
  -6  -9  -2 22.6864 2.71806   7
   3 -10  -2 2.22910 2.29866   1
   3 -10  -2 -1.9492 2.05239   5
  -3  10   2 0.86823 2.15515   6
  -3  10   2 0.22095 1.77180  10
   2 -10  -2 5.25508 2.19875   5
   2 -10  -2 3.96858 2.28891   1
  -2  10   2 5.61406 2.39008   6
   1 -10  -2 5.00058 2.10985   5
   1 -10  -2 2.47752 2.17303   1
  -1  10   2 6.11591 2.18863   6
   0 -10  -2 -1.7006 1.90667   1
   0 -10  -2 1.27901 1.89227   5
   0  10   2 0.73052 1.85533   6
  -1 -10  -2 1.56485 2.03414   1
  -1 -10  -2 -1.3795 1.82395   5
   1  10   2 1.78524 1.79627   6
  -2 -10  -2 9.68139 2.32446   1
  -2 -10  -2 5.57502 2.08728   5
   2  10   2 9.02344 2.02801   6
  -3 -10  -2 -0.3421 1.87925   1
  -3 -10  -2 0.56882 1.56441   2
  -3 -10  -2 2.16965 1.95799   5
   3  10   2 2.62661 1.66499   6
  -4 -10  -2 3.58631 2.01153   1
  -4 -10  -2 3.51770 1.88681   2
  -4 -10  -2 4.66901 2.05871   5
  -5 -10  -2 203.822 6.73124   5
  -5 -10  -2 201.849 6.24688   1
  -5 -10  -2 203.586 6.75321   2
   2 -11  -2 7.79013 2.67590   1
   2 -11  -2 9.77098 2.66394   5
  -2  11   2 12.9693 2.95875   6
   1 -11  -2 1.78619 2.19159   5
   1 -11  -2 1.69252 2.25978   1
  -1  11   2 -2.4436 2.06600   6
   0 -11  -2 8.33012 2.36013   5
   0 -11  -2 8.14949 2.51102   1
   0  11   2 3.60297 2.15157   6
  -1 -11  -2 1.46746 2.19155   1
  -1 -11  -2 2.80118 2.04829   5
   1  11   2 1.30454 1.98287   6
  -2 -11  -2 4.36445 2.28107   1
  -2 -11  -2 2.29977 2.17021   5
   2  11   2 9.21453 2.23365   6
  -3 -11  -2 62.3696 4.22007   1
  -3 -11  -2 48.9746 3.92027   5
  -3 -10   3 103.940 4.93684   3
  -2 -10   3 109.465 4.68699   1
  -1 -10   3 41.0141 3.64089   4
  -1 -10   3 46.2633 3.88185   5
  -1 -10   3 48.7651 3.61033   1
   0 -10   3 43.1848 3.54079   1
   0 -10   3 44.6118 3.18476   5
   0 -10   3 41.1255 3.81569   4
   1 -10   3 31.6656 2.82554   5
   1 -10   3 29.4873 3.45679   4
   1 -10   3 30.2081 3.20396   1
   2 -10   3 3.74235 1.98591   5
   2 -10   3 9.63001 2.62057   1
   3 -10   3 17.7334 2.53894   5
   3 -10   3 16.6028 3.02210   1
  -4  -9   3 76.3567 4.44058   3
  -4  -9   3 86.8898 4.26150   2
  -3  -9   3 21.9620 2.56924  10
  -3  -9   3 16.2822 2.28367   2
  -3  -9   3 16.8537 2.55152   3
  -2  -9   3 -3.5126 1.38416   5
  -2  -9   3 -0.6609 1.64427   4
  -2  -9   3 0.13274 1.73176   1
  -1  -9   3 0.00902 1.42910   5
  -1  -9   3 1.54400 1.88496   4
  -1  -9   3 1.02210 1.71919   1
   0  -9   3 5.70862 2.16532   4
   0  -9   3 7.21192 1.76905   5
   0  -9   3 8.35616 2.19309   1
   1  -9   3 11.3362 1.97792   5
   1  -9   3 10.0251 2.30776   1
   2  -9   3 52.0218 3.87711   1
   2  -9   3 58.8898 3.49643   5
   3  -9   3 14.6178 2.68556   1
   3  -9   3 16.6201 2.35714   5
   4  -9   3 8.20876 2.48594   1
   4  -9   3 11.2040 2.24483   5
   5  -9   3 22.1011 2.82174   5
   5  -9   3 19.7385 3.20945   1
  -5  -8   3 3.08715 1.98882   3
  -5  -8   3 1.01507 2.06519  10
  -5  -8   3 2.62970 1.90591   2
  -4  -8   3 11.9394 2.12605  10
  -4  -8   3 10.4413 2.08369   2
  -4  -8   3 16.0535 2.35932   3
  -3  -8   3 -0.2830 1.43696   2
  -3  -8   3 0.44307 1.44297   4
  -3  -8   3 0.31950 1.40101   1
  -3  -8   3 0.80255 1.61579  10
  -3  -8   3 -1.4972 1.69369   3
  -3  -8   3 0.30064 1.35672   5
  -2  -8   3 56.6743 3.45578   4
  -2  -8   3 51.7173 2.89768   2
  -2  -8   3 53.0371 2.82598   5
  -2  -8   3 47.8873 3.07600   1
  -1  -8   3 56.0402 3.53579   4
  -1  -8   3 51.2965 2.49648   2
  -1  -8   3 53.8058 2.80165   5
  -1  -8   3 49.6885 3.18362   1
   0  -8   3 13.1096 1.75333   5
   0  -8   3 10.6476 2.16723   4
   0  -8   3 10.6915 2.04210   1
   1  -8   3 225.490 6.56105   1
   1  -8   3 243.695 5.97619   5
   2  -8   3 111.109 4.01543   5
   2  -8   3 103.816 4.67971   1
   3  -8   3 25.1201 2.51166   5
   3  -8   3 27.0237 2.99278   1
   4  -8   3 12.7698 2.23690   5
   4  -8   3 9.15215 2.42461   1
   5  -8   3 4.09681 1.91752   5
   5  -8   3 2.50496 2.19855   1
   6  -8   3 14.7436 2.86213   1
   6  -8   3 12.7274 2.96902   8
   6  -8   3 5.80724 2.30610   5
  -6  -7   3 20.7139 2.81461   3
  -6  -7   3 13.3338 2.41195  10
  -6  -7   3 10.9640 2.20652   7
  -6  -7   3 10.5580 2.36443   2
  -5  -7   3 1.41849 1.85182   3
  -5  -7   3 -0.7157 1.63192  10
  -5  -7   3 -0.0954 1.58387   2
  -5  -7   3 1.63421 1.55890   7
  -4  -7   3 3.39126 1.82548   3
  -4  -7   3 0.03592 1.29889   7
  -4  -7   3 2.28840 1.61915  10
  -4  -7   3 2.51938 1.36589   5
  -3  -7   3 53.5127 3.31961  10
  -3  -7   3 54.6927 2.66412   7
  -3  -7   3 56.5367 3.06174   4
  -3  -7   3 49.2391 2.59200   5
  -3  -7   3 50.3581 3.43423   3
  -3  -7   3 57.3106 2.63459   1
  -2  -7   3 56.3677 2.68773   5
  -2  -7   3 58.7129 2.97208   1
  -2  -7   3 55.5485 2.29945   7
  -2  -7   3 56.7977 3.17179   4
  -1  -7   3 16.4250 1.55882   2
  -1  -7   3 15.2018 2.09056   4
  -1  -7   3 15.6661 1.97923   1
  -1  -7   3 15.2814 1.66340   5
  -1  -7   3 19.1189 1.22243   7
   0  -7   3 6.67400 1.74329   1
   0  -7   3 3.60236 1.74163   4
   0  -7   3 5.62236 1.01267   2
   0  -7   3 3.61076 1.40169   5
   1  -7   3 10.3183 1.67222   5
   1  -7   3 9.04305 1.98083   1
   2  -7   3 133.412 4.77047   1
   2  -7   3 129.999 4.13866   5
   3  -7   3 5.47710 1.71562   5
   3  -7   3 4.77415 1.88104   1
  -4   7  -3 0.90900 1.75801   6
   4  -7   3 -0.0419 1.58298   5
   4  -7   3 -0.3240 1.76502   1
  -5   7  -3 2.59789 2.00135   6
   5  -7   3 4.53184 2.15192   1
   5  -7   3 4.76761 2.14545   8
   5  -7   3 6.20684 1.96124   5
  -6   7  -3 4.82682 2.12365   6
  -6   7  -3 0.82825 2.13174  10
   6  -7   3 2.11177 2.18308   1
   6  -7   3 4.12601 1.93658   5
   6  -7   3 3.22601 2.23129   8
  -7   7  -3 52.7563 4.44082  10
  -7   7  -3 45.8624 3.81679   6
   7  -7   3 48.8653 4.17574   8
   7  -7   3 44.2365 4.00538   1
   7  -7   3 49.1078 3.90255   5
  -7  -6   3 17.6997 2.83012  10
  -7  -6   3 21.3739 2.93278   7
  -7  -6   3 13.5881 2.77291   2
  -7  -6   3 15.0938 2.71799   3
  -6  -6   3 5.33939 2.06231  10
  -6  -6   3 5.12808 1.92988   7
  -6  -6   3 4.44410 2.07829   3
  -5  -6   3 2.59318 1.78324   3
  -5  -6   3 2.95674 1.79253  10
  -4  -6   3 5.29614 1.40948   4
  -4  -6   3 8.96216 1.46298   5
  -4  -6   3 5.58796 1.71609  10
  -4  -6   3 4.11355 1.80748   3
  -3  -6   3 3.94091 1.18780   1
  -3  -6   3 5.18080 1.33749   5
  -3  -6   3 2.97739 1.69364   3
  -3  -6   3 4.71545 1.62089  10
  -3  -6   3 3.25207 1.34887   4
  -2  -6   3 9.52384 1.46223   1
  -2  -6   3 8.98380 1.35269   5
  -2  -6   3 8.11015 1.67387   4
  -1  -6   3 35.9777 1.55629   9
  -1  -6   3 34.5160 2.08464   5
  -1  -6   3 37.8661 1.68321   7
  -1  -6   3 36.4101 2.43142   1
  -1  -6   3 39.1379 2.77966   4
   0  -6   3 -0.5475 1.36585   4
   0  -6   3 0.95017 0.83837   2
   0  -6   3 0.63875 1.06637   5
   0  -6   3 -0.1917 1.32044   1
   1  -6   3 -2.1845 1.23360   1
   1  -6   3 -0.7284 1.13559   5
   2  -6   3 2.68148 1.57841   1
   2  -6   3 2.28164 1.27903   5
   3  -6   3 42.9272 3.13005   1
   3  -6   3 49.6930 2.81247   5
  -4   6  -3 2.49872 1.78237   6
  -4   6  -3 1.70365 0.92507   7
   4  -6   3 2.93081 1.74370   1
   4  -6   3 2.48520 1.55685   5
  -5   6  -3 243.014 6.97219   6
  -5   6  -3 235.031 5.40576   7
  -5   6  -3 229.615 7.03997  10
   5  -6   3 239.123 6.86768   1
   5  -6   3 230.297 6.38350   5
   5  -6   3 242.229 6.90423   8
  -6   6  -3 0.38482 2.01414  10
  -6   6  -3 0.34847 1.26167   7
  -6   6  -3 1.60651 1.88402   6
   6  -6   3 2.62595 1.83932   5
   6  -6   3 3.47786 2.09772   8
   6  -6   3 -1.9263 1.86546   1
  -7   6  -3 103.526 5.11722   6
  -7   6  -3 116.969 5.81218  10
   7  -6   3 113.443 5.39808   1
   7  -6   3 124.881 5.15488   5
   7  -6   3 109.349 5.47099   8
  -8   6  -3 0.33428 2.36758   3
  -8   6  -3 3.32487 2.62510  10
   8  -6   3 -1.7422 2.35203   8
   8  -6   3 1.69899 2.19008   5
   8  -6   3 4.61170 2.43373   1
  -7  -5   3 0.89821 2.05902   3
  -7  -5   3 5.94678 2.22378   7
  -7  -5   3 2.90540 2.08362  10
  -6  -5   3 0.61659 1.76990  10
  -6  -5   3 -3.9632 1.60934   3
  -5  -5   3 158.548 5.37108  10
  -5  -5   3 156.145 5.46094   3
  -4  -5   3 6.66055 1.88655   3
  -4  -5   3 5.37525 1.31591   4
  -4  -5   3 8.28082 1.84539  10
  -3  -5   3 16.0764 2.08411   3
  -3  -5   3 16.5150 1.74194   4
  -3  -5   3 20.6840 1.40600   1
  -3  -5   3 20.6019 1.58636   5
  -3  -5   3 18.2693 2.02668  10
  -2  -5   3 4.30916 1.15765   1
  -2  -5   3 7.56033 1.11013   5
  -2  -5   3 5.63692 1.42711   4
  -1  -5   3 65.4485 2.14291   7
  -1  -5   3 62.0040 2.51222   1
  -1  -5   3 62.1975 2.07558   9
  -1  -5   3 67.2813 3.00771   4
  -1  -5   3 58.2794 2.13583   5
   0  -5   3 85.6349 3.40942   4
   0  -5   3 75.7158 2.35842   2
   0  -5   3 85.0738 2.53044   5
   0  -5   3 81.6379 1.98448   7
   0  -5   3 87.4134 3.15055   1
   1  -5   3 52.2002 1.63331   2
   1  -5   3 59.7070 2.24976   5
   1  -5   3 57.8989 2.73584   1
   2  -5   3 4.99093 1.49588   1
   2  -5   3 4.12567 1.19768   5
  -3   5  -3 325.674 6.23810   9
  -3   5  -3 340.890 6.19493   7
   3  -5   3 340.725 7.77289   1
   3  -5   3 342.831 7.21027   5
  -4   5  -3 42.3544 2.05420   7
  -4   5  -3 43.6032 3.01733   6
   4  -5   3 44.6258 2.75911   5
   4  -5   3 37.3207 2.82543   1
   4  -5   3 37.8304 2.87687   8
  -5   5  -3 58.2857 1.92808   2
  -5   5  -3 60.6988 2.75205   7
  -5   5  -3 64.6636 3.51891   6
  -5   5  -3 62.7294 3.80294  10
   5  -5   3 63.6101 3.60749   8
   5  -5   3 62.6725 3.77302   1
   5  -5   3 60.6850 3.36536   5
  -6   5  -3 39.4785 2.77989   7
  -6   5  -3 44.0303 3.46510   3
  -6   5  -3 44.2136 3.40484   6
  -6   5  -3 41.7281 3.39356  10
   6  -5   3 43.5021 3.21408   5
   6  -5   3 40.2811 3.31965   1
   6  -5   3 47.6113 3.48054   8
  -7   5  -3 -0.0535 1.52339   7
  -7   5  -3 -1.7835 1.92455  10
  -7   5  -3 -3.3562 1.55215   6
  -7   5  -3 0.32103 2.07364   3
   7  -5   3 4.34841 2.01565   5
   7  -5   3 -0.7023 1.91299   1
   7  -5   3 1.01020 2.05783   8
  -8   5  -3 4.61017 1.94485   7
  -8   5  -3 0.94777 2.34170   3
  -8   5  -3 -0.2527 2.25142  10
   8  -5   3 5.10747 2.47996   8
   8  -5   3 5.01272 2.19675   5
   8  -5   3 0.27461 2.09194   1
  -7  -4   3 22.4265 2.96827   3
  -7  -4   3 22.8512 2.91463  10
  -6  -4   3 2.34197 1.81013   3
  -6  -4   3 1.39191 1.83899  10
  -5  -4   3 155.508 5.21885   3
  -5  -4   3 156.010 5.27778  10
  -5  -4   3 149.405 4.07110   4
  -4  -4   3 115.137 4.40096   3
  -4  -4   3 119.185 4.37401  10
  -4  -4   3 117.974 3.53368   4
   3   4  -3 16.6374 1.87194   9
  -3  -4   3 14.2634 1.85720  10
  -3  -4   3 15.4361 1.15555   1
  -3  -4   3 15.1247 1.63312   4
  -3  -4   3 20.1277 2.09858   3
   2   4  -3 90.0835 2.94976   9
  -2  -4   3 88.5998 2.44442   8
  -2  -4   3 90.1832 2.51380   1
  -2  -4   3 84.7969 2.37903   5
  -2  -4   3 86.1034 3.07993   4
  -2  -4   3 88.1950 3.36061   3
   1   4  -3 7.44018 1.03286   9
  -1  -4   3 7.64937 1.02883   7
  -1  -4   3 7.85085 1.04647   9
  -1  -4   3 7.39532 1.38985   4
  -1  -4   3 7.74211 0.88024   5
  -1  -4   3 7.17274 1.16324   1
   0   4  -3 69.0981 1.85031   9
   0   4  -3 65.5380 1.90642   5
   0  -4   3 66.5146 1.91490   7
   0  -4   3 71.3095 2.90706   4
   0  -4   3 64.0824 2.54117   1
   0  -4   3 67.5891 2.01468   5
   0  -4   3 74.2647 2.20897   2
  -1   4  -3 910.504 15.1304   5
  -1   4  -3 926.932 14.6325   9
   1  -4   3 913.449 16.3682   4
   1  -4   3 922.690 15.1845   5
   1  -4   3 885.873 14.6629   7
   1  -4   3 908.732 15.9085   1
   1  -4   3 869.884 14.8080   2
  -2   4  -3 353.328 6.26579   7
   2  -4   3 354.720 7.49998   1
   2  -4   3 358.830 6.87904   5
   2  -4   3 353.438 6.23304   7
  -3   4  -3 119.380 2.94052   7
  -3   4  -3 116.704 2.95329   9
   3  -4   3 115.799 3.45972   5
   3  -4   3 112.112 3.85106   1
  -4   4  -3 13.9494 1.35490   7
  -4   4  -3 17.4245 1.96690   6
  -4   4  -3 12.9109 1.91503  10
  -4   4  -3 15.2913 1.06198   2
   4  -4   3 14.4980 2.01209   1
   4  -4   3 16.4416 1.75723   5
   4  -4   3 14.4632 1.90478   8
  -5   4  -3 4.86508 1.76072   3
  -5   4  -3 4.05661 1.04511   2
  -5   4  -3 1.72949 1.66768  10
  -5   4  -3 2.05556 1.50168   6
  -5   4  -3 2.88860 1.27920   7
   5  -4   3 4.71559 1.72145   8
   5  -4   3 4.44554 1.73492   1
   5  -4   3 3.68220 1.59688   5
  -6   4  -3 1.60110 1.55052   6
  -6   4  -3 1.08095 1.37534   7
  -6   4  -3 0.70249 1.81092  10
  -6   4  -3 0.27841 1.13522   2
  -6   4  -3 -1.7585 1.64537   3
   6  -4   3 -0.4467 1.57409   1
   6  -4   3 0.61281 1.60663   5
   6  -4   3 -1.0469 1.71366   8
  -7   4  -3 -0.4763 1.24704   2
  -7   4  -3 -0.3928 1.48351   7
  -7   4  -3 1.56871 1.63853   6
  -7   4  -3 4.79204 2.11865   3
  -7   4  -3 0.60114 2.01559  10
   7  -4   3 0.51436 1.83410   1
   7  -4   3 4.20800 1.85809   5
   7  -4   3 0.83702 1.91744   8
  -8   4  -3 20.3602 3.05890   3
  -8   4  -3 18.2055 2.51220   7
  -8   4  -3 21.8590 3.08589  10
   8  -4   3 17.4561 2.80594   8
   8  -4   3 20.6204 2.79187   1
  -8  -3   3 17.5904 2.99913  10
  -8  -3   3 10.2897 2.62397   3
  -7  -3   3 1.93941 2.11022   3
  -7  -3   3 3.77731 2.15421  10
   6   3  -3 28.9098 2.11343   8
  -6  -3   3 27.8355 2.88042   3
  -6  -3   3 26.0941 2.84582  10
   5   3  -3 181.086 4.44165   8
  -5  -3   3 177.650 4.53242   4
  -5  -3   3 177.844 5.65372   3
  -5  -3   3 183.326 5.72402  10
   4   3  -3 2.56010 1.04347   8
   4   3  -3 1.17680 1.53631   9
  -4  -3   3 0.75668 1.40419   3
  -4  -3   3 1.78795 1.10907   4
  -4  -3   3 0.69943 1.44831  10
   3   3  -3 36.4215 2.56268   9
  -3  -3   3 40.6252 2.22438   4
  -3  -3   3 36.0786 2.61627  10
  -3  -3   3 36.7450 1.56164   8
  -3  -3   3 36.4711 2.53873   3
   2   3  -3 33.0026 1.31241   1
   2   3  -3 34.9246 2.12032   9
  -2  -3   3 34.8003 2.14376   4
  -2  -3   3 34.7325 2.26619  10
  -2  -3   3 35.4303 1.37504   8
  -2  -3   3 35.5187 2.35847   3
  -2  -3   3 34.0506 1.40583   1
   1   3  -3 1047.38 17.3892   9
   1   3  -3 1036.45 17.1364   1
  -1  -3   3 1055.42 17.3949   9
  -1  -3   3 1037.27 17.9299   4
  -1  -3   3 1018.58 17.3585   7
  -1  -3   3 1035.69 16.7248   5
  -1  -3   3 1036.55 17.1948   1
   0   3  -3 31.3106 1.15471   5
   0   3  -3 32.9183 1.48346   9
   0  -3   3 32.9636 1.82052   1
   0  -3   3 28.9035 2.16565   4
   0  -3   3 29.4810 1.59852   2
   0  -3   3 31.4002 1.49077   7
   0  -3   3 33.2683 1.24454   5
  -1   3  -3 81.3379 2.06897   9
  -1   3  -3 78.2175 2.11503   7
  -1   3  -3 78.9381 2.09077   5
   1  -3   3 80.8560 2.12930   5
   1  -3   3 84.7450 3.10108   4
   1  -3   3 81.1616 2.14316   2
   1  -3   3 82.1230 2.06965   7
   1  -3   3 77.7805 2.71075   1
  -2   3  -3 168.591 3.38961   2
  -2   3  -3 174.000 3.61867   7
   2  -3   3 172.591 4.41448   1
   2  -3   3 177.027 3.59092   7
   2  -3   3 180.138 3.90099   5
   2  -3   3 179.051 3.37050   2
  -3   3  -3 9.53692 0.88518   2
  -3   3  -3 8.49200 1.04393   7
   3  -3   3 6.05352 1.27785   8
   3  -3   3 5.69652 1.33673   1
   3  -3   3 7.15572 1.19242   5
   3  -3   3 9.11994 0.78844   2
   3  -3   3 9.19017 1.00185   7
  -4   3  -3 0.83237 0.83693   2
  -4   3  -3 0.00288 1.32619   3
  -4   3  -3 2.47961 1.44014  10
  -4   3  -3 -0.6134 0.90008   7
   4  -3   3 -0.3410 1.22874   8
   4  -3   3 0.73710 1.33173   1
   4  -3   3 1.75048 1.20429   5
  -5   3  -3 9.28623 1.49329   7
  -5   3  -3 6.10005 1.72180  10
  -5   3  -3 6.62762 1.55719   6
  -5   3  -3 9.40814 1.79399   3
  -5   3  -3 11.6062 1.33148   2
   5  -3   3 9.00974 1.69204   5
   5  -3   3 8.27006 1.80779   8
   5  -3   3 7.52499 1.71338   1
  -6   3  -3 1.57212 1.45718   6
  -6   3  -3 1.60450 1.78367   3
  -6   3  -3 2.69713 1.46187   7
  -6   3  -3 1.10475 1.76775  10
  -6   3  -3 1.24221 1.24669   2
   6  -3   3 2.21745 1.59502   1
   6  -3   3 2.02273 1.61381   5
   6  -3   3 2.14911 1.72270   8
  -7   3  -3 3.42522 2.00100   3
  -7   3  -3 6.45747 1.79895   7
  -7   3  -3 7.90955 1.67462   2
  -7   3  -3 4.63360 2.15203  10
   7  -3   3 7.22835 2.04553   1
   7  -3   3 7.00755 2.12709   8
  -8   3  -3 0.46146 1.54419   2
  -8   3  -3 3.96918 2.20155   3
  -8   3  -3 5.19811 2.30329  10
  -8   3  -3 2.51098 1.81583   7
   8  -3   3 1.21031 2.13820   8
   8  -3   3 3.90813 1.95748   1
  -9   3  -3 -3.5807 2.07653   3
  -9   3  -3 1.38818 2.45888  10
  -9   3  -3 2.48137 2.11569   7
   9  -3   3 -0.6213 2.25517   8
   9  -3   3 -3.8293 1.76365   1
  -8  -2   3 0.82292 2.14104   3
  -8  -2   3 -1.5460 2.18913  10
   7   2  -3 1.05784 1.43886   8
  -7  -2   3 3.09214 2.02320   3
  -7  -2   3 1.59831 2.00591  10
   6   2  -3 12.0801 1.64278   8
  -6  -2   3 11.2390 2.23907   3
  -6  -2   3 8.11343 2.15225  10
  -6  -2   3 10.7390 1.65341   6
   5   2  -3 243.417 5.36663   8
  -5  -2   3 241.349 6.73651   3
  -5  -2   3 244.535 5.68510   4
  -5  -2   3 244.788 6.62944  10
   4   2  -3 84.4131 3.71062   9
   4   2  -3 79.3518 2.52096   8
  -4  -2   3 77.1576 3.58260  10
  -4  -2   3 81.4377 2.96002   4
  -4  -2   3 89.9560 3.71151   3
   3   2  -3 293.903 5.54760   8
   3   2  -3 289.061 6.74264   9
  -3  -2   3 305.595 6.92279   3
  -3  -2   3 315.655 5.83250   5
  -3  -2   3 306.749 6.87193  10
  -3  -2   3 302.711 5.54836   8
  -3  -2   3 304.509 6.36420   4
   2   2  -3 49.4946 1.30499   1
   2   2  -3 50.3383 2.40773   9
  -2  -2   3 51.8653 1.55623   5
  -2  -2   3 46.4201 2.26161   4
  -2  -2   3 46.2304 2.54483  10
  -2  -2   3 46.8023 2.46042   3
  -2  -2   3 50.4593 1.35127   1
  -2  -2   3 51.0213 1.37836   8
   1   2  -3 61.0840 1.77593   1
   1   2  -3 62.6951 2.29094   9
  -1  -2   3 60.8794 1.80524   1
  -1  -2   3 60.9451 2.19463   9
  -1  -2   3 54.9390 2.16970   7
  -1  -2   3 57.8191 2.40024   4
  -1  -2   3 57.9929 1.36305   8
   0   2  -3 128.282 2.97297   9
   0   2  -3 123.362 2.95419   1
   0  -2   3 125.025 3.06472   1
   0  -2   3 120.663 2.96896   7
   0  -2   3 130.170 3.11550   2
   0  -2   3 130.086 3.56038   4
  -1   2  -3 97.8753 2.51187   7
  -1   2  -3 101.912 2.23080   5
  -1   2  -3 107.999 2.56136   2
   1  -2   3 103.332 2.51727   7
   1  -2   3 95.9226 2.53699   8
   1  -2   3 100.707 2.23700   5
   1  -2   3 103.199 3.20652   4
   1  -2   3 102.389 2.55354   2
   1  -2   3 98.2757 2.88154   1
  -2   2  -3 112.928 2.81303   7
  -2   2  -3 117.735 2.71262   5
  -2   2  -3 112.374 2.67167   2
   2  -2   3 112.730 2.62069   2
   2  -2   3 112.124 3.07855   8
   2  -2   3 114.718 3.49062   4
   2  -2   3 117.110 2.78218   7
   2  -2   3 119.369 3.38787   1
   2  -2   3 112.756 2.77109   5
  -3   2  -3 49.1628 2.04144   7
  -3   2  -3 49.0197 1.86318   2
  -3   2  -3 47.8069 2.50720  10
   3  -2   3 48.2832 1.73986   2
   3  -2   3 46.8163 2.40594   1
   3  -2   3 50.7448 2.18589   5
   3  -2   3 48.1633 2.29600   8
  -4   2  -3 -1.0214 1.14558   3
  -4   2  -3 0.31132 1.00563   7
  -4   2  -3 0.37041 1.24414  10
  -4   2  -3 0.22171 0.90315   2
   4  -2   3 -0.6232 1.16499   8
   4  -2   3 0.24019 1.20705   1
   4  -2   3 -0.7150 1.08936   5
  -5   2  -3 13.7979 1.88581   3
  -5   2  -3 15.4909 1.98505  10
  -5   2  -3 15.7648 1.56604   2
  -5   2  -3 14.7370 1.67148   7
   5  -2   3 17.3055 1.89876   1
   5  -2   3 13.4017 1.94913   8
  -6   2  -3 14.5481 1.90466   7
  -6   2  -3 13.9876 2.20115  10
  -6   2  -3 15.9466 1.79826   2
  -6   2  -3 11.9925 2.07501   3
   6  -2   3 11.5442 1.93094   1
   6  -2   3 11.8638 2.06762   8
  -7   2  -3 99.7880 4.59894  10
  -7   2  -3 107.552 4.40137   7
  -7   2  -3 94.4323 4.43003   3
  -7   2  -3 95.4856 3.82130   2
   7  -2   3 94.3976 4.43738   8
   7  -2   3 101.585 4.16472   1
  -8   2  -3 35.4170 3.35900   3
  -8   2  -3 41.3377 3.27020   7
  -8   2  -3 38.8016 2.96809   2
  -8   2  -3 44.3907 3.64973  10
   8  -2   3 35.4881 3.40857   8
   8  -2   3 42.5817 3.25629   1
  -9   2  -3 5.58699 2.51078  10
  -9   2  -3 2.60923 2.12202   7
  -9   2  -3 4.69694 2.35813   3
  -9   2  -3 4.65727 2.05040   2
   9  -2   3 4.99699 2.35272   8
   9  -2   3 3.06117 1.95279   1
  -8  -1   3 16.3448 2.89339  10
  -8  -1   3 13.5256 2.82771   3
   7   1  -3 3.90580 1.59804   8
  -7  -1   3 1.44788 2.06694  10
  -7  -1   3 5.21303 2.18555   3
   6   1  -3 0.94029 1.23682   8
   6   1  -3 0.28871 1.93338   9
  -6  -1   3 0.28580 1.73206   3
  -6  -1   3 -0.2606 1.32194   6
  -6  -1   3 -2.6971 1.67022  10
   5   1  -3 44.9598 2.25011   8
   5   1  -3 40.1162 3.18345   9
  -5  -1   3 36.9535 2.83123  10
  -5  -1   3 48.3052 3.43676   3
  -5  -1   3 41.5322 2.55450   4
   4   1  -3 4.27980 1.62774   9
   4   1  -3 4.00465 0.96843   8
  -4  -1   3 5.02896 1.55328  10
  -4  -1   3 1.98430 1.38992   3
  -4  -1   3 4.17506 1.25694   4
   3   1  -3 94.5081 3.51189   9
   3   1  -3 98.8503 2.43274   8
  -3  -1   3 103.657 3.53209   3
  -3  -1   3 104.628 3.19811   4
  -3  -1   3 100.250 3.51052  10
   2   1  -3 9.26401 0.65672   8
   2   1  -3 12.1821 1.46973   9
   2   1  -3 9.75866 0.62425   1
  -2  -1   3 7.89663 1.35510   3
  -2  -1   3 7.24876 1.27499   4
  -2  -1   3 7.85974 1.32621  10
  -2  -1   3 7.83909 0.84289   5
   1   1  -3 226.202 4.79099   9
   1   1  -3 224.436 4.09642   1
  -1  -1   3 198.626 5.00149   7
  -1  -1   3 223.385 4.91911   3
  -1  -1   3 217.439 4.90329   4
  -1  -1   3 220.029 3.75926   5
  -1  -1   3 218.469 4.09848   1
  -1  -1   3 218.655 4.72745   9
   0   1  -3 593.719 10.3742   7
   0   1  -3 602.855 10.1813   1
   0   1  -3 589.176 10.3912   2
   0   1  -3 614.100 10.3915   9
   0  -1   3 587.035 10.3630   2
   0  -1   3 598.903 9.59347   8
   0  -1   3 602.055 10.1938   1
   0  -1   3 589.709 10.3228   7
   0  -1   3 596.996 10.7165   4
  -1   1  -3 251.798 4.39143   5
  -1   1  -3 250.339 4.92952   2
  -1   1  -3 249.970 4.92217   7
  -1   1  -3 244.533 5.25535   4
   1  -1   3 251.776 4.65512   8
   1  -1   3 250.760 5.08271   1
   1  -1   3 253.017 4.91409   2
   1  -1   3 254.014 4.91138   7
   1  -1   3 258.430 5.41696   4
  -2   1  -3 121.107 3.07666   7
  -2   1  -3 123.440 2.81357   5
  -2   1  -3 123.363 2.99918   8
  -2   1  -3 129.221 2.98618   2
   2  -1   3 118.310 3.34610   1
   2  -1   3 124.105 3.10247   3
   2  -1   3 124.464 3.12267   8
   2  -1   3 124.776 3.01798   7
   2  -1   3 119.947 2.89935   2
  -3   1  -3 14.0039 1.28515   2
  -3   1  -3 10.5789 1.26239   7
  -3   1  -3 12.6754 1.46228  10
   3  -1   3 10.5280 1.39792   8
   3  -1   3 12.1384 1.47045   1
   3  -1   3 11.1326 1.08019   2
   3  -1   3 12.4901 1.12046   6
   3  -1   3 9.59672 1.35360   4
  -4   1  -3 50.6377 2.64831  10
  -4   1  -3 46.3300 2.37447   3
  -4   1  -3 50.6018 2.37386   7
  -4   1  -3 46.0054 2.13963   2
   4  -1   3 44.4501 2.44545   8
   4  -1   3 52.7853 2.57964   1
  -5   1  -3 11.8818 1.70224   3
  -5   1  -3 10.5795 1.70098  10
  -5   1  -3 11.0808 1.55119   7
  -5   1  -3 11.7340 1.47207   2
   5  -1   3 9.46932 1.56645   1
   5  -1   3 10.8687 1.80056   8
  -6   1  -3 18.0148 2.16057   3
  -6   1  -3 20.7115 2.17298   7
  -6   1  -3 21.2193 2.32068  10
  -6   1  -3 18.5789 1.96464   2
   6  -1   3 18.3219 2.23233   8
   6  -1   3 19.5072 1.99358   1
  -7   1  -3 164.811 5.16056   2
  -7   1  -3 166.958 5.44495   7
  -7   1  -3 176.900 5.65567   3
  -7   1  -3 164.310 5.61622  10
   7  -1   3 166.219 5.62378   8
   7  -1   3 172.912 5.15434   1
  -8   1  -3 12.9049 2.24017   2
  -8   1  -3 14.2291 2.53834  10
  -8   1  -3 8.37475 2.25840   7
  -8   1  -3 12.0544 2.38359   3
   8  -1   3 11.4943 2.40852   8
   8  -1   3 15.0804 2.17162   1
  -9   1  -3 1.97750 2.20253  10
  -9   1  -3 -1.2034 1.85495   2
  -9   1  -3 -1.5787 1.99720   7
  -9   1  -3 0.17445 2.13444   3
   9  -1   3 2.09039 2.20655   8
   9  -1   3 -1.8954 1.63914   1
  -8   0   3 5.99903 2.50175  10
  -8   0   3 6.30053 2.46676   3
   7   0  -3 89.0428 3.78619   8
  -7   0   3 92.4968 4.81475   3
  -7   0   3 96.3240 3.89219   6
  -7   0   3 99.7117 5.00903  10
   6   0  -3 33.2497 3.18791   9
   6   0  -3 43.5250 2.60873   8
  -6   0   3 34.5144 3.06403   3
  -6   0   3 38.6015 2.72990   6
  -6   0   3 39.1651 3.18971  10
   5   0  -3 20.7920 1.72529   8
   5   0  -3 14.9810 2.31504   9
  -5   0   3 18.7471 1.88026   6
  -5   0   3 15.9901 2.21476  10
  -5   0   3 15.5541 2.17826   3
   4   0  -3 2.41670 1.51609   9
   4   0  -3 1.94986 1.04885   5
   4   0  -3 3.43275 1.03110   8
  -4   0   3 3.39295 1.55677   3
  -4   0   3 3.00802 1.33832   4
  -4   0   3 3.83585 1.43520  10
   3   0  -3 14.8297 1.80867   9
   3   0  -3 16.2101 0.90253   1
   3   0  -3 19.6580 1.42275   5
   3   0  -3 17.2858 1.28465   8
  -3   0   3 15.0431 1.58596   4
  -3   0   3 16.0572 1.73683  10
  -3   0   3 14.4257 1.66048   3
   2   0  -3 79.8552 1.93294   1
   2   0  -3 80.3381 1.94126   8
   2   0  -3 82.1144 2.20010   5
   2   0  -3 79.6516 2.94422   9
  -2   0   3 82.9073 2.97004  10
  -2   0   3 82.3096 2.83448   4
  -2   0   3 79.9236 2.19376   5
   1   0  -3 172.390 3.28958   5
   1   0  -3 177.389 4.14469   9
   1   0  -3 177.406 3.48359   1
  -1   0   3 175.094 3.28103   5
  -1   0   3 175.243 4.22042  10
  -1   0   3 170.952 4.22528   4
  -1   0   3 173.537 4.13318   3
   0   0  -3 164.353 3.76942   7
   0   0  -3 163.251 3.47368   1
   0   0  -3 162.774 3.79739   9
   0   0  -3 169.774 2.97318   5
   0   0  -3 166.985 3.77704   2
   0   0  -3 162.963 2.93849   8
   0   0   3 167.932 3.73363   7
   0   0   3 168.389 3.99379   4
   0   0   3 159.068 3.74926   2
   0   0   3 161.933 3.65742   3
   0   0   3 164.840 3.50293   1
  -1   0  -3 123.872 2.65436   8
  -1   0  -3 120.790 2.95771   1
  -1   0  -3 121.487 3.08277   7
  -1   0  -3 117.652 3.13641   4
  -1   0  -3 117.649 3.09010   2
   1   0   3 119.947 3.03748   1
   1   0   3 118.191 3.23076   4
   1   0   3 118.773 3.04601   2
   1   0   3 124.979 2.99284   7
   1   0   3 121.724 2.66298   8
  -2   0  -3 120.841 3.10320   2
  -2   0  -3 116.000 3.02098   1
  -2   0  -3 115.769 2.86419   8
  -2   0  -3 117.182 3.07662   4
  -2   0  -3 115.816 3.06901   7
   2   0   3 116.857 2.99997   8
   2   0   3 116.543 2.97616  10
   2   0   3 120.266 3.15855   4
   2   0   3 121.038 3.01169   2
   2   0   3 119.151 3.03778   7
   2   0   3 119.992 2.83477   3
   2   0   3 116.469 3.17254   1
  -3   0  -3 11.3895 1.27290   7
  -3   0  -3 9.97130 1.27734  10
  -3   0  -3 8.13106 1.07415   3
  -3   0  -3 8.77222 1.23637   2
   3   0   3 10.0208 1.32687   8
   3   0   3 9.71983 1.02951   3
   3   0   3 8.26967 1.27531   1
   3   0   3 8.03454 1.16431   4
  -4   0  -3 50.3308 2.26660   3
  -4   0  -3 53.6271 2.50194   7
  -4   0  -3 49.4378 2.49106  10
  -4   0  -3 51.7215 2.35010   2
   4   0   3 51.5219 1.79370   6
   4   0   3 47.6592 2.45857   8
   4   0   3 49.2021 2.25210   4
   4   0   3 51.5370 2.44386   1
  -5   0  -3 11.5744 1.66497  10
  -5   0  -3 17.9031 1.73422   2
  -5   0  -3 17.1257 1.72026   3
  -5   0  -3 11.9557 1.61482   7
   5   0   3 12.0957 1.58026   1
   5   0   3 15.0428 1.90493   8
   5   0   3 12.2583 1.43011   4
   5   0   3 13.5225 1.08132   6
  -6   0  -3 41.4191 2.75289   2
  -6   0  -3 42.2737 2.91164  10
  -6   0  -3 39.1464 2.84630   7
  -6   0  -3 43.7597 2.88335   3
   6   0   3 40.4484 2.93183   8
   6   0   3 41.1844 2.73009   1
   6   0   3 42.7781 1.76349   6
   6   0   3 39.2174 2.35838   4
  -7   0  -3 115.471 4.50968   3
  -7   0  -3 119.122 4.74427  10
  -7   0  -3 110.414 4.44384   2
  -7   0  -3 116.661 4.73574   7
   7   0   3 116.269 3.77002   4
   7   0   3 116.230 4.13744   1
   7   0   3 115.805 4.56935   8
  -8   0  -3 12.1431 2.32488   7
  -8   0  -3 11.1204 2.35736  10
  -8   0  -3 11.9772 2.19753   2
  -8   0  -3 10.6492 2.31517   3
   8   0   3 12.0236 2.48561   8
   8   0   3 12.6148 1.99536   1
   8   0   3 15.6231 2.09707   4
  -9   0  -3 111.685 5.49258   7
  -9   0  -3 101.124 5.10839  10
  -9   0  -3 103.269 5.07784   3
  -9   0  -3 102.940 4.98735   2
   9   0   3 97.6876 4.83273   1
   9   0   3 104.770 5.02134   8
   8  -1  -3 43.7659 3.32187   8
  -8   1   3 42.7905 3.99468  10
  -8   1   3 42.3285 3.90527   3
   7  -1  -3 0.26095 1.46667   8
   7  -1  -3 -1.2951 1.93856   9
  -7   1   3 -0.9799 1.88346   3
  -7   1   3 0.26829 2.02248  10
  -7   1   3 -0.5007 1.46382   6
   6  -1  -3 0.76096 1.88395   9
   6  -1  -3 0.98011 1.40855   8
  -6   1   3 -1.0120 1.69368   3
  -6   1   3 0.67198 1.90240  10
  -6   1   3 1.21941 1.38757   6
   5  -1  -3 79.0775 2.34190   1
   5  -1  -3 81.5984 3.05918   8
   5  -1  -3 82.0241 4.07625   9
   5  -1  -3 75.0529 3.28648   5
  -5   1   3 75.6939 3.33710   6
  -5   1   3 78.2585 4.03484  10
  -5   1   3 81.1261 3.87023   3
   4  -1  -3 15.8501 1.52865   8
   4  -1  -3 15.7353 1.63318   5
   4  -1  -3 18.9448 1.35571   1
   4  -1  -3 18.6899 2.19975   9
  -4   1   3 18.7800 1.82158   6
  -4   1   3 18.1953 2.10079  10
  -4   1   3 15.4404 1.97492   3
   3  -1  -3 150.975 3.48875   8
   3  -1  -3 144.721 4.36530   9
   3  -1  -3 140.080 3.13169   1
   3  -1  -3 149.516 3.69238   5
  -3   1   3 134.611 4.17620   3
  -3   1   3 150.023 4.24389   4
  -3   1   3 147.883 4.08174   6
   2  -1  -3 30.3924 1.66324   5
   2  -1  -3 31.0172 2.16764   9
  -2   1   3 33.7273 2.11959   3
  -2   1   3 31.2075 2.10527  10
  -2   1   3 28.7036 1.57498   5
  -2   1   3 31.0720 2.20657   4
   1  -1  -3 72.5528 2.72503   9
   1  -1  -3 79.4180 2.49550   3
   1  -1  -3 79.7428 2.62121   2
   1  -1  -3 74.1205 2.13719   5
  -1   1   3 81.0527 2.62009  10
  -1   1   3 77.2880 2.78761   4
  -1   1   3 77.9762 2.57714   3
  -1   1   3 81.1523 2.12432   5
   0  -1  -3 7.35056 1.22659   9
   0  -1  -3 6.78943 0.81969   5
   0  -1  -3 7.32571 1.14746   7
   0  -1  -3 5.59080 1.17450   2
   0  -1  -3 6.47038 1.09724   4
   0  -1  -3 6.53459 0.78240   8
   0   1   3 7.56368 1.26865   4
   0   1   3 7.20726 0.80644   5
   0   1   3 8.11339 0.99911   3
  -1  -1  -3 2.02295 0.70679   1
  -1  -1  -3 2.05965 0.99618   4
  -1  -1  -3 1.83882 1.00784   2
  -1  -1  -3 2.12288 0.80733   8
  -1  -1  -3 1.86535 0.98280   7
   1   1   3 1.66580 0.85602   8
   1   1   3 1.05021 1.05079   4
   1   1   3 2.27788 0.98045   2
  -2  -1  -3 273.335 5.34493   4
  -2  -1  -3 274.388 5.53705   7
  -2  -1  -3 268.989 5.45831   1
  -2  -1  -3 280.876 5.56965   2
  -2  -1  -3 261.819 5.30184   8
   2   1   3 275.469 5.13236  10
   2   1   3 271.307 4.88147   3
   2   1   3 269.883 5.37552   4
   2   1   3 268.689 5.42507   2
   2   1   3 269.975 5.49362   1
   2   1   3 266.398 5.35685   8
  -3  -1  -3 108.717 3.17493   2
  -3  -1  -3 111.929 2.67856   3
  -3  -1  -3 106.350 2.86508  10
  -3  -1  -3 106.724 3.21499   7
  -3  -1  -3 109.494 2.76347   4
   3   1   3 109.987 2.64303   3
   3   1   3 113.671 3.21326   8
   3   1   3 110.129 2.87540   4
   3   1   3 108.831 3.19137   1
   3   1   3 108.886 2.78972  10
  -4  -1  -3 5.03674 1.25459   7
  -4  -1  -3 4.21115 1.10678  10
  -4  -1  -3 3.68542 1.19817   2
  -4  -1  -3 3.00445 0.98307   3
   4   1   3 3.25799 0.62072   6
   4   1   3 3.66294 1.12080   1
   4   1   3 1.76977 0.71122   3
   4   1   3 2.25165 0.87392   4
   4   1   3 3.07438 1.22026   8
  -5  -1  -3 2.18416 1.30703   7
  -5  -1  -3 1.30419 1.12066   3
  -5  -1  -3 0.62210 1.17882  10
  -5  -1  -3 -0.8158 1.19536   2
   5   1   3 4.15696 1.32152   1
   5   1   3 1.07658 0.89338   4
   5   1   3 3.50443 1.39905   8
   5   1   3 1.13920 0.56636   6
  -6  -1  -3 18.9062 1.90254   3
  -6  -1  -3 16.2206 1.96433   7
  -6  -1  -3 22.1968 2.10499  10
  -6  -1  -3 16.5583 1.99913   2
   6   1   3 14.6708 1.77588   1
   6   1   3 17.2407 2.14299   8
   6   1   3 19.0569 1.50991   4
  -7  -1  -3 296.381 7.63057   7
  -7  -1  -3 295.304 7.44319   2
  -7  -1  -3 285.382 7.04006   3
  -7  -1  -3 277.130 7.23154  10
   7   1   3 294.804 7.52273   8
   7   1   3 285.088 6.73643   1
   7   1   3 293.848 6.07260   4
  -8  -1  -3 3.45642 1.95000   2
  -8  -1  -3 1.84742 1.75847   3
  -8  -1  -3 1.76328 1.91109   7
  -8  -1  -3 2.40480 1.92976  10
   8   1   3 1.67753 1.54789   1
   8   1   3 -0.0435 1.87987   8
  -9  -1  -3 2.28408 2.10968  10
  -9  -1  -3 3.97666 2.25647   7
  -9  -1  -3 5.15131 2.29193   2
  -9  -1  -3 4.70369 2.12605   3
   9   1   3 7.77233 2.47105   8
   8  -2  -3 6.67126 2.09437   8
  -8   2   3 6.67129 2.61228   3
  -8   2   3 2.96596 2.44557  10
   7  -2  -3 30.0209 3.32841   9
   7  -2  -3 28.8728 2.65259   8
  -7   2   3 33.8965 2.88486   6
  -7   2   3 28.3191 3.15412   3
  -7   2   3 37.2253 3.57865  10
   6  -2  -3 5.24563 1.21649   1
   6  -2  -3 6.48223 1.81482   5
   6  -2  -3 8.47903 1.77020   8
   6  -2  -3 6.85528 2.18022   9
  -6   2   3 7.12826 1.80910   6
  -6   2   3 2.58320 1.91410  10
  -6   2   3 3.51998 2.00216   3
   5  -2  -3 2.99033 1.11209   1
   5  -2  -3 3.79981 1.49571   5
   5  -2  -3 1.37987 1.75347   9
   5  -2  -3 1.45032 1.40472   8
  -5   2   3 2.74621 1.73883   3
  -5   2   3 7.22365 1.94938  10
  -5   2   3 2.87655 1.51308   6
   4  -2  -3 63.2505 3.30526   9
   4  -2  -3 64.4188 2.83892   5
   4  -2  -3 61.5682 2.70962   8
   4  -2  -3 64.9526 2.32738   1
  -4   2   3 69.8709 3.07280   6
  -4   2   3 63.6012 3.27083   3
  -4   2   3 59.5374 3.37832  10
   3  -2  -3 46.9498 1.93146   1
   3  -2  -3 45.1394 2.31150   5
   3  -2  -3 43.9633 2.60252   9
  -3   2   3 47.0262 2.64894   3
  -3   2   3 42.6177 2.61935  10
  -3   2   3 46.1749 2.53586   6
  -3   2   3 51.0490 2.78752   4
   2  -2  -3 5.18195 1.31066   9
   2  -2  -3 5.52974 1.06551   5
  -2   2   3 5.58432 1.29182   6
  -2   2   3 5.07234 1.24988   3
  -2   2   3 5.72258 1.35595   4
  -2   2   3 6.82070 1.30504  10
   1  -2  -3 41.6909 1.87696   5
   1  -2  -3 41.5353 2.15894   2
   1  -2  -3 40.8621 1.95472   3
   1  -2  -3 40.7401 1.96103  10
   1  -2  -3 43.2709 2.26638   9
  -1   2   3 41.9565 2.33754   4
  -1   2   3 43.5667 1.83436   5
  -1   2   3 41.8211 2.06370  10
  -1   2   3 44.0700 2.03298   3
   0  -2  -3 33.9467 1.65391   5
   0  -2  -3 37.3171 3.09457   4
   0  -2  -3 37.0082 2.02057   2
   0  -2  -3 31.4244 2.01534   9
   0  -2  -3 32.6971 1.51452   3
   0   2   3 30.3165 2.02910   4
   0   2   3 31.2980 1.60501   5
   0   2   3 32.6191 1.75469   7
   0   2   3 33.4961 1.61090   3
   0   2   3 33.7541 1.58789  10
  -1  -2  -3 -0.7266 0.91399   7
  -1  -2  -3 0.35615 0.85998   5
  -1  -2  -3 -0.8350 0.97271   2
  -1  -2  -3 -0.5647 0.75491   8
  -1  -2  -3 1.54659 1.01260   4
   1   2   3 0.11791 0.53665   2
   1   2   3 0.09158 0.76579   7
   1   2   3 0.46114 1.02941   4
   1   2   3 0.01568 0.52721   3
  -2  -2  -3 90.4522 2.56229   4
  -2  -2  -3 90.2560 2.89391   2
  -2  -2  -3 89.3369 2.80083   7
   2   2   3 88.1761 2.10184  10
   2   2   3 90.8059 2.59303   4
   2   2   3 91.3494 2.72724   8
  -3  -2  -3 45.9530 2.34761   2
  -3  -2  -3 48.0677 1.73756   4
  -3  -2  -3 48.6566 1.77275  10
  -3  -2  -3 49.1343 2.31691   7
  -3  -2  -3 50.6278 1.50137   3
   3   2   3 48.7199 1.47346   3
   3   2   3 49.1187 1.74015  10
   3   2   3 51.0295 1.80371   4
   3   2   3 48.3552 2.27124   8
  -4  -2  -3 6.66418 0.95161   3
  -4  -2  -3 5.11823 1.26020   7
  -4  -2  -3 7.49234 1.12088  10
  -4  -2  -3 6.97270 1.38714   2
   4   2   3 6.02203 1.30457   8
   4   2   3 7.07721 0.92335   3
   4   2   3 7.54545 0.88027   4
  -5  -2  -3 129.035 4.16222   7
  -5  -2  -3 131.766 3.47489   3
  -5  -2  -3 127.418 4.13962   2
  -5  -2  -3 126.083 3.64709  10
   5   2   3 126.735 2.89780   4
   5   2   3 127.866 4.06749   8
  -6  -2  -3 0.87603 1.31465  10
  -6  -2  -3 0.70856 1.42120   7
  -6  -2  -3 3.74071 1.55448   2
  -6  -2  -3 -1.3691 1.17301   3
   6   2   3 0.60915 0.74480   4
   6   2   3 0.09060 1.46300   8
  -7  -2  -3 24.9501 2.29983   3
  -7  -2  -3 24.1200 2.35638  10
  -7  -2  -3 25.9732 2.68955   2
  -7  -2  -3 23.4918 2.55135   7
   7   2   3 26.2839 2.71374   8
   7   2   3 28.1471 2.07667   4
  -8  -2  -3 13.6010 2.49555   2
  -8  -2  -3 13.4552 2.42038   7
  -8  -2  -3 14.4439 2.16523   3
  -8  -2  -3 15.4233 2.34503  10
   8   2   3 10.7133 2.35030   8
  -9  -2  -3 64.9790 4.48201   2
  -9  -2  -3 60.4728 3.87891   3
  -9  -2  -3 56.5525 4.05969  10
  -9  -2  -3 54.1238 4.22633   7
   9   2   3 60.8863 4.20984   8
   8  -3  -3 -0.8405 2.02150   8
  -8   3   3 1.19469 2.27448   3
  -8   3   3 0.11435 2.35234  10
  -8   3   3 -0.2584 2.13187   6
   7  -3  -3 2.34404 1.87901   5
   7  -3  -3 1.31798 1.84512   8
   7  -3  -3 2.00877 2.16795   9
  -7   3   3 0.62577 2.22682  10
  -7   3   3 0.92235 2.02680   3
  -7   3   3 0.84331 1.76868   6
   6  -3  -3 3.17395 1.28923   1
   6  -3  -3 1.85901 1.67396   8
   6  -3  -3 -1.1676 1.80981   9
   6  -3  -3 1.74300 1.68895   5
  -6   3   3 -1.0269 1.84939   3
  -6   3   3 -0.7568 1.60659   6
  -6   3   3 4.06838 2.05364  10
   5  -3  -3 5.97398 1.40364   1
   5  -3  -3 7.45777 1.75626   5
   5  -3  -3 8.30715 2.03686   9
   5  -3  -3 5.74045 1.65983   8
  -5   3   3 4.91661 1.87600   3
  -5   3   3 2.23909 1.86218  10
  -5   3   3 8.07154 1.82740   6
   4  -3  -3 23.3719 2.29689   9
   4  -3  -3 19.8323 1.97191   5
   4  -3  -3 26.3412 1.87188   1
  -4   3   3 21.5910 2.32332   3
  -4   3   3 23.6014 2.23453   6
  -4   3   3 21.4087 2.28820  10
   3  -3  -3 13.4680 1.64034   5
   3  -3  -3 11.9374 1.75003   9
   3  -3  -3 14.0770 1.42591   1
  -3   3   3 13.5086 1.76610  10
  -3   3   3 15.2875 1.88053   3
  -3   3   3 12.7198 1.74433   6
   2  -3  -3 22.9709 1.88257   9
   2  -3  -3 24.7095 1.78909   5
  -2   3   3 23.8681 1.84657  10
  -2   3   3 26.3094 2.00010   6
  -2   3   3 24.7268 1.84813   3
   1  -3  -3 233.763 5.11069   5
   1  -3  -3 233.613 5.14142   2
   1  -3  -3 229.897 5.28413   9
  -1   3   3 243.833 5.47886   6
  -1   3   3 256.707 5.67394   4
  -1   3   3 234.294 5.06110  10
  -1   3   3 229.515 5.05378   3
   0  -3  -3 141.623 3.17113  10
   0  -3  -3 137.851 3.68572   9
   0  -3  -3 145.676 3.59347   7
   0  -3  -3 141.277 3.65591   2
   0  -3  -3 136.888 3.14981   3
   0  -3  -3 143.694 3.54145   5
   0   3   3 144.630 3.91598   4
   0   3   3 145.992 3.18452  10
   0   3   3 142.336 3.74938   6
   0   3   3 148.965 3.23815   3
  -1  -3  -3 211.815 4.73958   4
  -1  -3  -3 209.435 4.61879   7
  -1  -3  -3 209.928 4.77287   2
  -1  -3  -3 224.144 4.65484   5
  -1  -3  -3 210.987 3.79555   3
   1   3   3 212.756 4.64590   6
   1   3   3 215.560 3.80591   3
   1   3   3 222.959 4.79050   4
   1   3   3 213.013 3.86287  10
  -2  -3  -3 3.84126 0.93636   4
  -2  -3  -3 3.18018 1.14354   2
  -2  -3  -3 2.85101 1.00781   7
   2   3   3 3.30042 0.88113   6
   2   3   3 3.82848 0.99514   4
  -3  -3  -3 134.306 3.78782   2
  -3  -3  -3 126.293 3.59684   7
  -3  -3  -3 125.326 2.94662   4
   3   3   3 132.849 2.69524  10
   3   3   3 130.264 2.95716   4
   3   3   3 125.883 2.73204   6
   3   3   3 120.369 3.63275   8
  -4  -3  -3 226.807 5.40926   7
  -4  -3  -3 216.178 4.52099  10
  -4  -3  -3 220.049 4.26895   3
  -4  -3  -3 226.221 4.11457   4
  -4  -3  -3 214.431 5.45491   2
   4   3   3 227.712 4.26946   3
   4   3   3 225.666 5.41419   8
   4   3   3 204.676 4.44686  10
   4   3   3 226.694 4.12577   4
  -5  -3  -3 140.519 3.75295  10
  -5  -3  -3 144.306 4.60611   2
  -5  -3  -3 139.184 4.46315   7
  -5  -3  -3 148.329 3.56335   3
   5   3   3 142.860 4.47110   8
  -6  -3  -3 2.82940 1.57627   7
  -6  -3  -3 1.07669 1.25356  10
  -6  -3  -3 3.15068 1.22475   3
  -6  -3  -3 1.55888 1.70003   2
   6   3   3 -0.4989 1.58141   8
  -7  -3  -3 14.5940 1.87454   3
  -7  -3  -3 11.2489 2.20762   7
  -7  -3  -3 10.0751 2.21306   2
  -7  -3  -3 14.3405 1.91814  10
   7   3   3 12.2802 2.25901   8
  -8  -3  -3 2.57541 1.78912  10
  -8  -3  -3 1.25821 2.07338   2
  -8  -3  -3 3.65977 2.08645   7
  -8  -3  -3 -0.3248 1.59864   3
   8   3   3 1.84465 2.05993   8
  -9  -3  -3 -2.8131 2.14678   2
  -9  -3  -3 -3.5890 1.99495   7
  -9  -3  -3 -0.7307 1.87170   3
  -9  -3  -3 -1.5032 1.76772  10
   9   3   3 0.78832 2.12874   8
   7  -4  -3 1.22655 2.09020   9
   7  -4  -3 0.90459 1.99652   8
   7  -4  -3 1.26159 1.87366   5
  -7   4   3 2.19702 2.29498  10
  -7   4   3 -1.3139 1.97385   3
  -7   4   3 -0.8161 1.84156   6
   6  -4  -3 48.7073 3.54628   5
   6  -4  -3 43.9468 3.66770   9
   6  -4  -3 43.0282 3.27334   8
   6  -4  -3 45.9957 2.89703   1
  -6   4   3 44.2342 3.60723  10
  -6   4   3 42.0726 3.46673   3
  -6   4   3 49.6506 3.69665   6
   5  -4  -3 1.49820 1.68742   8
   5  -4  -3 1.30784 1.69513   9
   5  -4  -3 0.40275 1.58531   5
   5  -4  -3 0.30704 1.32644   1
  -5   4   3 1.48943 1.65779   3
  -5   4   3 -0.2526 1.59710   6
  -5   4   3 -0.3972 1.71091  10
   4  -4  -3 92.6687 3.95305   9
   4  -4  -3 87.5929 3.70971   5
   4  -4  -3 90.2208 3.33242   1
  -4   4   3 89.3124 4.03365  10
  -4   4   3 85.6497 3.89596   3
  -4   4   3 90.2648 3.99114   6
   3  -4  -3 17.8460 1.97530   9
   3  -4  -3 18.9311 1.90963   5
   3  -4  -3 20.0141 1.82870   1
  -3   4   3 16.8156 1.90171   3
  -3   4   3 16.5657 1.99128   6
  -3   4   3 18.4748 1.98882  10
   2  -4  -3 0.81847 1.17326   5
   2  -4  -3 0.90586 1.17308   9
  -2   4   3 -1.2502 1.13790   6
  -2   4   3 0.25269 1.11300  10
  -2   4   3 0.14697 1.05107   3
   1  -4  -3 54.8494 2.39044   2
   1  -4  -3 56.6085 2.48210   9
   1  -4  -3 62.0234 2.52615   5
  -1   4   3 58.2706 2.28755  10
  -1   4   3 58.4190 2.75168   6
  -1   4   3 54.3846 2.32659   3
   0  -4  -3 353.937 7.10489   5
   0  -4  -3 360.866 6.97080   7
   0  -4  -3 359.817 7.08373   9
   0  -4  -3 355.995 6.60333   3
   0  -4  -3 347.395 6.47083  10
   0  -4  -3 364.924 7.07961   2
   0   4   3 348.327 7.26320   6
   0   4   3 357.218 6.61777   3
   0   4   3 355.819 6.48392  10
  -1  -4  -3 1214.89 20.3840   7
  -1  -4  -3 1222.21 20.5610   5
  -1  -4  -3 1202.73 20.5157   2
  -1  -4  -3 1242.91 19.5845   3
   1   4   3 1197.73 19.5671   3
   1   4   3 1230.07 19.3973  10
   1   4   3 1219.32 20.5228   6
  -2  -4  -3 23.8920 1.71598   4
  -2  -4  -3 23.8734 1.80146   2
  -2  -4  -3 18.4075 1.60447   5
  -2  -4  -3 21.0732 1.62824   7
   2   4   3 22.0968 1.59405   6
  -3  -4  -3 190.369 4.82089   2
  -3  -4  -3 183.955 4.62758   7
  -3  -4  -3 187.043 3.99219   4
   3   4   3 184.782 3.88044   6
  -4  -4  -3 192.319 3.89727  10
  -4  -4  -3 198.010 5.22906   2
  -4  -4  -3 197.137 3.72107   4
  -4  -4  -3 201.006 5.16146   7
  -4  -4  -3 188.572 3.66542   3
   4   4   3 208.653 5.22320   8
   4   4   3 197.623 3.91080  10
   4   4   3 177.538 3.57092   6
  -5  -4  -3 11.0172 1.12209   3
  -5  -4  -3 9.49661 1.68697   7
  -5  -4  -3 9.66285 1.20560  10
  -5  -4  -3 10.0440 1.77198   2
   5   4   3 9.14432 1.01122   3
   5   4   3 9.90036 1.81176   8
  -6  -4  -3 13.5062 1.50936   3
  -6  -4  -3 15.1446 2.27909   2
  -6  -4  -3 13.0410 1.60628  10
  -6  -4  -3 16.0797 2.24291   7
   6   4   3 11.3370 2.09434   8
  -7  -4  -3 48.9505 3.77276   2
  -7  -4  -3 52.2366 3.00831  10
  -7  -4  -3 54.3088 3.78712   7
  -7  -4  -3 50.6108 2.86253   3
   7   4   3 43.7454 3.36489   8
  -8  -4  -3 -0.5031 2.05400   2
  -8  -4  -3 1.22077 2.01144   7
  -8  -4  -3 0.85300 1.61097  10
  -8  -4  -3 0.95323 1.70380   3
   8   4   3 4.44613 2.23350   8
  -9  -4  -3 1.08579 2.29770   2
  -9  -4  -3 0.06376 2.33093   7
   9   4   3 0.61571 2.29550   8
   7  -5  -3 7.86630 2.40808   9
   7  -5  -3 7.78375 2.39616   8
   7  -5  -3 3.79853 2.14570   5
  -7   5   3 2.66978 2.30392  10
  -7   5   3 4.85226 2.17040   6
  -7   5   3 6.47364 2.49635   3
   6  -5  -3 4.60391 2.22322   8
   6  -5  -3 2.85583 1.93063   9
   6  -5  -3 5.14966 2.01591   5
   6  -5  -3 3.42795 1.70949   1
  -6   5   3 6.36940 2.24313   3
  -6   5   3 5.48486 2.18186   6
  -6   5   3 4.92695 2.28551  10
   5  -5  -3 2.38446 1.54951   1
   5  -5  -3 3.71339 1.73829   9
   5  -5  -3 1.01823 1.63439   5
  -5   5   3 3.89108 1.93470  10
  -5   5   3 3.31108 1.91414   3
  -5   5   3 0.88099 1.82755   6
   4  -5  -3 0.19421 1.53036   9
   4  -5  -3 -1.4627 1.34154   1
   4  -5  -3 0.83961 1.58764   5
  -4   5   3 0.97504 1.57929   6
  -4   5   3 -0.6672 1.52252  10
  -4   5   3 -0.0561 1.54095   3
   3  -5  -3 3.16914 1.39748   1
   3  -5  -3 3.36322 1.50101   5
   3  -5  -3 2.32079 1.44338   9
  -3   5   3 -1.2503 1.30739  10
  -3   5   3 1.35471 1.49812   3
  -3   5   3 2.69123 1.50245   6
   2  -5  -3 40.4421 2.52109   1
   2  -5  -3 45.2574 2.76078   5
   2  -5  -3 40.3959 2.54643   9
  -2   5   3 43.3650 2.48476  10
  -2   5   3 42.3466 2.58202   3
  -2   5   3 40.4674 2.76977   6
   1  -5  -3 37.9262 2.17792   2
   1  -5  -3 41.2652 2.31121   9
   1  -5  -3 35.1169 2.45412   5
  -1   5   3 37.1529 2.17559   3
  -1   5   3 38.7627 2.55667   6
  -1   5   3 43.0795 2.10923  10
   0  -5  -3 157.720 3.50920  10
   0  -5  -3 158.514 4.27921   5
   0  -5  -3 163.785 4.11247   2
   0  -5  -3 159.128 3.97927   7
   0  -5  -3 161.535 4.10839   9
   0  -5  -3 162.183 3.70066   3
   0   5   3 163.377 3.78059   3
   0   5   3 160.168 4.43361   6
   0   5   3 162.894 3.54113  10
  -1  -5  -3 55.2418 2.47096   2
  -1  -5  -3 53.9015 1.68299   3
  -1  -5  -3 52.1367 2.50466   5
  -1  -5  -3 57.6031 2.32301   7
   1   5   3 59.7868 2.57807   6
  -2  -5  -3 -0.3195 1.16634   2
  -2  -5  -3 0.08597 1.15068   5
  -2  -5  -3 -0.7551 0.97130   7
   2   5   3 -1.6315 0.88300   6
  -3  -5  -3 16.2989 1.35614   4
  -3  -5  -3 16.6256 1.76674   5
  -3  -5  -3 14.8236 1.62270   7
  -3  -5  -3 14.8316 1.75462   2
   3   5   3 13.3032 1.24232   6
  -4  -5  -3 194.690 5.47061   2
  -4  -5  -3 201.375 5.30605   7
  -4  -5  -3 205.457 4.00597   4
   4   5   3 195.918 4.02789   6
  -5  -5  -3 13.2465 1.18312  10
  -5  -5  -3 10.7189 1.98296   2
  -5  -5  -3 11.8101 1.09768   3
  -5  -5  -3 12.1298 1.89707   7
   5   5   3 15.4518 2.17419   8
   5   5   3 13.0080 1.13082  10
  -6  -5  -3 0.25012 1.09215  10
  -6  -5  -3 0.16732 1.66287   2
  -6  -5  -3 1.02760 1.04449   3
  -6  -5  -3 3.25725 1.69942   7
   6   5   3 4.24502 1.89519   8
  -7  -5  -3 80.0661 4.43740   7
  -7  -5  -3 88.0388 3.35735  10
  -7  -5  -3 79.1013 4.60388   2
   7   5   3 81.0710 4.46567   8
  -8  -5  -3 11.9339 2.52489   2
  -8  -5  -3 11.0267 2.52491   7
   8   5   3 18.4872 2.91829   8
  -9  -5  -3 1.25721 2.38779   7
  -9  -5  -3 4.63636 2.64848   2
   9   5   3 -0.1061 2.41696   8
   6  -6  -3 -3.2927 1.73590   5
   6  -6  -3 2.04071 2.10169   8
   6  -6  -3 -0.7542 1.72008   1
   6  -6  -3 -0.0209 1.84761   9
  -6   6   3 1.58077 2.12021  10
  -6   6   3 1.43359 2.14704   3
  -6   6   3 0.67377 2.06044   6
   5  -6  -3 0.02398 1.75137   5
   5  -6  -3 -0.1093 1.66223   9
   5  -6  -3 -0.0493 1.58047   1
  -5   6   3 -1.9344 1.64727  10
  -5   6   3 -1.8509 1.80675   6
  -5   6   3 1.10847 1.90786   3
   4  -6  -3 -1.3503 1.44725   1
   4  -6  -3 -0.0741 1.61642   5
   4  -6  -3 -1.0868 1.45914   9
  -4   6   3 -1.2039 1.50308   3
  -4   6   3 -0.1477 1.69877   6
  -4   6   3 -1.7712 1.46602  10
   3  -6  -3 8.88241 1.85634   1
   3  -6  -3 10.2981 1.82087   9
   3  -6  -3 8.41449 1.84050   5
  -3   6   3 11.0370 1.85515  10
  -3   6   3 7.59298 1.82145   3
  -3   6   3 11.9361 2.11647   6
   2  -6  -3 23.4899 2.21776   1
   2  -6  -3 20.7972 2.16502   5
   2  -6  -3 26.2310 2.14955   9
  -2   6   3 22.9263 2.16187   3
  -2   6   3 26.0019 2.52738   6
  -2   6   3 28.2490 2.10716  10
   1  -6  -3 3.72116 1.28726   9
   1  -6  -3 3.36991 1.47527   5
   1  -6  -3 3.06666 1.18588   2
  -1   6   3 2.22234 1.06431  10
  -1   6   3 2.19882 1.51120   6
  -1   6   3 4.74068 1.28715   3
   0  -6  -3 19.5917 1.44095  10
   0  -6  -3 16.8947 1.81129   5
   0  -6  -3 21.1269 1.77421   9
   0  -6  -3 18.8859 1.68590   2
   0  -6  -3 17.8040 1.53855   7
   0   6   3 16.7997 1.91320   6
   0   6   3 17.8276 1.25222  10
   0   6   3 19.2673 1.55188   3
  -1  -6  -3 97.0729 3.23707   2
  -1  -6  -3 90.8622 3.42923   5
  -1  -6  -3 90.8798 2.44276   3
  -1  -6  -3 88.6564 2.94488   7
   1   6   3 89.6396 3.36142   6
  -2  -6  -3 1.83000 1.07106   7
  -2  -6  -3 0.42336 0.53678   3
  -2  -6  -3 0.54424 1.36637   5
  -2  -6  -3 1.51557 1.26313   2
   2   6   3 -1.2322 0.98703   6
  -3  -6  -3 11.7883 1.56517   7
  -3  -6  -3 13.9882 1.79333   2
  -3  -6  -3 13.1900 1.80349   5
   3   6   3 11.3719 1.32961   6
  -4  -6  -3 17.1181 1.88146   7
  -4  -6  -3 19.3159 2.16041   2
  -4  -6  -3 16.5619 1.95233   5
  -4  -6  -3 17.8301 1.46391   4
   4   6   3 17.8905 1.35613   6
  -5  -6  -3 31.6149 2.51046   7
  -5  -6  -3 29.6308 2.65629   2
  -5  -6  -3 30.1612 1.52383   3
  -6  -6  -3 34.3300 2.87465   7
  -6  -6  -3 30.0088 2.93494   2
  -7  -6  -3 11.9087 2.32728   7
  -7  -6  -3 8.34468 2.34190   2
   7   6   3 11.5764 2.54305   8
  -8  -6  -3 1.01479 2.10985   7
  -8  -6  -3 -0.8131 2.19692   2
   8   6   3 -1.0923 2.28234   8
   6  -7  -3 26.7846 3.14402   5
   6  -7  -3 30.7198 3.16466   9
   6  -7  -3 23.6723 2.90830   1
  -6   7   3 30.8753 3.45462   6
  -6   7   3 20.8936 3.07731  10
  -6   7   3 29.1983 3.42460   3
   5  -7  -3 5.08592 1.98792   1
   5  -7  -3 3.59228 1.92398   9
   5  -7  -3 4.60840 2.13479   5
  -5   7   3 5.20748 2.23990   6
  -5   7   3 6.86571 2.14862  10
  -5   7   3 7.23374 2.36035   3
   4  -7  -3 0.99271 1.78086   5
   4  -7  -3 2.10102 1.75382   1
   4  -7  -3 -1.5545 1.39254   9
  -4   7   3 1.49545 1.67109  10
  -4   7   3 -0.3284 1.82747   6
  -4   7   3 3.33255 1.94330   3
   3  -7  -3 0.65580 1.71095   1
   3  -7  -3 2.04044 1.50509   9
   3  -7  -3 2.88331 1.78282   5
  -3   7   3 2.54549 1.70980   3
  -3   7   3 3.28116 1.56951  10
  -3   7   3 2.97467 1.81481   6
   2  -7  -3 14.3620 1.81874   9
   2  -7  -3 15.0419 2.10887   5
   2  -7  -3 13.9406 2.11957   1
  -2   7   3 13.4400 2.16835   6
  -2   7   3 16.4145 2.00528   3
  -2   7   3 14.1249 1.75420  10
   1  -7  -3 4.58131 1.76813   1
   1  -7  -3 3.61197 1.26319   2
   1  -7  -3 2.73604 1.30313   9
   1  -7  -3 2.32986 1.61467   5
  -1   7   3 1.77597 1.30329   3
  -1   7   3 3.44566 1.13869  10
  -1   7   3 0.69988 1.62640   6
   0  -7  -3 -0.0517 0.78405  10
   0  -7  -3 -1.0373 1.14866   2
   0  -7  -3 -2.1257 1.35682   5
   0  -7  -3 1.02351 1.24846   9
   0  -7  -3 1.67126 1.10442   7
   0   7   3 -1.3518 1.32631   6
   0   7   3 0.34857 0.83383  10
  -1  -7  -3 10.7405 1.56741   2
  -1  -7  -3 10.1769 1.36906   7
  -1  -7  -3 10.3862 1.60523   9
  -1  -7  -3 10.5614 1.82641   5
   1   7   3 11.3342 1.73619   6
  -2  -7  -3 56.0740 2.64399   7
  -2  -7  -3 61.7805 2.98306   2
  -2  -7  -3 51.9827 1.83623   3
  -2  -7  -3 61.0872 3.15297   5
   2   7   3 57.2409 2.87459   6
  -3  -7  -3 0.64531 1.21428   7
  -3  -7  -3 -3.1248 1.35967   5
  -3  -7  -3 0.52377 1.44649   2
   3   7   3 -0.1385 1.14344   6
  -4  -7  -3 33.3069 2.62242   5
  -4  -7  -3 30.5342 2.31069   7
  -4  -7  -3 34.9970 2.73677   2
   4   7   3 29.9252 2.12765   6
  -5  -7  -3 6.46334 1.71815   7
  -5  -7  -3 6.57144 1.98891   2
  -5  -7  -3 3.57531 1.70826   5
  -6  -7  -3 3.75966 1.84760   7
  -6  -7  -3 4.43309 2.04840   2
  -7  -7  -3 10.3659 2.53129   2
  -7  -7  -3 13.9709 2.51142   7
  -8  -7  -3 14.6150 2.78287   7
  -8  -7  -3 10.4441 2.89891   2
   5  -8  -3 12.6042 2.52639   5
   5  -8  -3 11.7580 2.49733   9
   5  -8  -3 14.1479 2.57876   1
  -5   8   3 11.6449 2.44401  10
  -5   8   3 8.62454 2.53788   6
  -5   8   3 13.0867 2.68249   3
   4  -8  -3 12.2516 2.39632   1
   4  -8  -3 19.4925 2.65720   5
   4  -8  -3 15.9631 2.19946   9
  -4   8   3 12.9480 2.29569  10
  -4   8   3 19.9956 2.77851   3
  -4   8   3 12.4665 2.59444   6
   3  -8  -3 17.4370 2.52835   5
   3  -8  -3 14.3589 2.47790   1
   3  -8  -3 21.6902 2.22464   9
  -3   8   3 21.8684 2.52540   3
  -3   8   3 14.8233 2.09856  10
  -3   8   3 14.0242 2.52909   6
   2  -8  -3 58.6500 3.79125   5
   2  -8  -3 69.7619 3.84107   1
   2  -8  -3 75.7948 3.13158   9
  -2   8   3 68.5947 3.51574   3
  -2   8   3 69.2950 4.08391   6
  -2   8   3 67.7512 3.24922  10
   1  -8  -3 7.28364 1.97038   1
   1  -8  -3 4.96244 1.88731   5
   1  -8  -3 3.09738 1.33176   9
   1  -8  -3 5.14724 1.28655   2
  -1   8   3 5.95810 1.88585   6
  -1   8   3 6.30511 1.34956  10
   0  -8  -3 26.5827 1.97653   9
   0  -8  -3 24.6432 2.64098   1
   0  -8  -3 22.4663 1.93312   2
   0  -8  -3 22.1197 2.33682   5
   0   8   3 22.9130 2.49635   6
  -1  -8  -3 37.1879 2.28291   7
  -1  -8  -3 30.8076 2.63627   5
  -1  -8  -3 31.9955 2.49637   2
  -1  -8  -3 34.5969 2.33812   9
   1   8   3 33.9882 2.66521   6
  -2  -8  -3 11.2051 1.77459   2
  -2  -8  -3 9.14477 1.99734   5
  -2  -8  -3 14.5649 1.62034   7
   2   8   3 14.2576 1.86340   6
  -3  -8  -3 22.5174 2.46142   5
  -3  -8  -3 23.5875 1.98369   7
  -3  -8  -3 23.8350 2.30749   2
   3   8   3 28.8578 2.27259   6
  -4  -8  -3 100.563 3.87775   7
  -4  -8  -3 99.2742 4.31451   5
  -4  -8  -3 108.597 4.45465   2
   4   8   3 110.894 3.59443   6
  -5  -8  -3 8.04681 1.89393   7
  -5  -8  -3 5.23512 2.03809   2
  -5  -8  -3 9.89390 2.09815   5
  -6  -8  -3 13.6118 2.24631   7
  -6  -8  -3 12.7787 2.55052   2
  -6  -8  -3 15.6656 2.43109   5
  -7  -8  -3 0.31396 2.01636   7
  -7  -8  -3 2.08856 1.82538   5
  -7  -8  -3 1.30154 2.24481   2
   4  -9  -3 18.2392 2.80386   5
   4  -9  -3 22.8757 3.00166   1
  -4   9   3 21.1804 2.95717   3
  -4   9   3 27.3257 3.44594   6
  -4   9   3 21.6503 2.74599  10
   3  -9  -3 10.9208 2.43088   5
   3  -9  -3 7.63693 2.29272   1
  -3   9   3 5.19130 1.97859   3
  -3   9   3 9.42337 2.59570   6
  -3   9   3 7.86646 1.94779  10
   2  -9  -3 9.59589 2.22162   5
   2  -9  -3 7.30393 2.22777   1
  -2   9   3 6.71330 1.71706  10
  -2   9   3 5.18903 2.20147   6
   1  -9  -3 -1.4847 1.82325   1
   1  -9  -3 -2.1541 1.67636   5
  -1   9   3 1.90113 1.87159   6
   0  -9  -3 72.1286 4.00004   5
   0  -9  -3 75.3449 4.21696   1
   0  -9  -3 78.0559 3.14820   2
   0   9   3 74.6608 4.01370   6
  -1  -9  -3 12.4415 2.20505   5
  -1  -9  -3 16.1899 1.77501   9
  -1  -9  -3 17.7574 2.50548   1
  -1  -9  -3 18.9454 1.93545   2
   1   9   3 18.3014 2.32853   6
  -2  -9  -3 83.7135 4.01013   7
  -2  -9  -3 83.1375 3.63210   2
  -2  -9  -3 81.2780 4.05753   5
   2   9   3 83.8319 3.96172   6
  -3  -9  -3 4.89175 1.79916   2
  -3  -9  -3 12.5644 2.29621   5
  -3  -9  -3 9.02268 1.57256   7
   3   9   3 6.37734 1.64972   6
  -4  -9  -3 29.3823 2.36327   7
  -4  -9  -3 29.8208 2.92234   5
  -4  -9  -3 24.9206 2.68045   2
   4   9   3 23.0605 2.19007   6
  -5  -9  -3 23.0324 2.79262   2
  -5  -9  -3 29.9680 2.56876   7
  -5  -9  -3 32.3291 3.06387   5
  -6  -9  -3 4.36125 1.93096   7
  -6  -9  -3 0.03409 2.00891   5
  -6  -9  -3 2.48842 2.13531   2
   3 -10  -3 19.3061 3.08721   1
   3 -10  -3 18.7214 2.92245   5
  -3  10   3 17.7478 3.06169   6
   2 -10  -3 191.615 6.64890   5
   2 -10  -3 188.463 6.69161   1
  -2  10   3 177.140 6.85683   6
   1 -10  -3 -2.8040 1.79646   5
   1 -10  -3 -1.2572 1.95126   1
  -1  10   3 3.30345 2.01903   6
   0 -10  -3 35.4868 3.33599   1
   0 -10  -3 26.1247 2.86220   5
   0  10   3 30.0703 3.02275   6
  -1 -10  -3 34.5314 3.21257   5
  -1 -10  -3 34.4800 3.25108   1
   1  10   3 34.0376 3.04768   6
  -2 -10  -3 -0.8768 1.44641   2
  -2 -10  -3 3.31958 1.98741   5
  -2 -10  -3 0.13865 1.94164   1
   2  10   3 1.31130 1.70895   6
  -3 -10  -3 10.5925 2.36690   5
  -3 -10  -3 14.6366 2.50913   1
  -3 -10  -3 11.0866 2.12294   2
   3  10   3 9.59558 1.95887   6
  -4 -10  -3 55.0470 4.03615   5
  -4 -10  -3 57.6895 3.94277   1
  -4 -10  -3 56.7524 3.81446   2
  -5 -10  -3 20.9837 2.98443   2
  -5 -10  -3 34.2354 3.32871   5
   1 -11  -3 1.29065 2.26634   1
   1 -11  -3 0.97756 2.19268   5
  -1  11   3 4.20332 2.39307   6
   0 -11  -3 7.84907 2.48067   5
   0 -11  -3 7.42023 2.46090   1
   0  11   3 15.0179 2.70625   6
  -1 -11  -3 3.64451 2.19088   5
  -1 -11  -3 3.67571 2.45393   1
   1  11   3 3.67639 2.09032   6
  -2 -11  -3 -1.5937 2.07344   1
  -2 -11  -3 -1.2181 1.94958   5
   2  11   3 1.40568 1.75254   6
  -3 -11  -3 -1.8834 2.06710   5
  -3 -11  -3 -2.5043 2.03711   1
   3  11   3 0.58525 1.78399   6
  -1 -10   4 32.4627 3.09393   1
  -1 -10   4 29.2357 3.35942   4
   0 -10   4 7.35788 2.38614   1
   0 -10   4 7.93510 2.55009   4
   1 -10   4 -1.4747 2.04810   1
   1 -10   4 -1.2184 2.18073   4
   2 -10   4 1.72688 2.38993   4
   2 -10   4 2.90936 1.78817   5
   2 -10   4 0.01792 2.10879   1
   3 -10   4 10.1464 2.96419   4
   3 -10   4 13.2476 2.87893   1
   3 -10   4 10.9036 2.23440   5
  -3  -9   4 0.25293 1.95769   3
  -3  -9   4 2.20258 1.82934  10
  -2  -9   4 1.47922 1.80267   1
  -2  -9   4 1.00764 1.89914   4
  -1  -9   4 -0.8302 1.75859   1
  -1  -9   4 0.52095 1.84815   4
   0  -9   4 0.39387 2.00840   4
   0  -9   4 -0.2804 1.86672   1
   0  -9   4 0.19576 1.68028   5
   1  -9   4 35.8808 3.30718   1
   1  -9   4 25.9753 3.23839   4
   1  -9   4 35.5542 2.59256   5
   2  -9   4 30.6148 3.33627   1
   2  -9   4 20.4939 3.14321   4
   2  -9   4 26.4509 2.41763   5
   3  -9   4 13.8666 2.13698   5
   3  -9   4 11.6647 2.69213   1
   4  -9   4 3.03945 1.89868   5
   4  -9   4 0.66765 2.21089   1
   5  -9   4 4.16631 2.40484   8
   5  -9   4 3.28919 2.42417   1
   5  -9   4 2.86966 2.02893   5
  -5  -8   4 11.6066 2.36560   2
  -5  -8   4 10.7319 2.57864   3
  -5  -8   4 16.1434 2.55581  10
  -4  -8   4 17.4898 2.71182   3
  -4  -8   4 16.4031 2.51071  10
  -4  -8   4 17.0304 2.36426   2
  -3  -8   4 56.5238 3.38446   2
  -3  -8   4 48.5058 3.86032   3
  -3  -8   4 51.3844 3.77141  10
  -3  -8   4 57.8401 3.80204   4
  -2  -8   4 2.01679 1.36467   2
  -2  -8   4 0.97228 1.52949   1
  -2  -8   4 0.62846 1.72274   4
  -1  -8   4 34.2459 2.75543   1
  -1  -8   4 35.0197 3.16836   4
  -1  -8   4 31.3111 2.34675   5
   0  -8   4 1.15642 1.69504   1
   0  -8   4 1.15745 1.83427   4
   0  -8   4 1.53782 1.28869   5
   1  -8   4 26.4576 2.79412   1
   1  -8   4 22.5902 2.09633   5
   1  -8   4 19.7522 2.77891   4
   2  -8   4 92.9451 3.64009   5
   2  -8   4 87.7504 4.73562   4
   2  -8   4 85.7824 4.47924   1
   3  -8   4 1.32340 1.54396   5
   3  -8   4 1.74018 2.01390   1
   4  -8   4 6.11182 1.90764   5
   4  -8   4 3.25923 2.17127   1
   5  -8   4 16.3926 2.72411   8
   5  -8   4 17.1829 2.43019   5
   5  -8   4 19.4879 3.01845   1
   6  -8   4 1.73649 2.02818   5
   6  -8   4 1.45857 2.20826   8
   6  -8   4 2.32152 2.26458   1
  -5  -7   4 -1.0874 1.83919  10
  -5  -7   4 0.71139 1.94274   3
  -5  -7   4 -0.2958 1.58774   7
  -4  -7   4 11.0181 2.23488  10
  -4  -7   4 13.9929 2.42674   3
  -3  -7   4 4.38422 2.06630   3
  -3  -7   4 2.55468 1.88769  10
  -3  -7   4 3.85764 1.66288   4
  -2  -7   4 0.84646 1.14209   5
  -2  -7   4 1.27714 1.34595   1
  -2  -7   4 1.93981 1.60669   4
  -1  -7   4 0.40467 1.14105   5
  -1  -7   4 1.01294 1.47518   1
  -1  -7   4 -0.8649 1.51000   4
   0  -7   4 0.19340 1.62676   4
   0  -7   4 -0.8429 1.51929   1
   0  -7   4 0.50986 1.16012   5
   1  -7   4 2.34751 1.91724   4
   1  -7   4 8.78738 1.48718   5
   1  -7   4 6.77461 1.90362   1
   2  -7   4 135.162 4.92265   1
   2  -7   4 132.634 4.09530   5
   2  -7   4 136.428 5.35145   4
   3  -7   4 -1.4502 1.74610   1
   3  -7   4 -0.7786 1.41983   5
   4  -7   4 23.5648 2.38375   5
   4  -7   4 20.7800 2.69002   1
   5  -7   4 8.96093 2.32160   8
   5  -7   4 13.2784 2.59965   1
   5  -7   4 12.8556 2.22435   5
   6  -7   4 19.5515 3.03883   1
   6  -7   4 18.6755 2.89532   8
   6  -7   4 26.1887 2.77327   5
   7  -7   4 25.5202 3.29119   1
   7  -7   4 21.8649 2.93974   5
   7  -7   4 26.7341 3.47278   8
  -6  -6   4 -0.4780 1.89459   3
  -6  -6   4 3.21795 2.12451  10
  -5  -6   4 63.0258 4.06881  10
  -5  -6   4 61.7659 4.14550   3
  -4  -6   4 9.00710 1.72748   4
  -4  -6   4 11.1447 2.29526   3
  -4  -6   4 10.2305 2.16077  10
  -3  -6   4 0.45498 1.40472   4
  -3  -6   4 -0.7502 1.01927   5
  -3  -6   4 1.01812 1.78738   3
  -3  -6   4 1.72944 1.69341  10
  -3  -6   4 -0.5753 1.03181   1
  -2  -6   4 -0.1640 1.37678   4
  -2  -6   4 -0.2425 1.15147   1
  -2  -6   4 -0.8911 1.00586   5
  -1  -6   4 -0.6504 1.28221   1
  -1  -6   4 1.47583 1.49324   4
  -1  -6   4 0.88436 0.98942   5
   0  -6   4 5.40021 1.71918   4
   0  -6   4 2.30107 0.71493   7
   0  -6   4 4.41347 1.48982   1
   0  -6   4 3.51250 1.10576   5
   1  -6   4 44.1196 1.78868   2
   1  -6   4 46.3956 2.89403   1
   1  -6   4 42.7766 2.24927   5
   1  -6   4 37.9718 3.00534   4
   2  -6   4 280.303 6.03580   5
   2  -6   4 259.553 7.30708   4
   2  -6   4 270.685 6.90760   1
  -3   6  -4 24.1569 1.33410   7
   3  -6   4 26.6267 2.15157   5
   3  -6   4 27.7037 2.62680   1
  -4   6  -4 12.1531 1.21659   7
   4  -6   4 10.9632 1.79824   5
   4  -6   4 10.0980 2.08522   8
   4  -6   4 13.8989 2.24172   1
  -5   6  -4 14.3422 1.55269   7
   5  -6   4 16.7987 2.53101   1
   5  -6   4 14.5560 2.14073   5
   5  -6   4 15.4401 2.39965   8
   6  -6   4 13.2146 2.27412   5
   6  -6   4 10.4891 2.34981   8
   6  -6   4 10.5036 2.42829   1
  -7   6  -4 26.2125 3.37867  10
   7  -6   4 27.9524 3.24174   8
   7  -6   4 30.7502 3.13958   5
   7  -6   4 26.6703 3.21997   1
  -6  -5   4 -3.4741 1.72912   3
  -6  -5   4 2.32385 2.00202  10
  -5  -5   4 12.6152 2.37963   3
  -5  -5   4 10.4999 2.29678  10
  -4  -5   4 1.47259 1.34149   4
  -4  -5   4 5.08788 1.92024   3
  -4  -5   4 4.63045 1.82568  10
   3   5  -4 5.58825 1.62702   9
  -3  -5   4 4.88318 1.12375   5
  -3  -5   4 6.04970 1.82191  10
  -3  -5   4 6.33861 1.58912   4
  -3  -5   4 7.06978 1.90160   3
  -3  -5   4 7.41473 1.04871   1
   2   5  -4 -1.2945 1.13828   9
  -2  -5   4 1.19869 1.07511   1
  -2  -5   4 -0.6065 1.32201   4
  -2  -5   4 1.01659 1.49809   3
  -2  -5   4 1.50981 0.89725   5
   1   5  -4 43.2170 2.00131   9
  -1  -5   4 38.1173 2.36922   1
  -1  -5   4 36.3266 1.69374   5
  -1  -5   4 41.9773 2.08681   9
  -1  -5   4 34.1209 2.73626   4
   0   5  -4 0.62440 0.75978   9
   0  -5   4 -1.2114 1.15085   1
   0  -5   4 0.26621 0.76097   7
   0  -5   4 -0.5244 1.30341   4
   0  -5   4 1.06348 0.83642   5
  -1   5  -4 3.05048 0.70497   9
   1  -5   4 3.05304 1.43009   1
   1  -5   4 2.31499 1.61529   4
   1  -5   4 3.15629 0.98850   5
   1  -5   4 4.29527 0.70298   7
   1  -5   4 2.82619 0.91172   2
  -2   5  -4 215.491 4.05811   9
  -2   5  -4 208.706 4.15255   7
   2  -5   4 206.370 3.90014   2
   2  -5   4 214.504 5.62889   1
   2  -5   4 209.279 4.04717   7
   2  -5   4 215.093 6.08810   4
   2  -5   4 207.507 4.82120   5
  -3   5  -4 193.120 4.08835   7
  -3   5  -4 191.696 4.07642   9
   3  -5   4 194.439 5.56161   1
   3  -5   4 193.480 4.79623   5
  -4   5  -4 39.6613 2.13350   7
   4  -5   4 43.1014 3.30769   1
   4  -5   4 42.9936 3.03056   8
   4  -5   4 38.4753 2.68798   5
  -5   5  -4 66.1079 2.80774   7
   5  -5   4 62.5482 3.62086   8
   5  -5   4 58.6385 3.70552   1
   5  -5   4 58.2456 3.23848   5
  -6   5  -4 21.9707 2.02428   7
  -6   5  -4 18.6587 2.72867  10
   6  -5   4 14.5083 2.48311   1
   6  -5   4 21.9536 2.68719   8
   6  -5   4 16.1140 2.30590   5
  -7   5  -4 28.4792 3.33125  10
  -7   5  -4 30.3083 2.60187   7
   7  -5   4 26.5461 3.05041   1
   7  -5   4 26.1671 3.12120   8
   7  -5   4 30.4332 2.96454   5
  -8   5  -4 6.60348 2.64844  10
  -8   5  -4 2.96977 1.90239   7
   8  -5   4 0.87958 2.22267   8
   8  -5   4 6.48335 2.48405   1
  -7  -4   4 -0.0633 2.10452  10
  -7  -4   4 0.29459 2.15635   3
  -6  -4   4 17.4002 2.64900   3
  -6  -4   4 20.3209 2.67675  10
   5   4  -4 6.96157 2.07696   9
  -5  -4   4 10.7346 2.14330   3
  -5  -4   4 9.33506 1.58273   4
  -5  -4   4 9.07260 2.20432  10
   4   4  -4 67.8712 3.69011   9
  -4  -4   4 70.4396 3.85662  10
  -4  -4   4 72.3870 3.79491   3
  -4  -4   4 75.4561 3.14858   4
   3   4  -4 39.0810 2.77081   9
  -3  -4   4 47.4128 1.72400   8
  -3  -4   4 44.4550 2.66846   4
  -3  -4   4 46.2987 3.09677   3
  -3  -4   4 48.2495 2.73118   5
  -3  -4   4 44.7208 1.50943   1
  -3  -4   4 42.4400 3.01762  10
   2   4  -4 37.3912 1.61920   1
   2   4  -4 38.0822 2.30222   9
  -2  -4   4 38.9220 1.54390   5
  -2  -4   4 38.2827 1.53817   8
  -2  -4   4 35.7423 2.58853   4
  -2  -4   4 38.8918 1.80841   1
  -2  -4   4 36.5875 2.79776   3
   1   4  -4 52.9774 2.25912   9
  -1  -4   4 54.7285 2.88202   4
  -1  -4   4 52.8427 2.31046   1
  -1  -4   4 49.7529 1.57204   5
   0   4  -4 22.1703 1.52171   9
   0  -4   4 20.6821 1.55949   7
   0  -4   4 24.4954 1.80332   1
   0  -4   4 20.5541 1.18624   5
   0  -4   4 21.4724 1.97877   4
  -1   4  -4 48.6850 1.76427   9
  -1   4  -4 51.3391 1.74321   5
   1  -4   4 48.9048 1.78504   7
   1  -4   4 49.3291 1.96934   2
   1  -4   4 51.8443 2.62044   1
   1  -4   4 51.0668 1.80337   5
   1  -4   4 50.7669 2.86281   4
  -2   4  -4 90.9537 2.47006   7
   2  -4   4 88.5191 3.37292   1
   2  -4   4 92.6072 3.75392   4
   2  -4   4 89.9085 2.64646   5
   2  -4   4 90.9469 2.36778   7
   2  -4   4 85.8885 2.26254   2
  -3   4  -4 22.0176 1.30460   2
  -3   4  -4 22.5899 1.63898   7
   3  -4   4 25.5585 2.38941   4
   3  -4   4 21.7231 1.15938   2
   3  -4   4 23.6706 1.72207   5
   3  -4   4 22.6347 2.01633   8
   3  -4   4 25.4212 1.51906   7
   3  -4   4 21.5758 2.12426   1
  -4   4  -4 27.3576 2.04352   7
  -4   4  -4 33.4188 1.64850   2
   4  -4   4 28.8047 2.11680   5
   4  -4   4 30.3283 2.41558   8
   4  -4   4 29.7684 2.50101   1
  -5   4  -4 37.9487 2.48068   7
  -5   4  -4 39.4748 2.03252   2
  -5   4  -4 44.8045 3.43632  10
   5  -4   4 42.8081 3.13319   1
   5  -4   4 42.2983 3.08629   8
   5  -4   4 39.3068 2.86658   5
  -6   4  -4 -0.5182 1.31218   7
  -6   4  -4 1.22701 1.18334   2
  -6   4  -4 -0.1457 1.77194  10
   6  -4   4 -1.0982 1.55487   5
   6  -4   4 1.20529 1.81583   8
   6  -4   4 -2.5907 1.63383   1
  -7   4  -4 15.2519 2.12917   7
  -7   4  -4 15.7812 2.37355   2
  -7   4  -4 18.4140 2.78760  10
  -7   4  -4 14.1532 2.59604   3
   7  -4   4 19.3292 2.62801   1
   7  -4   4 16.4973 2.73944   8
  -8   4  -4 -2.2461 1.99998  10
  -8   4  -4 0.66067 1.77989   7
  -8   4  -4 1.85093 2.19133   3
   8  -4   4 1.01845 2.02740   1
   8  -4   4 -1.2289 2.04237   8
  -7  -3   4 11.3773 2.60964  10
  -7  -3   4 8.25275 2.43981   3
  -6  -3   4 7.23966 2.26996   3
  -6  -3   4 10.3372 2.27634  10
   5   3  -4 4.51775 1.94157   9
  -5  -3   4 4.14779 1.84597  10
  -5  -3   4 4.99806 1.44652   4
  -5  -3   4 2.80051 1.75458   3
   4   3  -4 37.8665 2.96661   9
  -4  -3   4 40.3435 2.65215   4
  -4  -3   4 34.0865 2.75323   3
  -4  -3   4 41.1919 3.03813  10
   3   3  -4 30.0722 2.53488   9
  -3  -3   4 28.7534 1.28373   8
  -3  -3   4 28.8643 2.34989   4
  -3  -3   4 33.6321 2.66200   3
  -3  -3   4 29.2663 2.40123  10
  -3  -3   4 26.8319 1.51530   5
   2   3  -4 6.58460 1.42230   9
   2   3  -4 5.77050 0.78797   1
  -2  -3   4 6.41787 0.87199   1
  -2  -3   4 6.18916 0.63857   8
  -2  -3   4 3.79922 1.46552   3
  -2  -3   4 4.59920 1.47735  10
  -2  -3   4 6.11744 1.45067   4
  -2  -3   4 6.10245 0.71144   5
   1   3  -4 31.1719 1.93572   9
  -1  -3   4 31.3922 1.15220   8
  -1  -3   4 32.2112 1.73174   1
  -1  -3   4 29.6383 2.28768   4
   0   3  -4 -0.6445 0.81170   9
   0  -3   4 -0.0045 0.97938   1
   0  -3   4 -0.8661 1.14580   4
   0  -3   4 0.74543 0.82035   7
  -1   3  -4 89.0099 2.13008   5
  -1   3  -4 92.5464 2.52674   9
  -1   3  -4 87.1334 2.54382   7
   1  -3   4 96.4472 2.66096   2
   1  -3   4 91.5432 2.14914   5
   1  -3   4 89.3445 2.49037   7
   1  -3   4 92.3292 3.41590   4
   1  -3   4 89.8605 3.05267   1
  -2   3  -4 15.4725 1.14974   2
  -2   3  -4 17.3551 1.18468   5
  -2   3  -4 15.1752 1.21242   7
   2  -3   4 16.5132 1.33683   7
   2  -3   4 15.2141 1.13149   2
   2  -3   4 16.5413 1.94052   4
   2  -3   4 13.7952 1.42634   8
   2  -3   4 16.6743 1.20735   5
   2  -3   4 18.7980 1.79621   1
  -3   3  -4 11.0207 1.23729   7
  -3   3  -4 12.6145 1.13975   2
   3  -3   4 12.7958 1.53571   8
   3  -3   4 11.5926 1.80238   4
   3  -3   4 11.8884 1.64515   1
   3  -3   4 12.8524 1.35100   5
   3  -3   4 12.1825 1.00327   2
  -4   3  -4 68.7091 2.37060   2
  -4   3  -4 65.4962 2.64927   7
   4  -3   4 61.3360 3.00384   8
   4  -3   4 63.8230 3.15491   1
   4  -3   4 69.1309 2.17104   2
   4  -3   4 64.4940 3.31440   4
   4  -3   4 68.3924 2.85213   5
  -5   3  -4 6.41053 1.80904  10
  -5   3  -4 3.50884 1.17230   2
  -5   3  -4 2.02123 1.33845   7
   5  -3   4 3.00503 1.37157   5
   5  -3   4 3.20635 1.66799   8
   5  -3   4 1.77942 1.62047   1
  -6   3  -4 20.7052 2.46322   3
  -6   3  -4 23.8139 1.96033   2
  -6   3  -4 16.6189 2.38364  10
  -6   3  -4 21.6015 2.13534   7
   6  -3   4 24.9896 2.56008   1
   6  -3   4 17.9548 2.31994   8
  -7   3  -4 1.74394 1.45513   2
  -7   3  -4 5.12761 2.07736   3
  -7   3  -4 4.47703 2.03932  10
  -7   3  -4 4.70855 1.75861   7
   7  -3   4 3.07858 2.00472   8
   7  -3   4 5.56539 2.00118   1
  -8   3  -4 0.64741 1.60279   2
  -8   3  -4 -0.4843 2.02879  10
  -8   3  -4 0.08564 1.89865   7
  -8   3  -4 -0.9780 2.00059   3
   8  -3   4 -0.3577 2.03569   8
   8  -3   4 0.51049 1.89452   1
  -9   3  -4 1.55562 2.20929   7
  -9   3  -4 -0.6716 2.24686   3
  -9   3  -4 -2.7282 2.21115  10
   9  -3   4 -1.2122 1.97231   4
   9  -3   4 -0.4341 2.02648   1
   9  -3   4 1.43128 2.36318   8
  -7  -2   4 -0.0095 2.04436   3
  -7  -2   4 -2.2721 1.87097  10
   6   2  -4 10.0386 2.47946   9
  -6  -2   4 11.2988 1.76072   4
  -6  -2   4 8.69014 2.28630  10
  -6  -2   4 9.85415 2.35284   3
   5   2  -4 -0.5202 0.97204   8
   5   2  -4 1.87739 1.76295   9
  -5  -2   4 3.36058 1.79725  10
  -5  -2   4 -1.6020 1.54417   3
  -5  -2   4 1.78603 1.39350   4
   4   2  -4 259.198 6.87108   9
   4   2  -4 267.955 5.18136   8
  -4  -2   4 263.352 7.00310  10
  -4  -2   4 272.554 6.99246   3
  -4  -2   4 267.894 6.27489   4
   3   2  -4 5.25106 1.56911   9
  -3  -2   4 4.21096 1.32925   4
  -3  -2   4 2.46599 1.46212  10
  -3  -2   4 2.68677 0.85659   5
  -3  -2   4 5.43821 1.53743   3
   2   2  -4 9.26796 1.50131   9
   2   2  -4 9.27049 0.78334   1
  -2  -2   4 7.68903 1.49398  10
  -2  -2   4 5.23362 1.43414   3
  -2  -2   4 9.14156 0.77141   5
  -2  -2   4 8.02646 1.43098   4
   1   2  -4 389.560 6.97982   1
   1   2  -4 385.606 7.61323   9
  -1  -2   4 389.932 7.01495   1
  -1  -2   4 384.154 7.92671   3
  -1  -2   4 384.999 7.96621   4
   0   2  -4 280.498 5.72266   9
   0  -2   4 279.431 4.91169   8
   0  -2   4 288.994 5.68561   1
   0  -2   4 283.811 6.30751   4
  -1   2  -4 -0.0076 0.83743   2
  -1   2  -4 -0.6059 0.49995   5
  -1   2  -4 0.46265 0.86447   7
   1  -2   4 -0.3112 0.77503   7
   1  -2   4 -1.6957 1.06734   4
   1  -2   4 0.66256 0.86652   2
   1  -2   4 -0.0833 0.97264   1
   1  -2   4 0.27250 0.70869   8
  -2   2  -4 34.4921 1.46931   5
  -2   2  -4 35.2905 1.84663   7
  -2   2  -4 33.6329 1.80873   2
   2  -2   4 35.9281 1.70586   7
   2  -2   4 32.5565 1.80581   8
   2  -2   4 31.5531 1.73809   2
   2  -2   4 32.5753 2.16786   1
   2  -2   4 32.1710 2.30102   4
  -3   2  -4 160.718 3.71374   2
  -3   2  -4 163.515 3.95016   7
   3  -2   4 158.407 4.55915   4
   3  -2   4 159.333 4.35690   1
   3  -2   4 150.346 3.58036   2
   3  -2   4 158.716 4.16089   8
  -4   2  -4 49.6596 2.43565   7
  -4   2  -4 56.3628 2.32441   2
   4  -2   4 53.9732 2.77813   8
   4  -2   4 45.7644 2.74510   1
   4  -2   4 50.4418 2.78315   4
  -5   2  -4 0.98896 1.21955   2
  -5   2  -4 0.79391 1.41603   3
  -5   2  -4 -1.0098 1.14214   7
  -5   2  -4 -1.0022 1.29381  10
   5  -2   4 1.95080 1.47888   8
   5  -2   4 -2.1184 1.27167   4
   5  -2   4 -0.6167 1.34265   1
  -6   2  -4 40.6907 2.94429   7
  -6   2  -4 37.9127 2.84810   3
  -6   2  -4 38.0917 2.65253   2
  -6   2  -4 44.0761 3.23440  10
   6  -2   4 33.6692 2.67834   4
   6  -2   4 42.1490 2.99341   1
   6  -2   4 32.6415 2.71416   8
  -7   2  -4 0.04180 1.42712   2
  -7   2  -4 1.84806 1.80035   3
  -7   2  -4 0.78223 1.63969   7
  -7   2  -4 0.62133 1.85070  10
   7  -2   4 1.67967 1.72012   1
   7  -2   4 2.50288 1.96865   8
   7  -2   4 0.90201 1.67030   4
  -8   2  -4 31.5797 3.28747  10
  -8   2  -4 41.4591 3.52161   3
  -8   2  -4 40.6658 2.97425   2
  -8   2  -4 30.8336 3.17106   7
   8  -2   4 37.7011 3.08819   4
   8  -2   4 38.7246 3.17156   1
   8  -2   4 40.4144 3.49322   8
  -9   2  -4 -0.5268 2.13623   3
  -9   2  -4 1.37591 1.88240   2
  -9   2  -4 1.04995 2.15389   7
  -9   2  -4 1.74662 2.39956  10
   9  -2   4 -0.0614 2.22799   8
   9  -2   4 1.05791 1.87528   1
   7   1  -4 -1.8870 1.99301   9
  -7  -1   4 1.38123 2.03925   3
  -7  -1   4 1.42675 2.19198  10
   6   1  -4 10.3223 1.54684   8
   6   1  -4 8.60469 2.33991   9
  -6  -1   4 10.4917 2.31140   3
  -6  -1   4 7.04640 2.20108  10
  -6  -1   4 8.53574 1.74017   6
   5   1  -4 4.88093 1.96782   9
   5   1  -4 3.56707 1.12056   8
  -5  -1   4 5.59866 1.85015   3
  -5  -1   4 5.78085 1.56941   4
  -5  -1   4 4.74935 1.84327  10
   4   1  -4 296.578 5.65174   8
   4   1  -4 292.746 7.41475   9
  -4  -1   4 283.290 7.20559   3
  -4  -1   4 287.021 6.75395   4
  -4  -1   4 290.539 7.35768  10
   3   1  -4 1.67663 1.38880   9
   3   1  -4 1.20070 0.62367   8
  -3  -1   4 2.32999 1.25287   4
  -3  -1   4 0.84911 1.25573   3
  -3  -1   4 1.93066 1.32907  10
   2   1  -4 23.3218 2.00925   9
   2   1  -4 20.7796 1.11443   1
  -2  -1   4 20.9514 1.88379  10
  -2  -1   4 20.1365 1.17103   5
  -2  -1   4 17.4949 1.72427   4
  -2  -1   4 18.8590 1.80051   3
   1   1  -4 342.557 7.03794   9
   1   1  -4 347.327 6.28691   1
  -1  -1   4 349.176 7.28063   4
  -1  -1   4 352.611 6.32756   1
  -1  -1   4 335.697 7.17273   3
   0   1  -4 126.618 3.44351   2
   0   1  -4 129.226 3.47786   9
   0   1  -4 133.956 3.46682   7
   0   1  -4 134.588 3.16547   1
   0  -1   4 128.644 3.81509   4
   0  -1   4 130.944 2.36336   8
   0  -1   4 130.985 3.24540   1
  -1   1  -4 33.0131 1.96576   2
  -1   1  -4 30.6774 1.91991   7
  -1   1  -4 32.3625 1.10267   5
  -1   1  -4 29.9111 1.36874   8
   1  -1   4 30.0635 2.03823   7
   1  -1   4 36.9039 2.29233   4
   1  -1   4 31.8475 1.96925   1
   1  -1   4 33.6687 1.87677   2
   1  -1   4 29.6367 1.39164   8
  -2   1  -4 67.1651 2.37079   2
  -2   1  -4 67.6496 1.92758   5
  -2   1  -4 68.6373 2.42174   7
  -2   1  -4 57.1854 2.03368   8
   2  -1   4 68.1016 2.26740   8
   2  -1   4 68.5186 2.31347   2
   2  -1   4 70.9809 2.92899   4
   2  -1   4 67.9989 2.60370   1
  -3   1  -4 347.569 6.78217   2
  -3   1  -4 353.108 6.97825   7
   3  -1   4 345.089 7.16590   1
   3  -1   4 345.528 6.96889   8
   3  -1   4 347.400 7.28065   4
  -4   1  -4 45.1125 2.69703  10
  -4   1  -4 50.7251 2.37626   2
  -4   1  -4 49.0458 2.40174   7
   4  -1   4 51.1986 2.55412   8
   4  -1   4 51.3636 2.61458   1
   4  -1   4 48.1865 2.59617   4
  -5   1  -4 3.79361 1.49334  10
  -5   1  -4 7.56443 1.53118   3
  -5   1  -4 8.19240 1.47615   2
  -5   1  -4 4.85207 1.41821   7
   5  -1   4 4.79008 1.49147   1
   5  -1   4 8.74998 1.69751   8
   5  -1   4 4.18938 1.41930   4
  -6   1  -4 628.296 12.4045   7
  -6   1  -4 620.537 12.6350  10
  -6   1  -4 619.470 12.3535   3
  -6   1  -4 623.137 12.0477   2
   6  -1   4 631.731 12.5772   8
   6  -1   4 630.314 12.2189   4
   6  -1   4 629.728 12.3456   1
  -7   1  -4 2.35890 1.86560  10
  -7   1  -4 -0.2812 1.67536   7
  -7   1  -4 -0.7534 1.68751   3
  -7   1  -4 -1.4069 1.45939   2
   7  -1   4 1.92539 1.70016   1
   7  -1   4 1.54845 1.86825   8
   7  -1   4 0.78085 1.50788   4
  -8   1  -4 -1.1063 1.69589   2
  -8   1  -4 -0.3002 1.87639   3
  -8   1  -4 1.64541 1.87900   7
  -8   1  -4 1.36881 2.00876  10
   8  -1   4 1.94606 1.79848   1
   8  -1   4 3.21529 1.73837   4
   8  -1   4 -0.6107 1.93081   8
  -9   1  -4 -0.0980 1.95206   2
  -9   1  -4 1.06403 2.12295   3
  -9   1  -4 1.78735 2.16126  10
  -9   1  -4 2.97719 2.23684   7
   9  -1   4 0.54615 2.13154   8
   9  -1   4 0.83333 1.84279   1
   7   0  -4 -3.3633 2.09072   9
  -7   0   4 -0.3367 2.05255   3
  -7   0   4 0.35266 1.61356   6
  -7   0   4 0.16259 2.04741  10
   6   0  -4 18.0414 2.88380   9
   6   0  -4 15.7334 1.77241   8
  -6   0   4 14.7101 2.50694  10
  -6   0   4 14.9431 2.14320   6
  -6   0   4 15.8094 2.54091   3
   5   0  -4 12.9839 1.46633   8
   5   0  -4 11.7019 2.19551   9
  -5   0   4 9.74062 1.77733   4
  -5   0   4 10.5530 2.02332   3
  -5   0   4 11.1441 1.85333   6
  -5   0   4 8.45963 2.07982  10
   4   0  -4 77.0996 3.77906   9
   4   0  -4 74.6715 2.41420   8
  -4   0   4 69.8761 3.25557   4
  -4   0   4 76.5141 3.71177   3
  -4   0   4 67.8178 3.52260  10
   3   0  -4 1.37877 1.39698   9
   3   0  -4 1.37467 0.74979   8
   3   0  -4 0.33978 0.87876   5
   3   0  -4 2.58845 0.65509   1
  -3   0   4 1.17897 1.27104   3
  -3   0   4 2.70196 1.43566  10
  -3   0   4 1.34726 1.29752   4
   2   0  -4 6.19642 0.85395   5
   2   0  -4 8.03066 1.54304   9
   2   0  -4 7.87431 0.86409   1
   2   0  -4 7.00671 0.66353   8
  -2   0   4 6.77119 1.41305  10
  -2   0   4 6.97620 1.45359   4
  -2   0   4 7.47349 0.91473   5
  -2   0   4 6.56274 1.38986   3
   1   0  -4 157.721 3.17129   5
   1   0  -4 165.141 4.27559   9
   1   0  -4 165.493 3.52047   1
  -1   0   4 163.251 4.33370  10
  -1   0   4 161.160 4.34876   4
  -1   0   4 167.544 4.21765   3
  -1   0   4 165.979 3.19135   5
   0   0  -4 13.0785 1.39179   7
   0   0  -4 17.7967 1.24024   1
   0   0  -4 14.0426 1.36360   2
   0   0  -4 16.7816 0.84220   8
   0   0  -4 20.6246 1.65397   9
   0   0  -4 16.5904 0.93113   5
   0   0   4 17.8250 1.49563   3
   0   0   4 14.7941 1.55885   4
  -1   0  -4 20.4772 1.21381   8
  -1   0  -4 22.6899 1.79495   7
  -1   0  -4 22.0639 1.58144   2
   1   0   4 21.2245 1.27502   8
   1   0   4 17.1205 1.61019   4
   1   0   4 26.0118 1.91522   1
  -2   0  -4 1215.79 20.1308   8
  -2   0  -4 1222.69 20.4873   7
  -2   0  -4 1202.78 20.4097   2
   2   0   4 1247.78 20.7522   4
   2   0   4 1223.57 20.1713   8
   2   0   4 1221.11 20.5670   1
  -3   0  -4 330.003 6.69334   7
  -3   0  -4 324.202 6.58504   2
   3   0   4 324.626 6.73763   4
   3   0   4 325.295 6.56312   8
   3   0   4 322.745 6.77602   1
  -4   0  -4 329.425 6.91244   2
  -4   0  -4 325.635 6.98086  10
  -4   0  -4 339.251 7.08491   7
   4   0   4 330.445 6.86931   4
   4   0   4 333.069 7.02899   8
   4   0   4 332.209 7.07065   1
  -5   0  -4 4.31080 1.36922   7
  -5   0  -4 4.40779 1.36867   2
  -5   0  -4 1.91572 1.21428   3
  -5   0  -4 4.78979 1.41336  10
   5   0   4 4.84574 1.52380   1
   5   0   4 3.25592 1.43137   8
   5   0   4 0.96236 0.67980   6
   5   0   4 4.33562 1.25873   4
  -6   0  -4 126.338 4.43914  10
  -6   0  -4 126.822 4.21673   3
  -6   0  -4 129.953 4.22711   2
  -6   0  -4 122.321 4.38635   7
   6   0   4 123.462 4.26233   1
   6   0   4 125.804 3.92441   4
   6   0   4 119.244 4.38877   8
  -7   0  -4 2.94788 1.72340  10
  -7   0  -4 1.34598 1.60471   3
  -7   0  -4 -0.6265 1.64069   2
  -7   0  -4 0.90895 1.73244   7
   7   0   4 1.80739 1.36662   4
   7   0   4 2.07978 1.59205   1
   7   0   4 1.25693 1.76790   8
  -8   0  -4 0.80120 1.85038   7
  -8   0  -4 3.25958 2.01840  10
  -8   0  -4 2.70313 1.84336   2
  -8   0  -4 3.57150 1.90493   3
   8   0   4 1.59567 1.48125   4
   8   0   4 3.59433 2.03899   8
   8   0   4 0.11851 1.63854   1
  -9   0  -4 -2.0552 1.83871   3
  -9   0  -4 -0.1952 1.95713   2
  -9   0  -4 1.00288 2.06719  10
  -9   0  -4 -2.3445 2.10153   7
   9   0   4 -0.0243 1.78723   1
   9   0   4 0.73805 2.06131   8
   7  -1  -4 3.75711 2.48590   8
   7  -1  -4 3.17326 2.40776   9
  -7   1   4 -0.3435 2.05818  10
  -7   1   4 0.66246 2.05919   3
  -7   1   4 -0.0116 1.60679   6
   6  -1  -4 -2.0476 1.90213   9
   6  -1  -4 0.22699 1.28932   8
  -6   1   4 1.17957 1.56029   6
  -6   1   4 -0.1632 1.83211   3
  -6   1   4 0.97182 1.86245  10
   5  -1  -4 3.35595 0.86570   1
   5  -1  -4 2.47052 1.38314   5
   5  -1  -4 4.67519 1.35004   8
   5  -1  -4 4.97078 2.00979   9
  -5   1   4 2.50561 1.77751  10
  -5   1   4 3.38738 1.81868   3
  -5   1   4 1.93856 1.59695   6
   4  -1  -4 11.1782 2.03770   9
   4  -1  -4 8.65292 1.00357   1
   4  -1  -4 7.91581 1.41698   5
   4  -1  -4 5.86513 1.21605   8
  -4   1   4 6.17720 1.59251   6
  -4   1   4 6.74791 1.65880   4
  -4   1   4 4.38706 1.62764  10
  -4   1   4 6.68093 1.70740   3
   3  -1  -4 12.2732 1.19450   8
   3  -1  -4 9.68063 1.76108   9
   3  -1  -4 9.83250 1.27454   5
  -3   1   4 9.18948 1.71727  10
  -3   1   4 10.1449 1.74180   3
  -3   1   4 9.72675 1.62977   4
   2  -1  -4 229.598 5.71448   9
   2  -1  -4 236.023 4.82527   5
  -2   1   4 242.636 5.80548   4
  -2   1   4 236.452 5.64398  10
  -2   1   4 236.217 5.58726   3
   1  -1  -4 14.7697 1.10439   5
   1  -1  -4 15.5575 1.53047   2
   1  -1  -4 12.8924 1.53822   9
  -1   1   4 16.0937 1.71118   4
  -1   1   4 15.7077 1.54172  10
  -1   1   4 16.8357 1.14863   5
  -1   1   4 16.3326 1.50871   3
   0  -1  -4 946.817 15.7024   8
   0  -1  -4 967.352 15.7990   5
   0  -1  -4 946.263 16.5498   2
   0  -1  -4 980.423 16.6691   9
   0   1   4 959.493 16.7907   4
   0   1   4 976.298 16.2984   3
   0   1   4 973.920 15.7631   5
  -1  -1  -4 80.1762 2.80332   2
  -1  -1  -4 83.3921 2.85471   7
  -1  -1  -4 80.8493 2.24880   8
  -1  -1  -4 79.7275 2.13141   5
   1   1   4 80.9160 2.28392   8
   1   1   4 77.4620 2.83793   4
  -2  -1  -4 351.879 7.00532   7
  -2  -1  -4 349.264 6.96527   2
   2   1   4 344.722 7.00209   4
   2   1   4 350.901 6.66346   8
   2   1   4 350.636 6.95823   1
  -3  -1  -4 66.5782 2.66040   7
  -3  -1  -4 65.1776 2.61390   4
  -3  -1  -4 69.1923 2.82407   2
   3   1   4 67.7122 2.06688   3
   3   1   4 64.6614 2.53094   8
   3   1   4 65.6414 2.66731   1
   3   1   4 63.3502 2.49634   4
  -4  -1  -4 67.0036 2.60704  10
  -4  -1  -4 68.2999 2.95931   7
  -4  -1  -4 66.7549 2.87704   2
   4   1   4 67.8671 2.51005   4
   4   1   4 69.0455 2.81216   1
   4   1   4 61.0351 2.77392   8
  -5  -1  -4 18.9698 1.65272   3
  -5  -1  -4 19.4644 1.78964  10
  -5  -1  -4 15.3430 1.81252   7
  -5  -1  -4 16.6552 1.88861   2
   5   1   4 17.6022 1.55804   4
   5   1   4 15.1689 1.88817   8
   5   1   4 16.9382 1.23936   6
   5   1   4 16.0954 1.85404   1
  -6  -1  -4 155.674 4.69527  10
  -6  -1  -4 154.544 5.04381   7
  -6  -1  -4 151.753 4.36694   3
  -6  -1  -4 159.610 4.96364   2
   6   1   4 147.471 4.91004   8
   6   1   4 152.844 4.05712   4
   6   1   4 153.881 3.23697   6
   6   1   4 153.471 4.64168   1
  -7  -1  -4 2.10801 1.70032  10
  -7  -1  -4 5.04228 1.88318   2
  -7  -1  -4 3.75447 1.64157   3
  -7  -1  -4 2.58313 1.83947   7
   7   1   4 7.45766 2.04134   8
   7   1   4 6.31371 1.35815   4
   7   1   4 2.40579 1.63499   1
  -8  -1  -4 -0.4225 1.80973   7
  -8  -1  -4 2.22470 1.82930  10
  -8  -1  -4 -1.1486 1.62116   3
  -8  -1  -4 0.67069 1.81219   2
   8   1   4 2.61534 1.69889   1
   8   1   4 3.14484 2.01279   8
  -9  -1  -4 5.30962 2.18516   3
  -9  -1  -4 3.75797 2.20957   2
  -9  -1  -4 7.61792 2.36536  10
  -9  -1  -4 4.05748 2.38082   7
   9   1   4 3.36947 2.42593   8
   7  -2  -4 50.5065 4.34692   9
   7  -2  -4 46.6508 3.27843   8
  -7   2   4 43.3334 3.68044   3
  -7   2   4 50.2084 4.13758  10
  -7   2   4 45.8315 3.52637   6
   6  -2  -4 9.18503 1.89272   5
   6  -2  -4 5.12001 2.30317   9
   6  -2  -4 8.59291 1.75342   8
  -6   2   4 12.0666 2.10021   6
  -6   2   4 5.99456 2.25778   3
  -6   2   4 6.76731 2.26312  10
   5  -2  -4 1.72141 1.03643   1
   5  -2  -4 -0.7294 1.24348   8
   5  -2  -4 0.95522 1.41182   5
   5  -2  -4 2.70209 1.86693   9
  -5   2   4 0.02193 1.68207   3
  -5   2   4 0.13794 1.58120  10
  -5   2   4 2.05693 1.62265   6
   4  -2  -4 42.3540 2.35241   8
   4  -2  -4 37.7758 2.00499   1
   4  -2  -4 38.6519 3.05192   9
   4  -2  -4 40.9066 2.52943   5
  -4   2   4 44.6025 3.12886   3
  -4   2   4 41.1383 3.06116  10
  -4   2   4 39.1825 2.94048   6
   3  -2  -4 7.57574 1.70548   9
   3  -2  -4 2.15427 1.18367   5
   3  -2  -4 4.99969 1.00038   1
  -3   2   4 4.22057 1.51606   3
  -3   2   4 7.50795 1.65893   4
  -3   2   4 2.92970 1.37519   6
  -3   2   4 3.46792 1.49932  10
   2  -2  -4 78.1569 2.60299   5
   2  -2  -4 77.6792 3.18857   9
  -2   2   4 74.1554 3.17724   4
  -2   2   4 82.0277 3.10526  10
  -2   2   4 78.6597 3.13763   3
   1  -2  -4 4.08374 1.01974   5
   1  -2  -4 3.40400 1.22628   2
   1  -2  -4 2.30729 1.24775   9
  -1   2   4 2.93732 1.24557   4
  -1   2   4 7.19713 1.23171   3
  -1   2   4 5.81139 1.19532  10
   0  -2  -4 1062.72 17.7973   3
   0  -2  -4 1083.47 18.3430   2
   0  -2  -4 1069.68 18.3827   9
   0  -2  -4 1070.88 18.2979   7
   0  -2  -4 1077.51 17.7585   5
   0   2   4 1074.55 17.7045   5
   0   2   4 1073.50 17.9726  10
   0   2   4 1056.72 18.5304   4
   0   2   4 1058.11 17.8216   3
  -1  -2  -4 -0.2048 1.03041   2
  -1  -2  -4 0.61300 0.67858   8
  -1  -2  -4 0.37471 1.05171   7
  -1  -2  -4 0.87045 0.84512   5
   1   2   4 -0.2904 0.64974   3
   1   2   4 -0.9837 1.05916   4
  -2  -2  -4 59.2472 2.53503   2
  -2  -2  -4 52.4954 2.55764   7
   2   2   4 56.7625 2.27160   8
   2   2   4 55.6798 2.40088   4
  -3  -2  -4 69.4472 2.85245   2
  -3  -2  -4 67.1960 2.72209   7
  -3  -2  -4 62.5870 2.26348   4
   3   2   4 65.7290 2.64749   8
   3   2   4 67.0509 1.75081   3
   3   2   4 65.5109 2.41453   4
   3   2   4 62.7305 2.05661  10
  -4  -2  -4 13.6230 1.65094   7
  -4  -2  -4 13.2635 1.31015  10
  -4  -2  -4 12.2528 1.16732   4
  -4  -2  -4 12.7200 1.66960   2
   4   2   4 10.9720 1.51066   8
   4   2   4 13.8272 1.30961   4
   4   2   4 13.0133 1.01764   3
  -5  -2  -4 69.2588 2.81650  10
  -5  -2  -4 72.0325 3.32217   7
  -5  -2  -4 72.3994 3.38122   2
  -5  -2  -4 73.7463 2.56817   3
   5   2   4 77.3451 2.48636   4
   5   2   4 75.8505 3.27178   8
  -6  -2  -4 51.8921 2.90810  10
  -6  -2  -4 52.2185 2.57777   3
  -6  -2  -4 54.0323 3.30522   2
  -6  -2  -4 50.7663 3.22505   7
   6   2   4 52.7345 2.13598   4
   6   2   4 48.5709 3.13418   8
  -7  -2  -4 5.67570 1.91142   7
  -7  -2  -4 5.61792 1.63651  10
  -7  -2  -4 5.77550 2.00234   2
  -7  -2  -4 5.96813 1.56539   3
   7   2   4 5.55591 1.90646   8
   7   2   4 3.07139 1.00910   4
  -8  -2  -4 8.36944 1.83176   3
  -8  -2  -4 1.58089 1.95189   2
  -8  -2  -4 4.58239 1.88002  10
  -8  -2  -4 7.69178 2.19019   7
   8   2   4 0.10433 1.88876   8
  -9  -2  -4 5.74417 2.44346   7
  -9  -2  -4 3.32617 2.30635   2
  -9  -2  -4 6.15832 2.07455   3
  -9  -2  -4 2.66308 2.07264  10
   9   2   4 4.70750 2.33975   8
   7  -3  -4 32.0532 3.04495   5
   7  -3  -4 40.5222 3.88606   9
   7  -3  -4 33.8443 3.00973   8
  -7   3   4 39.4832 3.38300   6
  -7   3   4 30.7134 3.42288   3
  -7   3   4 32.0785 3.51507  10
   6  -3  -4 10.4957 2.09837   5
   6  -3  -4 15.9477 2.67856   9
   6  -3  -4 15.7180 2.14135   8
  -6   3   4 13.9328 2.61044  10
  -6   3   4 11.4065 2.51141   3
  -6   3   4 12.0000 2.27081   6
   5  -3  -4 2.03687 1.51445   5
   5  -3  -4 2.02719 1.25900   1
   5  -3  -4 2.94963 1.95059   9
   5  -3  -4 1.32307 1.43983   8
  -5   3   4 3.74452 1.94876  10
  -5   3   4 0.38853 1.64528   6
  -5   3   4 3.14510 1.90660   3
   4  -3  -4 266.206 6.44390   5
   4  -3  -4 270.726 7.17945   9
   4  -3  -4 267.779 5.94239   1
  -4   3   4 272.494 7.14431  10
  -4   3   4 272.420 7.08573   3
  -4   3   4 268.243 6.92668   6
   3  -3  -4 24.8496 1.99827   5
   3  -3  -4 29.0542 2.43692   9
   3  -3  -4 27.8626 2.01390   1
  -3   3   4 28.5649 2.35422  10
  -3   3   4 23.5094 2.19270   6
  -3   3   4 22.1397 2.15314   3
   2  -3  -4 652.319 11.7753   5
   2  -3  -4 654.669 12.3740   9
  -2   3   4 632.705 12.5045   4
  -2   3   4 653.815 12.1284   3
  -2   3   4 632.326 12.3377   6
  -2   3   4 638.250 12.1036  10
   1  -3  -4 269.264 6.20379   9
   1  -3  -4 277.560 6.05786   2
   1  -3  -4 278.850 5.78449   5
  -1   3   4 275.651 5.88617   3
  -1   3   4 279.227 6.50303   4
  -1   3   4 270.429 5.83569  10
  -1   3   4 265.613 6.23576   6
   0  -3  -4 259.986 5.29230   3
   0  -3  -4 276.285 5.96647   2
   0  -3  -4 270.532 5.85647   7
   0  -3  -4 261.148 5.93455   9
   0  -3  -4 275.616 5.59985   5
   0   3   4 267.681 5.35899   3
   0   3   4 265.083 5.91757   6
   0   3   4 265.629 5.41398  10
   0   3   4 273.553 6.17200   4
  -1  -3  -4 34.0034 1.94807   5
  -1  -3  -4 32.0984 2.14872   2
  -1  -3  -4 29.4339 2.05516   7
   1   3   4 31.6526 1.45380  10
   1   3   4 29.0312 1.30224   3
   1   3   4 29.2501 1.91319   6
   1   3   4 29.4906 2.07684   4
  -2  -3  -4 2.47952 1.05608   5
   2   3   4 2.62603 0.97248   6
   2   3   4 2.27435 1.08469   4
  -3  -3  -4 143.101 4.09085   7
  -3  -3  -4 146.153 3.63501   4
  -3  -3  -4 150.758 4.24990   2
   3   3   4 148.809 3.66889   4
   3   3   4 143.419 3.06301  10
   3   3   4 150.088 3.37947   6
   3   3   4 149.179 4.06683   8
  -4  -3  -4 3.59022 0.83836   4
  -4  -3  -4 1.63327 1.37170   2
  -4  -3  -4 1.63351 1.23300   7
   4   3   4 1.13113 0.70755  10
   4   3   4 2.60561 0.90383   4
   4   3   4 2.25318 0.69962   6
   4   3   4 2.49577 0.59064   3
   4   3   4 2.84742 1.42266   8
  -5  -3  -4 2.60679 0.91641   3
  -5  -3  -4 1.21267 1.52557   2
  -5  -3  -4 4.03014 1.14097  10
  -5  -3  -4 2.79290 1.47615   7
   5   3   4 2.52445 1.52596   8
   5   3   4 1.76256 0.77187   3
   5   3   4 2.42713 0.85456   4
  -6  -3  -4 10.7420 1.98449   7
  -6  -3  -4 15.3118 1.53733   3
  -6  -3  -4 12.5610 2.12734   2
  -6  -3  -4 12.2301 1.63363  10
   6   3   4 12.5520 2.13619   8
   6   3   4 13.6550 0.97154   4
  -7  -3  -4 36.2220 3.14302   7
  -7  -3  -4 37.2097 3.13641   2
  -7  -3  -4 35.4902 2.54346  10
  -7  -3  -4 37.8792 2.55347   3
   7   3   4 35.6657 3.13137   8
  -8  -3  -4 0.51511 1.62521  10
  -8  -3  -4 5.22074 2.16983   7
  -8  -3  -4 1.14119 1.53486   3
  -8  -3  -4 1.27843 2.01890   2
   8   3   4 1.81864 2.03513   8
  -9  -3  -4 5.27961 2.45353   7
  -9  -3  -4 2.88897 2.34988   2
  -9  -3  -4 5.37062 2.06129  10
   9   3   4 4.09675 2.42033   8
   7  -4  -4 33.7946 3.75672   9
   7  -4  -4 40.2978 3.42367   8
   7  -4  -4 33.0712 3.17860   5
  -7   4   4 33.5985 3.43419   6
  -7   4   4 37.9123 3.77045   3
  -7   4   4 28.5560 3.49061  10
   6  -4  -4 125.203 5.48788   9
   6  -4  -4 116.700 4.64543   8
   6  -4  -4 124.207 4.73492   1
   6  -4  -4 118.992 4.79987   5
  -6   4   4 120.639 5.54627  10
  -6   4   4 111.230 4.98504   6
  -6   4   4 116.239 5.48325   3
   5  -4  -4 8.10351 1.63205   1
   5  -4  -4 8.13131 2.16790   9
   5  -4  -4 10.0077 1.96225   5
   5  -4  -4 8.62011 1.94645   8
  -5   4   4 9.88525 2.12079   6
  -5   4   4 9.12056 2.27343  10
  -5   4   4 9.22308 2.20414   3
   4  -4  -4 14.7223 2.24638   9
   4  -4  -4 14.3647 1.79924   1
   4  -4  -4 17.4174 2.11429   5
  -4   4   4 14.5485 2.17622  10
  -4   4   4 17.4347 2.30991   6
  -4   4   4 13.1101 2.12693   3
   3  -4  -4 5.78371 1.57031   5
   3  -4  -4 6.72838 1.43514   1
   3  -4  -4 6.42985 1.74998   9
  -3   4   4 5.65571 1.65937   3
  -3   4   4 4.35794 1.67730  10
  -3   4   4 6.25657 1.75403   6
   2  -4  -4 32.0443 2.45454   9
   2  -4  -4 33.1057 2.35389   5
  -2   4   4 33.0362 2.39020  10
  -2   4   4 31.3980 2.42776   3
  -2   4   4 33.5136 2.66112   6
   1  -4  -4 166.726 4.48048   2
   1  -4  -4 170.186 4.63829   9
   1  -4  -4 168.192 4.39278   5
  -1   4   4 172.331 4.29309  10
  -1   4   4 166.560 4.76847   6
  -1   4   4 174.138 4.28087   3
  -1   4   4 172.307 4.98052   4
   0  -4  -4 598.126 11.0597   5
   0  -4  -4 590.436 10.5539   3
   0  -4  -4 598.369 11.1413   7
   0  -4  -4 599.611 11.1967   2
   0  -4  -4 608.966 11.3020   9
   0   4   4 605.771 11.5992   4
   0   4   4 615.877 11.4295   6
   0   4   4 600.845 10.5655  10
   0   4   4 597.445 10.5779   3
  -1  -4  -4 287.344 5.99825   5
  -1  -4  -4 276.309 6.05554   7
  -1  -4  -4 279.800 6.15936   2
  -1  -4  -4 272.750 5.05498   3
   1   4   4 278.397 5.10358  10
   1   4   4 286.742 5.10075   3
   1   4   4 278.670 6.09875   6
   1   4   4 275.796 6.25504   4
  -2  -4  -4 25.0565 1.94871   2
  -2  -4  -4 30.5577 2.04545   7
  -2  -4  -4 29.1114 2.03108   5
   2   4   4 27.6019 2.09984   4
   2   4   4 26.7820 1.87965   6
  -3  -4  -4 0.08954 1.02540   4
  -3  -4  -4 -0.4113 1.28275   2
  -3  -4  -4 0.77105 1.17063   7
   3   4   4 1.38410 0.96882   4
   3   4   4 0.81527 0.83750   6
  -4  -4  -4 4.46053 1.59895   2
  -4  -4  -4 2.34635 1.31480   7
  -4  -4  -4 2.83363 0.88850   4
   4   4   4 5.45132 0.83286   6
   4   4   4 5.80493 1.00947   4
   4   4   4 4.95237 1.58160   8
   4   4   4 6.68840 0.77220  10
  -5  -4  -4 27.0398 1.74769  10
  -5  -4  -4 21.8822 2.22526   7
  -5  -4  -4 22.8737 1.32958   3
  -5  -4  -4 23.1767 2.31238   2
   5   4   4 20.0548 1.43370  10
   5   4   4 18.3906 2.12812   8
   5   4   4 21.9582 1.28983   4
   5   4   4 23.1138 1.26360   3
  -6  -4  -4 35.3219 1.99510   3
  -6  -4  -4 38.5562 3.05438   7
  -6  -4  -4 30.1953 2.75052   2
  -6  -4  -4 35.0554 2.32742  10
   6   4   4 29.9722 2.71852   8
  -7  -4  -4 13.8270 2.41980   2
  -7  -4  -4 17.4053 1.74651   3
  -7  -4  -4 16.7344 2.46361   7
  -7  -4  -4 19.9643 1.97974  10
   7   4   4 20.0949 2.65702   8
  -8  -4  -4 2.81307 2.15555   2
  -8  -4  -4 6.29170 2.24704   7
  -8  -4  -4 5.86867 1.78132  10
   8   4   4 8.53736 2.46899   8
  -9  -4  -4 19.4866 3.08381   7
  -9  -4  -4 14.9641 3.07081   2
   9   4   4 18.6135 2.99685   8
   6  -5  -4 18.6790 2.83936   9
   6  -5  -4 17.7752 2.69261   8
   6  -5  -4 24.2428 2.76522   5
   6  -5  -4 18.9118 2.29611   1
  -6   5   4 23.2917 3.05641   3
  -6   5   4 20.5280 2.92897   6
  -6   5   4 17.6882 2.88280  10
   5  -5  -4 10.3994 2.25906   9
   5  -5  -4 7.83630 1.80063   1
   5  -5  -4 7.67265 2.09374   5
  -5   5   4 8.48937 2.21976   6
  -5   5   4 11.9878 2.36217  10
  -5   5   4 7.13437 2.15936   3
   4  -5  -4 45.6608 3.28854   5
   4  -5  -4 40.9446 2.89948   1
   4  -5  -4 44.3810 3.27622   9
  -4   5   4 39.3720 3.22366   6
  -4   5   4 43.8175 3.39765  10
  -4   5   4 37.4899 3.02951   3
   3  -5  -4 -1.5495 1.47756   9
   3  -5  -4 1.71668 1.39711   1
   3  -5  -4 -0.6495 1.40435   5
  -3   5   4 -1.0492 1.46691   6
  -3   5   4 -1.6021 1.38009   3
  -3   5   4 1.17350 1.47921  10
   2  -5  -4 33.2990 2.58402   9
   2  -5  -4 33.7276 2.44948   5
   2  -5  -4 34.5498 2.44414   2
  -2   5   4 32.7397 2.58734   6
  -2   5   4 31.9946 2.40413  10
  -2   5   4 36.7327 2.57976   3
   1  -5  -4 0.37145 1.23656   2
   1  -5  -4 -0.3232 1.30941   9
   1  -5  -4 0.49819 1.24534   5
  -1   5   4 0.31003 1.05346   3
  -1   5   4 0.03536 1.23342   6
  -1   5   4 -0.4960 1.00457  10
   0  -5  -4 599.820 11.1369   7
   0  -5  -4 591.413 11.2642   5
   0  -5  -4 595.502 11.3353   9
   0  -5  -4 603.746 10.4946  10
   0  -5  -4 608.173 11.2477   2
   0   5   4 578.874 11.4951   6
   0   5   4 598.917 10.6315   3
   0   5   4 585.325 10.4574  10
  -1  -5  -4 10.2483 1.52277   5
  -1  -5  -4 9.45060 1.43965   7
  -1  -5  -4 8.76363 0.85380   3
  -1  -5  -4 10.0774 1.53610   2
   1   5   4 9.91143 1.51449   6
   1   5   4 7.68547 0.84343   3
   1   5   4 7.50653 0.74603  10
  -2  -5  -4 1.09445 1.27510   2
  -2  -5  -4 -2.0323 1.15510   5
  -2  -5  -4 0.23669 1.11979   7
   2   5   4 0.53089 1.03857   6
  -3  -5  -4 72.8876 3.05914   5
  -3  -5  -4 75.7083 3.06252   7
  -3  -5  -4 72.6379 3.33305   2
   3   5   4 73.6824 2.57083   6
  -4  -5  -4 0.33357 1.49331   2
  -4  -5  -4 -0.9974 0.79637   4
  -4  -5  -4 0.63733 1.32945   7
   4   5   4 -0.3016 0.76718   6
  -5  -5  -4 10.2796 2.02805   2
  -5  -5  -4 10.9061 1.87145   7
   5   5   4 6.33439 0.87844  10
   5   5   4 9.08928 2.08513   8
  -6  -5  -4 3.37695 1.94996   2
  -6  -5  -4 9.43662 1.27491  10
  -6  -5  -4 6.67044 1.98555   7
   6   5   4 2.64903 1.92050   8
  -7  -5  -4 32.4233 3.17648   2
  -7  -5  -4 35.1249 3.16358   7
   7   5   4 39.4093 3.36544   8
  -8  -5  -4 12.3439 2.60397   7
  -8  -5  -4 16.7974 2.96163   2
   8   5   4 20.2132 3.00118   8
  -9  -5  -4 4.13417 2.60960   2
  -9  -5  -4 -1.0255 2.15067   7
   9   5   4 0.72826 2.50754   8
   6  -6  -4 2.90155 1.87119   1
   6  -6  -4 5.13116 2.27487   9
   6  -6  -4 6.31437 2.19288   5
   6  -6  -4 6.95108 2.37051   8
  -6   6   4 -0.8422 2.10689   3
  -6   6   4 3.77741 2.23363   6
  -6   6   4 2.70254 2.28324  10
   5  -6  -4 0.35394 1.63148   1
   5  -6  -4 -0.0083 1.81772   5
   5  -6  -4 -0.0260 1.72949   9
  -5   6   4 -0.5929 1.81076  10
  -5   6   4 1.17519 1.98485   6
  -5   6   4 -1.2616 1.83163   3
   4  -6  -4 2.38418 1.85277   5
   4  -6  -4 2.89481 1.76877   9
   4  -6  -4 2.25938 1.72502   1
  -4   6   4 0.90242 1.73209  10
  -4   6   4 2.39490 1.88080   6
  -4   6   4 5.09944 1.94054   3
   3  -6  -4 63.0475 3.30422   1
   3  -6  -4 54.0071 3.47421   5
   3  -6  -4 56.5932 3.22248   9
  -3   6   4 46.5197 3.63335   6
  -3   6   4 51.7294 3.23094  10
  -3   6   4 57.0436 3.46341   3
   2  -6  -4 5.67411 1.63178   9
   2  -6  -4 4.80290 1.66859   1
   2  -6  -4 2.70575 1.62015   5
   2  -6  -4 7.01188 1.49692   2
  -2   6   4 4.64861 1.42414  10
  -2   6   4 3.80972 1.71792   6
  -2   6   4 4.22606 1.46722   3
   1  -6  -4 22.1841 2.15124   5
   1  -6  -4 25.9570 2.11407   2
   1  -6  -4 27.3329 2.25636   9
  -1   6   4 19.3589 2.17235   6
  -1   6   4 25.1643 1.95644   3
  -1   6   4 24.3339 1.81685  10
   0  -6  -4 159.458 4.52451   9
   0  -6  -4 157.241 4.71642   5
   0  -6  -4 164.975 4.43747   7
   0  -6  -4 160.542 4.49698   2
   0  -6  -4 156.527 3.70351  10
   0   6   4 156.420 3.97225   3
   0   6   4 159.668 4.88914   6
   0   6   4 159.366 3.72022  10
  -1  -6  -4 89.7835 3.51363   5
  -1  -6  -4 98.1191 3.37280   7
  -1  -6  -4 93.7927 2.46029   3
  -1  -6  -4 94.1315 3.49881   2
   1   6   4 89.5972 3.53847   6
  -2  -6  -4 -0.2616 1.20300   7
  -2  -6  -4 -1.7817 1.24617   5
  -2  -6  -4 1.62393 1.33886   2
   2   6   4 0.42191 1.16661   6
  -3  -6  -4 5.85166 1.55954   5
  -3  -6  -4 3.64896 1.63354   2
  -3  -6  -4 9.21319 1.60788   7
   3   6   4 7.15742 1.30576   6
  -4  -6  -4 24.0712 2.20523   7
  -4  -6  -4 19.9174 2.33522   2
  -4  -6  -4 23.9574 2.21038   5
   4   6   4 27.3661 1.79736   6
  -5  -6  -4 4.29812 1.63727   7
  -5  -6  -4 4.51201 1.96665   2
   5   6   4 5.02014 0.85440   6
  -6  -6  -4 83.2011 4.43928   2
  -6  -6  -4 82.1224 4.08519   7
  -7  -6  -4 1.03409 2.02426   2
  -7  -6  -4 0.29048 1.88805   7
   7   6   4 3.04699 2.29123   8
  -8  -6  -4 141.748 6.31770   2
  -8  -6  -4 140.687 6.10344   7
   8   6   4 129.709 6.00040   8
   5  -7  -4 32.7061 3.25488   5
   5  -7  -4 31.4683 3.10898   9
   5  -7  -4 31.2930 3.02254   1
  -5   7   4 32.4560 3.21109  10
  -5   7   4 33.6905 3.50685   6
  -5   7   4 31.1588 3.32432   3
   4  -7  -4 2.44941 1.95063   5
   4  -7  -4 0.85130 1.68134   1
   4  -7  -4 1.22644 1.67883   9
  -4   7   4 -0.2833 1.85864   6
  -4   7   4 -1.8200 1.72166   3
  -4   7   4 -1.0855 1.68121  10
   3  -7  -4 3.86872 1.89143   5
   3  -7  -4 4.00405 1.77785   1
   3  -7  -4 2.53714 1.60570   9
  -3   7   4 2.42355 1.94510   6
  -3   7   4 2.86020 1.75531   3
  -3   7   4 4.03070 1.64210  10
   2  -7  -4 4.30579 1.72876   1
   2  -7  -4 10.5598 2.05587   5
   2  -7  -4 7.13872 1.76618   9
  -2   7   4 7.81364 1.57251  10
  -2   7   4 4.99997 1.96672   6
  -2   7   4 6.53894 1.71585   3
   1  -7  -4 34.6716 2.67032   9
   1  -7  -4 35.5161 2.57460   2
   1  -7  -4 32.1376 2.68833   5
  -1   7   4 34.0113 2.52180   3
  -1   7   4 37.2849 2.28719  10
  -1   7   4 38.6155 3.10816   6
   0  -7  -4 45.7114 3.03055   5
   0  -7  -4 41.5751 2.68353   9
   0  -7  -4 42.2846 2.68501   2
   0  -7  -4 47.4204 2.65461   7
   0   7   4 42.6496 2.30485   3
   0   7   4 43.1619 3.20239   6
   0   7   4 44.6781 2.01281  10
  -1  -7  -4 6.63522 1.14874   3
  -1  -7  -4 3.52837 1.53590   5
  -1  -7  -4 6.92560 1.62269   2
  -1  -7  -4 5.39030 1.55714   9
  -1  -7  -4 7.79519 1.49250   7
   1   7   4 5.32815 1.58402   6
  -2  -7  -4 13.5154 1.91766   2
  -2  -7  -4 13.8451 1.75531   7
  -2  -7  -4 12.3299 2.01667   5
   2   7   4 12.7348 1.75611   6
  -3  -7  -4 18.4918 2.25233   2
  -3  -7  -4 14.7083 2.10837   5
  -3  -7  -4 22.1402 1.99012   7
   3   7   4 20.0880 1.86034   6
  -4  -7  -4 13.6859 2.16301   5
  -4  -7  -4 11.7781 2.11925   2
  -4  -7  -4 12.2619 1.85876   7
   4   7   4 13.9689 1.53161   6
  -5  -7  -4 63.5928 3.56911   5
  -5  -7  -4 60.6865 3.59934   7
  -5  -7  -4 59.2946 3.82170   2
  -6  -7  -4 109.413 4.74578   7
  -6  -7  -4 105.900 5.12100   2
  -7  -7  -4 1.54845 1.98467   7
  -7  -7  -4 -1.3207 2.11533   2
  -8  -7  -4 0.74600 2.20647   7
  -8  -7  -4 -2.0902 2.39138   2
   5  -8  -4 14.2792 2.62587   1
   5  -8  -4 16.0296 2.53153   9
   5  -8  -4 13.5427 2.72236   5
  -5   8   4 18.5530 2.82369  10
  -5   8   4 11.8283 2.68122   3
  -5   8   4 14.8539 3.00592   6
   4  -8  -4 14.5352 2.46934   1
   4  -8  -4 14.5027 2.53810   5
   4  -8  -4 14.2921 2.30074   9
  -4   8   4 12.8234 2.33877  10
  -4   8   4 12.1647 2.63104   6
  -4   8   4 15.4881 2.59014   3
   3  -8  -4 51.3667 3.74536   1
   3  -8  -4 47.9290 3.59283   5
   3  -8  -4 46.7888 3.30685   9
  -3   8   4 55.4992 4.26899   6
  -3   8   4 50.1707 3.69631   3
  -3   8   4 51.9972 3.39634  10
   2  -8  -4 0.24813 1.78406   5
   2  -8  -4 0.20609 1.71083   1
   2  -8  -4 2.27470 1.56271   9
  -2   8   4 0.95567 1.33390  10
  -2   8   4 2.44469 1.98788   6
  -2   8   4 0.83962 1.49596   3
   1  -8  -4 2.20851 1.74695   1
   1  -8  -4 2.59152 1.33581   2
   1  -8  -4 1.36637 1.42138   9
   1  -8  -4 1.99732 1.81329   5
  -1   8   4 1.91075 1.21422  10
  -1   8   4 0.40902 1.67270   6
  -1   8   4 2.20861 1.41672   3
   0  -8  -4 1.38437 1.41460   2
   0  -8  -4 2.17031 1.70840   5
   0  -8  -4 2.37331 1.43842   9
   0   8   4 2.43414 1.66482   6
   0   8   4 0.82432 0.92600  10
  -1  -8  -4 32.0232 2.71311   5
  -1  -8  -4 30.2885 2.37645   2
  -1  -8  -4 32.6238 2.43151   7
  -1  -8  -4 33.7879 2.58646   9
   1   8   4 28.8343 2.58941   6
  -2  -8  -4 17.4912 2.11216   2
  -2  -8  -4 20.6024 2.36744   5
  -2  -8  -4 19.7213 1.88699   7
   2   8   4 16.4228 2.03205   6
  -3  -8  -4 8.12126 2.02633   5
  -3  -8  -4 4.81053 1.78306   2
  -3  -8  -4 4.50098 1.52905   7
   3   8   4 10.4172 1.67894   6
  -4  -8  -4 195.845 6.11160   2
  -4  -8  -4 191.992 6.05305   5
  -4  -8  -4 197.356 5.53364   7
   4   8   4 192.800 5.03469   6
  -5  -8  -4 7.86984 2.05547   5
  -5  -8  -4 4.41007 1.86052   7
  -5  -8  -4 9.48273 2.29094   2
  -6  -8  -4 7.16893 2.12120   5
  -6  -8  -4 4.93426 2.00211   7
  -6  -8  -4 5.43127 2.36404   2
  -7  -8  -4 10.6557 2.37275   5
  -7  -8  -4 6.82354 2.31891   7
  -7  -8  -4 3.58327 2.40104   2
   4  -9  -4 -0.7414 2.18444   5
   4  -9  -4 -1.0182 1.92662   1
  -4   9   4 -2.3342 1.96958   3
  -4   9   4 2.88098 1.95850  10
  -4   9   4 2.80903 2.36667   6
   3  -9  -4 4.05849 2.21975   1
   3  -9  -4 0.99117 2.16646   5
  -3   9   4 1.97097 2.33964   6
  -3   9   4 1.11459 1.87367   3
  -3   9   4 2.29221 1.68281  10
   2  -9  -4 3.64785 2.03431   5
   2  -9  -4 4.24095 2.10555   1
  -2   9   4 1.53868 2.07333   6
  -2   9   4 5.32099 1.81814   3
  -2   9   4 3.12677 1.62383  10
   1  -9  -4 28.3003 2.93820   5
   1  -9  -4 37.6141 3.38494   1
   1  -9  -4 32.1388 2.57810   9
  -1   9   4 34.3763 3.32773   6
   0  -9  -4 118.931 4.14247   2
   0  -9  -4 126.073 5.00732   5
   0  -9  -4 119.003 4.05178   9
   0  -9  -4 123.989 5.16719   1
   0   9   4 122.924 5.09589   6
  -1  -9  -4 1.06983 1.47259   9
  -1  -9  -4 4.96635 1.59762   2
  -1  -9  -4 2.92698 1.86201   5
  -1  -9  -4 1.77008 1.31332   7
   1   9   4 0.87125 1.69954   6
  -2  -9  -4 179.086 4.90497   7
  -2  -9  -4 183.354 5.26002   9
  -2  -9  -4 177.577 5.43344   2
  -2  -9  -4 180.290 5.85735   5
   2   9   4 174.478 5.54069   6
  -3  -9  -4 -0.1841 1.62175   2
  -3  -9  -4 1.29992 1.43368   7
  -3  -9  -4 1.73619 1.87835   5
   3   9   4 0.42781 1.48697   6
  -4  -9  -4 1.76612 1.95416   5
  -4  -9  -4 0.31264 1.50331   7
  -4  -9  -4 0.77981 1.84133   2
   4   9   4 1.17902 1.37784   6
  -5  -9  -4 0.56473 2.01894   2
  -5  -9  -4 0.85693 1.94516   5
  -5  -9  -4 -0.7174 1.60074   7
  -6  -9  -4 3.72411 2.35859   2
  -6  -9  -4 3.54447 2.06063   7
  -6  -9  -4 6.61815 2.33437   5
   3 -10  -4 49.1259 4.14902   5
  -3  10   4 45.6663 3.64635   3
   2 -10  -4 30.5797 3.37120   5
   2 -10  -4 33.3171 3.40530   1
  -2  10   4 28.7182 3.45172   6
   1 -10  -4 5.89230 2.24585   5
   1 -10  -4 1.54281 2.19267   1
  -1  10   4 0.57260 2.09146   6
   0 -10  -4 24.8869 2.98714   1
   0 -10  -4 20.8223 2.73293   5
   0  10   4 21.5687 2.86869   6
  -1 -10  -4 2.06133 2.04231   5
  -1 -10  -4 2.47508 2.23469   1
   1  10   4 1.06458 1.85641   6
  -2 -10  -4 -2.2541 1.49952   2
  -2 -10  -4 -0.5402 1.88094   5
  -2 -10  -4 -0.4991 1.83600   1
   2  10   4 -0.2774 1.62669   6
  -3 -10  -4 -2.2903 1.58104   2
  -3 -10  -4 3.76957 2.12642   5
   3  10   4 2.72447 1.70835   6
  -4 -10  -4 5.57545 2.21341   5
  -4 -10  -4 4.05471 2.09988   2
  -5 -10  -4 42.8632 3.61069   2
  -5 -10  -4 41.0817 3.67771   5
   0 -11  -4 24.8917 3.28716   1
   0 -11  -4 25.5575 3.19108   5
   0  11   4 25.4801 3.14671   6
  -1 -11  -4 1.24500 2.28943   1
  -1 -11  -4 0.93037 2.11676   5
   1  11   4 -0.2529 1.93157   6
  -2 -11  -4 0.62161 2.25054   1
  -2 -11  -4 2.02643 2.17633   5
   2  11   4 6.15140 2.08931   6
  -3 -11  -4 2.81970 2.30739   5
  -3 -11  -4 8.20297 2.50347   1
   3  11   4 3.16930 2.14671   6
   0 -10   5 1.42791 2.32723   4
   0 -10   5 2.16886 2.14258   1
   1 -10   5 -3.4031 1.95670   1
   1 -10   5 -2.3333 2.15307   4
  -2  -9   5 3.86848 2.01782   4
  -1  -9   5 8.13685 2.50889   4
  -1  -9   5 10.6116 2.23622   1
   0  -9   5 14.6776 2.73603   4
   0  -9   5 17.4620 2.54384   1
   1  -9   5 0.56484 1.94105   1
   1  -9   5 2.83812 2.24852   4
   2  -9   5 -0.4886 2.19763   4
   2  -9   5 4.74905 2.18992   1
   3  -9   5 5.00705 2.38922   1
   3  -9   5 1.37493 2.32007   4
   3  -9   5 0.49726 2.05269   5
   4  -9   5 30.1667 3.48774   1
   4  -9   5 33.3253 2.86454   5
   4  -9   5 26.1179 3.16985   8
   4  -9   5 27.9242 3.70203   4
  -4  -8   5 4.69367 2.22136   3
  -4  -8   5 1.91174 2.19217  10
  -3  -8   5 3.84570 2.23242   3
  -3  -8   5 4.22370 2.21824  10
  -2  -8   5 13.7231 2.39644   4
  -1  -8   5 4.64104 1.81763   1
  -1  -8   5 4.58536 2.08990   4
   0  -8   5 12.9988 2.26530   1
   0  -8   5 15.0444 2.62549   4
   1  -8   5 53.2020 3.69409   1
   1  -8   5 42.0555 3.66586   4
   2  -8   5 5.06259 2.27299   4
   2  -8   5 6.58570 2.24059   1
   2  -8   5 7.15600 1.60719   5
   3  -8   5 7.24159 2.31331   1
   3  -8   5 8.64488 2.60484   4
   3  -8   5 12.6012 1.96217   5
   4  -8   5 58.8257 4.41738   1
   4  -8   5 50.3480 3.73349   8
   4  -8   5 44.5901 4.08564   4
   4  -8   5 61.2203 3.48512   5
   5  -8   5 0.36385 2.13235   1
   5  -8   5 3.24639 1.83275   5
   5  -8   5 1.60117 2.20096   8
   5  -8   5 -1.7583 2.28718   4
  -5  -7   5 60.1672 4.58361   3
  -5  -7   5 73.9874 4.63571  10
  -4  -7   5 -1.0729 1.91833  10
  -4  -7   5 -0.4263 1.97987   3
  -3  -7   5 4.54947 2.14510   3
  -3  -7   5 1.93080 1.70632   4
  -3  -7   5 3.26371 2.07437  10
  -2  -7   5 13.9341 1.86594   1
  -2  -7   5 15.6117 2.33311   4
  -1  -7   5 7.21293 1.96822   4
  -1  -7   5 6.58783 1.76010   1
   0  -7   5 23.3009 2.40908   1
   0  -7   5 22.2155 2.75990   4
   0  -7   5 23.9816 1.70384   5
   1  -7   5 44.9825 3.21972   1
   1  -7   5 43.1309 2.34059   5
   1  -7   5 43.4094 3.51985   4
   2  -7   5 205.274 5.11735   5
   2  -7   5 200.205 6.23455   1
   2  -7   5 200.231 6.81328   4
   3  -7   5 1.39937 1.98333   4
   3  -7   5 3.16804 1.44191   5
   3  -7   5 2.36733 1.98432   1
   4  -7   5 6.62235 2.16080   1
   4  -7   5 4.20205 1.62273   5
   4  -7   5 2.17303 1.91240   8
   4  -7   5 1.81695 2.17097   4
   5  -7   5 6.91732 1.92018   5
   5  -7   5 3.35173 2.01681   8
   5  -7   5 5.57166 2.32037   1
   5  -7   5 8.27366 2.56753   4
   6  -7   5 9.27289 2.56697   1
   6  -7   5 12.7458 2.56204   8
   6  -7   5 9.87052 2.24388   5
   6  -7   5 12.5288 2.98634   4
  -5  -6   5 28.1285 3.23423  10
  -5  -6   5 25.6860 3.08191   3
  -4  -6   5 6.65063 2.22511   3
  -4  -6   5 4.20535 2.21014  10
  -4  -6   5 6.17735 2.76077   4
  -3  -6   5 -0.8103 1.45773   4
  -3  -6   5 -2.0130 1.78078   3
  -3  -6   5 -0.0419 1.77071  10
   2   6  -5 166.180 4.57662   9
  -2  -6   5 168.717 5.45690   4
  -2  -6   5 168.875 4.45940   1
  -2  -6   5 170.646 5.78313   3
   1   6  -5 28.5157 1.90697   9
  -1  -6   5 21.8411 1.52240   5
  -1  -6   5 25.2438 2.20772   1
  -1  -6   5 20.7197 2.46603   4
   0   6  -5 72.5205 2.18301   9
   0  -6   5 66.5985 3.87806   4
   0  -6   5 64.3420 3.24635   1
   0  -6   5 63.8505 2.22233   5
   1  -6   5 285.520 7.83822   4
   1  -6   5 303.934 5.99850   5
   1  -6   5 300.566 7.28201   1
   2  -6   5 15.2242 1.59929   5
   2  -6   5 18.0286 2.31033   1
   2  -6   5 13.4031 2.38841   4
  -3   6  -5 24.5687 1.72964   9
  -3   6  -5 23.5609 1.55057   7
   3  -6   5 25.7805 1.99348   5
   3  -6   5 19.2972 2.59502   4
   3  -6   5 21.7618 2.35694   8
   3  -6   5 29.9964 2.84141   1
  -4   6  -5 17.7470 1.65904   7
   4  -6   5 15.0713 2.51190   1
   4  -6   5 21.6026 2.12865   5
   4  -6   5 17.2604 2.36233   8
   4  -6   5 19.2704 2.69294   4
   5  -6   5 12.8105 2.05643   5
   5  -6   5 12.6406 2.62000   4
   5  -6   5 9.69134 2.34727   1
   5  -6   5 10.5008 2.22197   8
   6  -6   5 5.18941 2.19101   1
   6  -6   5 6.76868 2.06145   5
   6  -6   5 2.92978 2.17073   8
   6  -6   5 7.99753 2.68039   4
   7  -6   5 0.75756 2.14163   8
   7  -6   5 2.04112 1.94021   5
   7  -6   5 0.80173 2.39739   4
   7  -6   5 1.03968 2.15173   1
  -6  -5   5 5.42284 2.31370   3
  -6  -5   5 7.83805 2.47903  10
  -5  -5   5 2.84149 2.07962   3
  -5  -5   5 1.67613 2.05430  10
   4   5  -5 50.4803 3.50502   9
  -4  -5   5 50.8225 3.23207   4
  -4  -5   5 53.1610 3.79050   3
  -4  -5   5 55.9348 3.97926  10
   3   5  -5 60.2589 3.14782   9
  -3  -5   5 58.1504 3.81728  10
  -3  -5   5 55.6890 3.85379   3
  -3  -5   5 57.8205 3.37767   4
   2   5  -5 2.05991 1.28603   9
  -2  -5   5 1.18816 1.56008   4
  -2  -5   5 1.23892 1.72673   3
  -2  -5   5 1.57179 1.09876   1
  -2  -5   5 0.75910 0.77425   5
   1   5  -5 38.1990 2.22829   9
  -1  -5   5 30.7373 2.68606   4
  -1  -5   5 36.0335 2.35069   1
  -1  -5   5 36.0363 1.39284   5
   0   5  -5 30.4052 1.81028   9
   0  -5   5 29.0025 2.71859   4
   0  -5   5 32.2336 2.45101   1
   0  -5   5 29.6327 1.40024   5
  -1   5  -5 52.5635 1.83753   5
  -1   5  -5 52.6925 1.98328   9
   1  -5   5 51.9607 2.01840   7
   1  -5   5 54.0237 1.99293   5
   1  -5   5 51.3679 3.34920   4
   1  -5   5 60.1082 3.12153   1
  -2   5  -5 88.4804 2.61237   7
  -2   5  -5 85.8045 2.49163   9
   2  -5   5 84.8011 3.81786   1
   2  -5   5 86.5092 2.45058   7
   2  -5   5 87.7564 2.73997   5
   2  -5   5 81.4125 2.48826   2
   2  -5   5 86.1307 4.11303   4
  -3   5  -5 67.0226 2.39922   7
   3  -5   5 67.8042 3.29875   8
   3  -5   5 67.0349 3.90924   4
   3  -5   5 62.0482 2.74633   5
   3  -5   5 61.7577 3.52125   1
  -4   5  -5 0.24661 1.04553   7
  -4   5  -5 1.41022 0.70370   2
   4  -5   5 -1.1123 1.43631   8
   4  -5   5 -0.0791 1.31129   5
   4  -5   5 0.61032 1.66598   1
   4  -5   5 -1.3552 1.67054   4
  -5   5  -5 1.86838 1.22651   7
   5  -5   5 -0.4986 1.73053   1
   5  -5   5 0.16097 1.49307   5
   5  -5   5 -1.2661 1.78568   4
   5  -5   5 1.85376 1.77337   8
  -6   5  -5 11.3414 1.84245   7
   6  -5   5 19.8315 2.38468   5
   6  -5   5 15.4709 2.54273   8
   6  -5   5 16.8954 2.83678   4
   6  -5   5 11.8877 2.44483   1
  -7   5  -5 -0.9155 1.46807   7
   7  -5   5 -0.6000 2.00933   8
   7  -5   5 -2.5198 1.93254   4
   7  -5   5 -1.2644 1.98145   1
  -8   5  -5 14.0938 2.92882   7
   8  -5   5 12.2597 2.75794   8
   8  -5   5 16.2109 3.10479   4
   8  -5   5 13.7077 2.84898   1
  -6  -4   5 14.0109 2.73307   3
  -6  -4   5 11.7836 2.51652  10
   5   4  -5 13.8485 2.53995   9
  -5  -4   5 19.1491 2.79292  10
  -5  -4   5 15.3698 2.48159   4
  -5  -4   5 15.5086 2.52933   3
   4   4  -5 27.7297 2.72133   9
  -4  -4   5 23.9186 2.35299   4
  -4  -4   5 22.0382 2.69077   3
  -4  -4   5 34.4532 3.13638  10
   3   4  -5 24.2743 2.33334   9
  -3  -4   5 21.8885 2.52130   3
  -3  -4   5 22.0712 1.40295   5
  -3  -4   5 22.0556 2.35963   4
  -3  -4   5 15.6040 2.31795  10
   2   4  -5 31.9147 2.36988   9
  -2  -4   5 29.3767 2.49209   4
  -2  -4   5 30.0005 2.69369   3
  -2  -4   5 32.2407 1.82883   1
   1   4  -5 14.0226 1.58708   9
  -1  -4   5 14.8517 1.10567   8
  -1  -4   5 15.9375 1.57778   1
  -1  -4   5 15.9023 1.96638   4
   0   4  -5 3.06209 1.06896   9
   0  -4   5 0.56719 1.19624   1
   0  -4   5 -0.0672 1.35330   4
  -1   4  -5 4.33416 1.05487   9
  -1   4  -5 4.18836 0.76348   5
   1  -4   5 6.30476 0.81532   5
   1  -4   5 5.51329 1.66058   4
   1  -4   5 5.50171 1.49021   1
   1  -4   5 7.72842 1.21954   8
  -2   4  -5 3.19189 1.02356   7
   2  -4   5 5.88731 1.55901   1
   2  -4   5 3.10336 1.53048   4
   2  -4   5 3.61574 1.00457   2
   2  -4   5 2.47529 1.21844   8
   2  -4   5 3.88629 0.99775   5
  -3   4  -5 0.00793 0.98332   7
  -3   4  -5 1.01654 0.87176   2
   3  -4   5 2.49348 1.35103   8
   3  -4   5 0.07713 1.47683   1
   3  -4   5 0.70977 1.05381   5
   3  -4   5 0.68398 0.77783   2
   3  -4   5 2.25140 1.64462   4
  -4   4  -5 0.54660 1.10807   7
  -4   4  -5 -1.3268 0.88759   2
   4  -4   5 1.41758 1.69485   4
   4  -4   5 1.82211 1.58504   1
   4  -4   5 -0.0792 1.26625   5
   4  -4   5 0.84723 0.76982   2
   4  -4   5 -0.8361 1.39158   8
  -5   4  -5 26.8206 2.00488   2
  -5   4  -5 30.1574 2.21076   7
   5  -4   5 27.8899 2.24402   5
   5  -4   5 24.4553 2.52366   8
   5  -4   5 31.0883 2.91906   4
   5  -4   5 26.2354 2.70989   1
  -6   4  -5 19.5125 2.07606   7
  -6   4  -5 16.8372 1.66550   2
   6  -4   5 22.4727 2.75862   4
   6  -4   5 16.0680 2.48598   1
   6  -4   5 21.2616 2.58998   8
  -7   4  -5 16.8856 2.21057   7
   7  -4   5 12.9361 2.55248   4
   7  -4   5 9.71682 2.44196   8
   7  -4   5 14.8571 2.64490   1
  -8   4  -5 0.19225 1.82731   7
  -8   4  -5 -0.6682 2.21761  10
   8  -4   5 2.17282 2.20932   8
   8  -4   5 0.06030 2.07562   1
   8  -4   5 -1.7501 2.00510   4
  -7  -3   5 -3.2511 2.05545   3
  -7  -3   5 -1.1687 2.20292  10
   6   3  -5 52.4596 4.22009   9
  -6  -3   5 47.2604 3.80818  10
  -6  -3   5 38.3612 3.55442   3
   5   3  -5 176.278 5.98682   9
  -5  -3   5 163.707 5.92634   3
  -5  -3   5 160.371 5.06356   4
  -5  -3   5 164.873 5.95338  10
   4   3  -5 0.34604 1.57520   9
  -4  -3   5 0.36560 1.42022   4
  -4  -3   5 1.53377 1.71410   3
  -4  -3   5 2.52721 1.74746  10
   3   3  -5 6.99916 1.78555   9
  -3  -3   5 6.67905 1.72996   4
  -3  -3   5 8.07994 1.95719   3
  -3  -3   5 5.43081 1.78058  10
   2   3  -5 -0.1764 0.68914   1
   2   3  -5 -1.0696 1.22526   9
  -2  -3   5 0.60391 1.47108   3
  -2  -3   5 0.72100 1.32898   4
  -2  -3   5 -1.6040 1.36934  10
  -2  -3   5 0.62333 0.82684   1
   1   3  -5 113.417 3.59882   9
  -1  -3   5 111.399 3.10109   1
  -1  -3   5 106.906 3.90068   4
   0   3  -5 50.1056 2.29425   9
   0  -3   5 54.4890 1.65129   8
   0  -3   5 52.9375 2.93024   4
   0  -3   5 51.3794 2.42240   1
  -1   3  -5 30.2351 1.95593   7
  -1   3  -5 29.7472 1.12553   5
  -1   3  -5 29.2812 1.89609   9
   1  -3   5 32.3881 2.58277   4
   1  -3   5 28.8911 1.58392   8
   1  -3   5 30.5440 2.09430   1
  -2   3  -5 -1.2739 0.93877   7
  -2   3  -5 0.12141 0.90502   2
  -2   3  -5 -0.5625 0.68458   5
   2  -3   5 1.68868 1.30683   1
   2  -3   5 0.38565 0.98221   8
   2  -3   5 -1.1346 1.20046   4
  -3   3  -5 81.3266 2.71209   2
  -3   3  -5 87.6029 2.88902   7
   3  -3   5 84.9176 3.10954   8
   3  -3   5 84.6140 3.70259   4
   3  -3   5 78.3077 3.40440   1
  -4   3  -5 5.05777 1.28805   7
  -4   3  -5 5.54963 1.25126   2
   4  -3   5 4.38880 1.71890   4
   4  -3   5 2.67253 1.58588   1
   4  -3   5 4.42855 1.52811   8
  -5   3  -5 0.35172 1.30964   7
  -5   3  -5 -0.7895 1.14956   2
   5  -3   5 -1.1882 1.49296   8
   5  -3   5 -0.0690 1.62424   4
   5  -3   5 0.83755 1.68759   1
  -6   3  -5 39.2726 3.03349   7
  -6   3  -5 41.8356 2.68491   2
   6  -3   5 38.0916 3.19126   4
   6  -3   5 43.2695 3.22098   8
   6  -3   5 46.2614 3.37140   1
  -7   3  -5 4.72620 1.79812   7
  -7   3  -5 8.92896 1.79571   2
  -7   3  -5 6.67606 2.21365  10
   7  -3   5 7.58615 2.24382   8
   7  -3   5 6.44287 2.16661   1
   7  -3   5 7.66192 2.20551   4
  -8   3  -5 32.1815 3.13842   7
  -8   3  -5 39.8070 3.68559  10
  -8   3  -5 42.7655 2.99497   2
   8  -3   5 40.4427 3.50254   4
   8  -3   5 40.9004 3.47980   1
   8  -3   5 43.9201 3.73993   8
  -9   3  -5 6.41091 2.32238   7
  -9   3  -5 9.47418 2.75327  10
   9  -3   5 12.3807 2.58033   1
   9  -3   5 9.69322 2.57199   4
   9  -3   5 9.72521 2.72319   8
  -7  -2   5 68.4208 4.90712   3
  -7  -2   5 70.8027 5.01910  10
   6   2  -5 8.34413 2.52955   9
  -6  -2   5 17.5073 2.79065   3
  -6  -2   5 11.1477 2.54197  10
   5   2  -5 140.750 5.60598   9
  -5  -2   5 152.265 4.92293   4
  -5  -2   5 147.820 5.68881  10
  -5  -2   5 148.450 5.53614   3
   4   2  -5 9.87992 2.10603   9
  -4  -2   5 7.89263 1.73055   4
  -4  -2   5 8.57217 2.02778  10
  -4  -2   5 5.78479 1.83360   3
   3   2  -5 82.0425 3.78119   9
  -3  -2   5 84.1107 3.85284  10
  -3  -2   5 78.6259 2.26183   5
  -3  -2   5 79.0213 3.46558   4
  -3  -2   5 80.4254 3.75208   3
   2   2  -5 32.8378 2.55689   9
   2   2  -5 36.1700 1.53468   1
  -2  -2   5 35.8713 2.70520   3
  -2  -2   5 35.6927 2.77769  10
  -2  -2   5 34.0245 2.57394   4
   1   2  -5 5.26429 1.36088   9
  -1  -2   5 7.54568 1.54781   4
  -1  -2   5 4.15458 1.42990   3
  -1  -2   5 5.90474 1.03711   1
   0   2  -5 10.7806 1.44140   9
   0  -2   5 8.76165 1.26626   1
   0  -2   5 10.2937 1.64070   4
  -1   2  -5 214.712 4.89369   2
  -1   2  -5 213.126 4.92303   9
  -1   2  -5 210.962 4.90472   7
   1  -2   5 220.026 5.03543   1
   1  -2   5 218.900 4.29299   8
   1  -2   5 216.605 5.60744   4
  -2   2  -5 60.5322 1.83078   5
  -2   2  -5 62.3927 2.48253   7
  -2   2  -5 59.0776 2.44586   2
   2  -2   5 65.6167 2.86576   1
   2  -2   5 57.9123 3.00048   4
   2  -2   5 63.6270 2.28230   8
  -3   2  -5 1.21182 1.09256   2
  -3   2  -5 -0.0630 1.04995   7
   3  -2   5 0.20345 1.08129   8
   3  -2   5 1.10379 1.35897   4
   3  -2   5 0.55876 1.31503   1
  -4   2  -5 5.64248 1.30965   2
  -4   2  -5 2.86901 1.27387   7
   4  -2   5 6.95223 1.52604   8
   4  -2   5 4.82831 1.55527   4
   4  -2   5 3.84337 1.65180   1
  -5   2  -5 4.91637 1.45359   2
  -5   2  -5 5.42018 1.46133   7
   5  -2   5 1.00915 1.50199   8
   5  -2   5 3.86828 1.61474   1
   5  -2   5 3.92516 1.64135   4
  -6   2  -5 62.8661 3.37992   7
  -6   2  -5 58.3668 3.85572  10
  -6   2  -5 58.1633 3.11568   2
   6  -2   5 63.3043 3.66862   4
   6  -2   5 64.5835 3.65797   1
   6  -2   5 61.8345 3.68239   8
  -7   2  -5 1.36085 1.64084   7
  -7   2  -5 0.39749 1.50424   2
  -7   2  -5 3.21174 1.96483  10
   7  -2   5 -0.1787 1.67562   4
   7  -2   5 0.04432 1.81424   8
   7  -2   5 1.78641 1.78622   1
  -8   2  -5 185.580 6.35119   3
  -8   2  -5 184.270 5.76516   2
  -8   2  -5 183.885 6.49539  10
  -8   2  -5 181.679 6.21157   7
   8  -2   5 176.260 6.36326   8
   8  -2   5 185.404 6.22857   4
   8  -2   5 182.202 6.14843   1
  -9   2  -5 27.4946 3.27152   7
  -9   2  -5 31.7142 3.51487  10
  -9   2  -5 30.3531 3.02832   2
  -9   2  -5 30.9654 3.39482   3
   9  -2   5 30.3790 3.30181   1
   9  -2   5 37.2390 3.84846   8
   7   1  -5 13.8189 3.08787   9
  -7  -1   5 13.6184 2.83087  10
  -7  -1   5 18.4072 2.99826   3
   6   1  -5 7.69205 2.38195   9
  -6  -1   5 8.75862 2.34835   3
  -6  -1   5 12.7091 2.52492  10
  -6  -1   5 10.4283 2.10578   6
  -6  -1   5 14.8649 2.11209   4
   5   1  -5 72.0675 4.28107   9
  -5  -1   5 64.3539 4.13456   3
  -5  -1   5 70.3002 3.65158   4
  -5  -1   5 73.5538 4.24008  10
   4   1  -5 0.00054 0.73907   8
   4   1  -5 0.60737 1.71863   9
  -4  -1   5 -0.1753 1.39091   4
  -4  -1   5 1.52133 1.68120  10
  -4  -1   5 -1.2201 1.45324   3
   3   1  -5 -0.3482 1.47961   9
  -3  -1   5 0.48574 1.53786   5
  -3  -1   5 0.28470 1.44783  10
  -3  -1   5 0.98193 1.31075   4
  -3  -1   5 -1.3763 1.27205   3
   2   1  -5 1.23456 1.38859   9
   2   1  -5 0.57827 0.73453   1
  -2  -1   5 1.56441 1.35571   3
  -2  -1   5 0.51880 1.34932  10
  -2  -1   5 1.02604 0.64969   5
  -2  -1   5 0.90569 1.36646   4
   1   1  -5 110.163 3.62939   9
  -1  -1   5 111.252 3.79928   4
  -1  -1   5 112.260 3.80781   3
   0   1  -5 25.2552 2.07776   9
   0   1  -5 31.0182 2.18393   7
   0   1  -5 29.9102 2.17090   2
   0  -1   5 29.5086 2.37396   4
   0  -1   5 29.0289 1.88618   1
  -1   1  -5 23.9901 1.85651   9
  -1   1  -5 22.4270 1.71738   2
  -1   1  -5 20.9793 0.91795   5
  -1   1  -5 21.7183 1.65778   7
   1  -1   5 21.2788 1.23854   8
   1  -1   5 27.3906 1.90318   1
   1  -1   5 19.7565 1.88991   4
  -2   1  -5 42.9908 2.20181   7
  -2   1  -5 41.5281 1.54917   5
  -2   1  -5 41.6043 2.26156   2
   2  -1   5 38.5246 2.56905   4
   2  -1   5 41.1304 2.31453   1
   2  -1   5 40.1317 1.82430   8
  -3   1  -5 3.09270 1.13412   7
  -3   1  -5 5.00439 1.18631   2
   3  -1   5 1.34622 1.30850   4
   3  -1   5 3.49054 1.24386   1
   3  -1   5 3.46818 1.13450   8
  -4   1  -5 211.015 5.08716   2
  -4   1  -5 210.894 5.28992   7
   4  -1   5 209.068 5.46371   1
   4  -1   5 214.832 5.56433   4
   4  -1   5 211.446 5.24606   8
  -5   1  -5 2.69767 1.40181   7
  -5   1  -5 2.95467 1.39954   2
   5  -1   5 2.31130 1.52002   1
   5  -1   5 0.75240 1.39894   4
   5  -1   5 5.07553 1.61707   8
  -6   1  -5 152.182 4.72396   2
  -6   1  -5 156.528 4.91891   7
  -6   1  -5 149.360 5.20510  10
   6  -1   5 149.719 4.81614   4
   6  -1   5 143.358 4.90239   1
   6  -1   5 154.733 5.09092   8
  -7   1  -5 2.65339 1.66545   2
  -7   1  -5 2.93876 1.74376   3
  -7   1  -5 1.10654 1.72673   7
  -7   1  -5 2.70656 1.84353  10
   7  -1   5 1.20801 1.76216   1
   7  -1   5 4.29391 1.65766   4
   7  -1   5 0.51201 1.82544   8
  -8   1  -5 2.61470 1.90388   3
  -8   1  -5 4.10092 2.09060  10
  -8   1  -5 1.98506 1.85143   2
  -8   1  -5 1.01866 1.84499   7
   8  -1   5 1.69806 1.92499   1
   8  -1   5 4.56423 2.10583   8
   8  -1   5 4.57076 1.81357   4
  -9   1  -5 -0.9969 1.93120   7
  -9   1  -5 4.35539 2.12557   3
  -9   1  -5 1.49098 2.11071  10
  -9   1  -5 -2.5856 1.89014   2
   9  -1   5 3.35274 2.25178   8
   9  -1   5 2.71757 2.08261   1
   7   0  -5 2.68146 2.45433   9
  -7   0   5 -1.1112 2.18085  10
  -7   0   5 -0.4330 1.71326   6
  -7   0   5 -2.5028 1.90368   3
   6   0  -5 3.08586 2.22674   9
  -6   0   5 1.55338 2.08322  10
  -6   0   5 2.72201 2.09026   3
  -6   0   5 6.01638 1.86707   6
   5   0  -5 109.384 3.16835   8
   5   0  -5 110.512 4.94095   9
  -5   0   5 107.136 4.37159   4
  -5   0   5 113.614 4.38035   6
  -5   0   5 103.561 4.73938   3
  -5   0   5 102.376 4.86970  10
   4   0  -5 2.49782 0.87971   8
   4   0  -5 1.84874 1.75641   9
  -4   0   5 0.59088 1.61904  10
  -4   0   5 4.18854 1.74898   3
  -4   0   5 -0.0232 1.46447   4
   3   0  -5 41.6068 1.61021   1
   3   0  -5 44.2320 3.08432   9
   3   0  -5 39.0169 1.43540   8
   3   0  -5 39.2104 1.98235   5
  -3   0   5 38.4096 2.83431   3
  -3   0   5 38.0257 2.90604  10
  -3   0   5 44.4139 2.83840   4
   2   0  -5 -0.4585 0.69110   5
   2   0  -5 -0.7775 1.29047   9
   2   0  -5 0.71624 0.71716   1
  -2   0   5 -0.0843 1.24011   3
  -2   0   5 -1.4758 1.20672  10
  -2   0   5 -0.5405 1.28889   4
  -2   0   5 -0.1459 0.74776   5
   1   0  -5 0.52109 0.59214   5
   1   0  -5 1.29405 1.31853   9
  -1   0   5 0.94886 1.19265  10
  -1   0   5 0.91580 1.18233   3
  -1   0   5 1.60557 0.60916   5
  -1   0   5 0.64499 1.22719   4
   0   0  -5 217.739 5.33098   7
   0   0  -5 240.274 5.51046   9
   0   0  -5 231.246 4.11075   8
   0   0  -5 233.016 4.15285   5
   0   0  -5 231.036 5.38534   2
   0   0   5 237.267 5.35478   3
   0   0   5 230.521 5.68635   4
  -1   0  -5 13.1950 1.00025   8
  -1   0  -5 11.3896 0.84164   5
  -1   0  -5 13.9117 1.49877   7
  -1   0  -5 9.84163 1.43906   2
   1   0   5 14.2244 1.51182   1
   1   0   5 16.0080 1.78823   4
   1   0   5 12.6384 1.00705   8
  -2   0  -5 767.342 13.7095   2
  -2   0  -5 770.522 13.7074   7
   2   0   5 787.725 14.1146   4
   2   0   5 756.902 13.1861   8
   2   0   5 759.488 13.7322   1
  -3   0  -5 5.48688 1.27935   2
  -3   0  -5 4.90449 1.29601   7
   3   0   5 4.25317 1.36213   1
   3   0   5 7.72355 1.43043   4
   3   0   5 4.62213 1.15807   8
  -4   0  -5 291.954 6.49754   2
  -4   0  -5 289.867 6.56386   7
   4   0   5 283.839 6.45987   8
   4   0   5 293.778 6.60692   4
   4   0   5 288.974 6.65014   1
  -5   0  -5 64.8322 3.18501   2
  -5   0  -5 54.5639 3.00843   7
   5   0   5 56.2897 3.06527   1
   5   0   5 61.3344 2.95196   4
   5   0   5 57.3607 3.15663   8
  -6   0  -5 94.9874 4.01056  10
  -6   0  -5 100.697 4.21449   7
  -6   0  -5 100.441 4.05053   2
   6   0   5 85.2209 3.96729   8
   6   0   5 93.2784 3.62066   4
   6   0   5 100.879 4.10914   1
  -7   0  -5 73.1063 3.95386  10
  -7   0  -5 71.9830 3.95186   7
  -7   0  -5 72.3867 3.83777   2
  -7   0  -5 74.9243 3.74276   3
   7   0   5 76.3140 3.98851   8
   7   0   5 76.4663 3.49838   4
   7   0   5 72.6154 3.80376   1
  -8   0  -5 19.6835 2.60053   2
  -8   0  -5 19.0255 2.62832   7
  -8   0  -5 13.2545 2.41499  10
  -8   0  -5 18.8623 2.48089   3
   8   0   5 18.7890 2.70288   8
   8   0   5 21.7634 2.52032   1
   8   0   5 18.6613 2.12419   4
  -9   0  -5 16.7309 2.87248   7
  -9   0  -5 16.3551 2.60583   3
  -9   0  -5 21.4345 2.89299   2
  -9   0  -5 19.0825 2.85334  10
   9   0   5 18.4932 3.00519   8
   9   0   5 14.3078 2.43670   1
   7  -1  -5 -1.5230 2.20005   9
  -7   1   5 -0.4175 1.74362   6
  -7   1   5 -1.9330 1.96859   3
  -7   1   5 -2.7462 2.04802  10
   6  -1  -5 2.42083 2.20123   9
  -6   1   5 -0.0472 2.03601  10
  -6   1   5 2.65871 2.00160   3
  -6   1   5 1.73488 1.78213   6
   5  -1  -5 8.55561 2.39562   9
   5  -1  -5 9.65727 1.42743   8
   5  -1  -5 7.88428 1.59700   5
  -5   1   5 6.83867 1.87393   6
  -5   1   5 9.85371 2.28641   3
  -5   1   5 8.60866 2.20624  10
  -5   1   5 6.13475 1.89180   4
   4  -1  -5 0.61002 1.00236   8
   4  -1  -5 -0.3327 1.13457   5
   4  -1  -5 0.66647 1.69534   9
   4  -1  -5 0.94798 0.83574   1
  -4   1   5 -2.2097 1.41034  10
  -4   1   5 -0.7953 1.54367   3
  -4   1   5 -0.5498 1.51600   4
  -4   1   5 -0.4924 1.42526   6
   3  -1  -5 -0.1090 0.80145   8
   3  -1  -5 1.43249 1.03076   5
   3  -1  -5 -1.4153 1.43274   9
  -3   1   5 -0.7788 1.31016   4
  -3   1   5 -2.0881 1.35742  10
  -3   1   5 -2.6640 1.37072   3
   2  -1  -5 39.1461 2.74731   9
   2  -1  -5 39.5004 1.82846   5
  -2   1   5 42.6134 2.66983  10
  -2   1   5 39.5818 2.85499   4
  -2   1   5 39.9031 2.66982   3
   1  -1  -5 12.6519 1.64043   2
   1  -1  -5 11.6326 1.67761   9
   1  -1  -5 12.1362 1.06892   5
  -1   1   5 10.7094 1.46645   3
  -1   1   5 8.40698 1.41712  10
  -1   1   5 14.0974 1.80029   4
  -1   1   5 13.7809 1.06689   5
   0  -1  -5 7.10378 0.80939   8
   0  -1  -5 6.72721 1.29436   7
   0  -1  -5 6.01587 0.86688   5
   0  -1  -5 6.37735 1.38495   9
   0  -1  -5 7.59357 1.45933   2
   0   1   5 5.54865 1.17854   3
   0   1   5 4.62960 1.34201   4
  -1  -1  -5 -0.1322 1.21847   2
  -1  -1  -5 0.70165 1.12817   7
  -1  -1  -5 1.56093 0.72724   5
  -1  -1  -5 0.60109 0.69323   8
   1   1   5 0.36700 1.14346   4
   1   1   5 0.11520 0.77285   8
   1   1   5 0.71609 0.90108   3
  -2  -1  -5 187.020 4.62677   7
  -2  -1  -5 184.014 4.65452   2
   2   1   5 184.893 4.16900   8
   2   1   5 177.828 4.69740   4
  -3  -1  -5 211.578 5.20416   7
  -3  -1  -5 214.011 5.17511   2
   3   1   5 212.637 4.44285   3
   3   1   5 202.035 5.11827   1
   3   1   5 205.936 4.90636   8
   3   1   5 217.997 5.14943   4
  -4  -1  -5 57.7089 2.83147   7
  -4  -1  -5 50.7149 2.80202   2
   4   1   5 53.4601 2.60077   4
   4   1   5 51.4455 2.78279   1
   4   1   5 53.1469 2.63920   8
  -5  -1  -5 3.50198 1.54988   2
  -5  -1  -5 2.79818 1.44336   7
   5   1   5 4.68507 1.33495   4
   5   1   5 2.46751 1.48551   1
   5   1   5 7.08324 1.70493   8
   5   1   5 -0.3749 0.81241   6
  -6  -1  -5 18.2112 2.28332   7
  -6  -1  -5 17.7062 1.87227   3
  -6  -1  -5 17.6299 2.26649   2
  -6  -1  -5 16.8533 2.01885  10
   6   1   5 19.8059 1.39503   6
   6   1   5 18.7072 2.22015   1
   6   1   5 19.0431 1.85574   4
   6   1   5 16.9334 2.20163   8
  -7  -1  -5 295.253 7.48934  10
  -7  -1  -5 313.999 7.24372   3
  -7  -1  -5 305.967 8.09397   7
  -7  -1  -5 306.575 7.82949   2
   7   1   5 301.804 7.89328   8
   7   1   5 317.813 7.67063   1
   7   1   5 305.349 6.84910   4
  -8  -1  -5 -2.0922 1.52660   3
  -8  -1  -5 -0.9495 1.73631  10
  -8  -1  -5 -1.8552 1.82360   7
  -8  -1  -5 -0.7035 1.95448   2
   8   1   5 1.69844 1.76100   1
   8   1   5 -2.0532 1.88059   8
  -9  -1  -5 -0.9363 2.11429   2
  -9  -1  -5 0.01357 1.84296   3
  -9  -1  -5 -1.5508 1.89595  10
  -9  -1  -5 -1.2889 2.10453   7
   9   1   5 -1.5137 1.78551   1
   9   1   5 2.54965 2.30169   8
   7  -2  -5 10.0331 2.84440   9
  -7   2   5 5.96247 2.66962  10
  -7   2   5 9.66451 2.60983   3
  -7   2   5 8.45231 2.34708   6
   6  -2  -5 7.82572 2.51488   9
   6  -2  -5 8.58280 1.92380   5
   6  -2  -5 3.90685 1.72352   8
  -6   2   5 2.37561 2.10719   3
  -6   2   5 6.87626 2.32624  10
  -6   2   5 7.12041 2.03536   6
   5  -2  -5 4.66571 2.08990   9
   5  -2  -5 7.46112 1.54282   8
   5  -2  -5 8.82038 1.75262   5
  -5   2   5 7.94753 2.18690  10
  -5   2   5 7.31911 1.89717   6
  -5   2   5 4.77066 2.03905   3
   4  -2  -5 14.2768 1.41350   1
   4  -2  -5 14.2732 2.27989   9
   4  -2  -5 10.8393 1.66762   5
   4  -2  -5 14.6604 1.60955   8
  -4   2   5 14.3385 2.25163  10
  -4   2   5 15.0447 2.13207   6
  -4   2   5 9.74946 2.07027   4
  -4   2   5 14.2387 2.17944   3
   3  -2  -5 5.83934 1.33414   5
   3  -2  -5 7.95235 1.89511   9
  -3   2   5 7.52032 1.68570  10
  -3   2   5 9.62790 1.76279   6
  -3   2   5 7.53884 1.74006   3
  -3   2   5 6.96094 1.84430   4
   2  -2  -5 103.704 4.01066   9
   2  -2  -5 113.187 3.25164   5
  -2   2   5 108.853 4.08405   4
  -2   2   5 116.180 3.93518   3
  -2   2   5 113.068 3.92538  10
   1  -2  -5 -0.2969 1.27614   9
   1  -2  -5 -0.4704 1.20725   2
   1  -2  -5 0.26112 0.91663   5
  -1   2   5 0.47713 1.08590   3
  -1   2   5 -0.5655 1.27435   4
  -1   2   5 0.99460 1.14060  10
   0  -2  -5 792.182 13.6256   8
   0  -2  -5 809.113 14.5624   2
   0  -2  -5 803.455 14.6837   9
   0  -2  -5 798.928 13.7348   5
   0  -2  -5 809.138 14.5579   7
   0   2   5 796.602 14.8150   4
   0   2   5 829.611 14.1064   3
   0   2   5 815.619 14.2456  10
  -1  -2  -5 237.024 5.46083   7
  -1  -2  -5 227.361 5.50014   2
  -1  -2  -5 229.915 4.79278   5
   1   2   5 230.371 5.57753   4
   1   2   5 229.989 4.73589   3
  -2  -2  -5 85.1154 3.17795   2
  -2  -2  -5 82.0106 3.07819   7
   2   2   5 84.5870 2.72184   8
   2   2   5 78.5489 3.04095   4
  -3  -2  -5 48.8447 2.67746   7
  -3  -2  -5 53.8941 2.75564   2
   3   2   5 52.5738 2.46844   8
   3   2   5 54.5615 2.50822   4
   3   2   5 53.6472 1.73951   3
  -4  -2  -5 0.71353 1.35678   2
  -4  -2  -5 1.03670 1.23801   7
   4   2   5 1.79540 0.75991   3
   4   2   5 1.03705 1.08481   4
   4   2   5 0.14207 1.21263   8
  -5  -2  -5 14.4115 1.99278   2
  -5  -2  -5 11.4644 1.83198   7
   5   2   5 10.8359 1.78899   8
   5   2   5 15.9175 1.58064   4
  -6  -2  -5 55.9517 2.89365  10
  -6  -2  -5 50.1960 3.32478   7
  -6  -2  -5 52.4170 3.42608   2
  -6  -2  -5 52.4947 2.56078   3
   6   2   5 50.5362 3.31678   8
   6   2   5 52.7841 2.48828   4
   6   2   5 51.6851 1.61236   6
  -7  -2  -5 114.726 4.87902   2
  -7  -2  -5 119.681 3.97848   3
  -7  -2  -5 117.782 4.34563  10
  -7  -2  -5 119.523 4.96917   7
   7   2   5 117.533 3.48617   4
   7   2   5 108.163 4.64601   8
  -8  -2  -5 0.23877 1.69815  10
  -8  -2  -5 2.77984 2.11813   2
  -8  -2  -5 2.24533 1.59711   3
  -8  -2  -5 -0.5862 1.92469   7
   8   2   5 0.57526 1.98376   8
  -9  -2  -5 9.78219 2.64048   2
  -9  -2  -5 11.3477 2.44016  10
  -9  -2  -5 10.7350 2.70698   7
   9   2   5 9.93875 2.63063   8
   7  -3  -5 2.96483 2.36235   9
   7  -3  -5 1.37031 1.93888   5
  -7   3   5 -0.7193 2.15999   3
  -7   3   5 1.89718 2.09204   6
  -7   3   5 -0.9716 2.27934  10
   6  -3  -5 12.1929 2.06015   8
   6  -3  -5 11.7175 2.59129   9
  -6   3   5 11.8343 2.37307   6
  -6   3   5 8.88814 2.42412   3
  -6   3   5 8.14373 2.49984  10
   5  -3  -5 29.1853 2.23244   1
   5  -3  -5 32.7217 3.27564   9
   5  -3  -5 25.3947 2.32346   8
   5  -3  -5 24.4584 2.41529   5
  -5   3   5 29.6764 2.87718   6
  -5   3   5 27.3094 2.96242   3
  -5   3   5 25.7463 2.88371  10
   4  -3  -5 117.693 4.96162   9
   4  -3  -5 124.731 4.25279   5
   4  -3  -5 127.817 3.73486   1
  -4   3   5 130.989 4.87174   3
  -4   3   5 118.440 4.78465  10
  -4   3   5 125.117 4.69806   6
   3  -3  -5 4.75968 1.81295   9
   3  -3  -5 6.99715 1.54986   5
  -3   3   5 4.27659 1.65745   6
  -3   3   5 6.28619 1.69390  10
  -3   3   5 6.74654 1.68767   3
  -3   3   5 6.11337 1.82644   4
   2  -3  -5 159.045 4.93340   9
   2  -3  -5 161.775 4.33244   5
  -2   3   5 159.050 5.12089   4
  -2   3   5 167.989 4.70454  10
  -2   3   5 168.129 4.77483   3
  -2   3   5 156.663 4.85257   6
   1  -3  -5 93.3411 3.43993   2
   1  -3  -5 95.7875 3.04088   5
   1  -3  -5 92.6234 3.62891   9
  -1   3   5 92.3522 3.72429   4
  -1   3   5 92.3126 3.24127  10
  -1   3   5 88.6274 3.13984   3
  -1   3   5 91.5728 3.52286   6
   0  -3  -5 2.37696 1.15927   7
   0  -3  -5 0.09729 1.23780   2
   0  -3  -5 0.33721 1.25501   9
   0  -3  -5 1.67635 1.02543   5
   0   3   5 0.07260 1.29967   4
   0   3   5 1.73095 0.95397  10
   0   3   5 3.07646 0.97197   3
  -1  -3  -5 23.8401 1.92314   7
  -1  -3  -5 19.2067 1.84370   2
  -1  -3  -5 24.3438 1.82497   5
   1   3   5 27.8017 1.61156  10
   1   3   5 22.6760 1.94448   4
   1   3   5 24.6052 1.43354   3
  -2  -3  -5 26.2990 1.99965   7
  -2  -3  -5 27.4214 1.86081   5
  -2  -3  -5 28.7718 2.14433   2
   2   3   5 28.5757 2.07975   4
   2   3   5 28.1674 1.18896   3
  -3  -3  -5 1.68512 1.32293   2
  -3  -3  -5 2.49791 1.26477   7
   3   3   5 1.39878 0.72650  10
   3   3   5 2.77348 1.28713   8
   3   3   5 2.00230 1.18365   4
  -4  -3  -5 1.73228 1.51401   2
  -4  -3  -5 -0.6516 1.20951   7
   4   3   5 1.70864 1.35728   8
   4   3   5 0.11816 1.00627   4
   4   3   5 -1.4292 0.51533   3
   4   3   5 0.33477 0.70421  10
  -5  -3  -5 0.67197 1.40752   7
  -5  -3  -5 1.15888 1.61810   2
   5   3   5 0.68207 0.72806   3
   5   3   5 1.45523 1.54628   8
   5   3   5 1.08978 1.00894   4
   5   3   5 1.20264 0.69999   6
  -6  -3  -5 26.1650 2.61017   2
  -6  -3  -5 33.6423 2.24456  10
  -6  -3  -5 25.6014 2.55854   7
   6   3   5 26.2397 2.62458   8
   6   3   5 28.7385 1.83235   4
  -7  -3  -5 94.4591 3.34193   3
  -7  -3  -5 94.6079 3.75604  10
  -7  -3  -5 90.9235 4.53295   7
  -7  -3  -5 96.9106 4.59611   2
   7   3   5 87.2742 4.38165   8
  -8  -3  -5 0.84161 2.13787   2
  -8  -3  -5 1.48513 1.64324  10
  -8  -3  -5 -1.1359 2.01816   7
   8   3   5 -2.2492 2.07056   8
  -9  -3  -5 2.43890 1.96138  10
  -9  -3  -5 6.53026 2.59065   2
  -9  -3  -5 6.93928 2.56950   7
   9   3   5 6.77153 2.59424   8
   6  -4  -5 18.1841 2.46875   5
   6  -4  -5 27.1964 2.65637   8
   6  -4  -5 23.1818 3.12850   9
  -6   4   5 29.6238 3.29476  10
  -6   4   5 19.9494 2.85747   6
  -6   4   5 16.9824 2.87344   3
   5  -4  -5 25.4256 2.16684   1
   5  -4  -5 28.1381 3.12169   9
   5  -4  -5 25.3671 2.46796   8
   5  -4  -5 26.5310 2.52741   5
  -5   4   5 22.1587 2.78744  10
  -5   4   5 27.2410 2.83434   6
  -5   4   5 26.8948 3.01344   3
   4  -4  -5 10.1104 1.64747   1
   4  -4  -5 7.51350 2.09520   9
   4  -4  -5 13.2037 1.96899   5
  -4   4   5 8.78919 2.06968   3
  -4   4   5 9.02051 2.10861   6
  -4   4   5 7.40353 2.10034  10
   3  -4  -5 99.8810 3.82324   5
   3  -4  -5 108.204 3.68354   1
   3  -4  -5 104.435 4.36027   9
  -3   4   5 110.063 4.30424   3
  -3   4   5 108.466 4.27495  10
  -3   4   5 104.853 4.47062   6
   2  -4  -5 1.09965 1.47592   9
   2  -4  -5 -0.5476 1.28581   5
  -2   4   5 1.43857 1.46442   6
  -2   4   5 -0.2580 1.25316  10
  -2   4   5 -0.5800 1.32053   3
  -2   4   5 -0.6327 1.49644   4
   1  -4  -5 2.39727 1.37429   2
   1  -4  -5 2.67571 1.48204   9
   1  -4  -5 1.35876 1.25175   5
  -1   4   5 2.21357 1.16312   3
  -1   4   5 3.43711 1.18184  10
  -1   4   5 3.12016 1.48351   6
  -1   4   5 0.58753 1.50007   4
   0  -4  -5 37.3066 2.71334   2
   0  -4  -5 32.1494 2.56293   9
   0  -4  -5 32.4049 2.39547   7
   0  -4  -5 38.6126 2.27252   5
   0   4   5 35.8140 2.46422   6
   0   4   5 38.9437 2.75308   4
   0   4   5 31.5353 1.92597   3
   0   4   5 36.4016 1.93790  10
  -1  -4  -5 0.70977 1.26210   2
  -1  -4  -5 1.08641 1.12879   5
  -1  -4  -5 2.89813 1.29283   7
   1   4   5 2.62245 1.20247   6
   1   4   5 1.69887 0.81053  10
   1   4   5 3.73057 0.79509   3
   1   4   5 2.45837 1.35400   4
  -2  -4  -5 40.3906 2.54585   7
  -2  -4  -5 38.0532 2.62173   2
  -2  -4  -5 40.1939 2.36597   5
   2   4   5 35.4541 2.22213   6
   2   4   5 41.5711 1.48638  10
   2   4   5 38.5087 2.49435   4
  -3  -4  -5 3.44988 1.47833   2
  -3  -4  -5 3.35512 1.35034   7
  -3  -4  -5 6.83851 1.38540   5
   3   4   5 4.37505 1.24573   4
   3   4   5 4.85935 0.68306  10
   3   4   5 3.79214 1.10412   6
  -4  -4  -5 0.40907 1.30309   7
  -4  -4  -5 -0.7098 1.52123   2
   4   4   5 0.52599 0.64970  10
   4   4   5 0.65249 0.87213   6
   4   4   5 0.72914 1.00963   4
   4   4   5 0.97207 1.54115   8
  -5  -4  -5 -0.0505 1.50297   7
  -5  -4  -5 1.30602 1.64524   2
  -5  -4  -5 0.58056 0.86161   4
   5   4   5 2.49890 1.77799   8
   5   4   5 -0.0941 0.67579   6
   5   4   5 0.04178 0.92396   4
   5   4   5 1.07798 0.78372  10
  -6  -4  -5 7.51766 1.96115   7
  -6  -4  -5 4.46017 1.97300   2
   6   4   5 6.29935 0.97521   4
   6   4   5 4.30126 1.92265   8
  -7  -4  -5 10.3019 2.34658   2
  -7  -4  -5 8.83959 1.64224  10
  -7  -4  -5 7.55397 2.18723   7
   7   4   5 10.2605 2.32725   8
  -8  -4  -5 14.8009 2.64428   7
  -8  -4  -5 8.74773 2.48980   2
   8   4   5 7.82342 2.45298   8
  -9  -4  -5 37.0363 3.91230   2
  -9  -4  -5 35.4007 3.79887   7
   9   4   5 33.1680 3.65978   8
   6  -5  -5 38.6243 3.30962   8
   6  -5  -5 35.3501 3.17571   5
   6  -5  -5 32.2466 3.46069   9
  -6   5   5 44.7494 3.91999   3
  -6   5   5 39.3248 3.79872  10
  -6   5   5 33.0768 3.45435   6
   5  -5  -5 2.11766 2.01274   9
   5  -5  -5 6.49793 1.99168   5
   5  -5  -5 3.29773 1.63013   1
  -5   5   5 9.44577 2.23207  10
  -5   5   5 3.53699 2.05618   3
  -5   5   5 5.82337 2.14037   6
   4  -5  -5 6.44069 2.08213   9
   4  -5  -5 2.20941 1.48183   1
   4  -5  -5 0.88695 1.65151   5
  -4   5   5 5.15699 1.88798  10
  -4   5   5 -0.0172 1.77665   3
  -4   5   5 1.97128 1.81622   6
   3  -5  -5 6.78656 1.71219   1
   3  -5  -5 7.85109 1.83001   5
   3  -5  -5 8.85382 2.03535   9
  -3   5   5 8.18211 1.82278  10
  -3   5   5 9.38555 1.99934   3
  -3   5   5 7.15697 1.95829   6
   2  -5  -5 11.0488 1.99122   9
   2  -5  -5 12.0884 1.87586   2
   2  -5  -5 15.0669 1.97253   5
  -2   5   5 17.1045 2.20831   6
  -2   5   5 17.3255 2.00707   3
  -2   5   5 12.1024 1.82067  10
   1  -5  -5 20.9741 2.03462   5
   1  -5  -5 21.6681 2.27303   9
   1  -5  -5 20.9442 2.05903   2
  -1   5   5 21.0189 1.80573  10
  -1   5   5 16.3538 2.07305   6
  -1   5   5 20.4618 1.80903   3
   0  -5  -5 115.451 4.06181   9
   0  -5  -5 116.862 3.87560   7
   0  -5  -5 117.418 3.88553   5
   0  -5  -5 120.986 4.13358   2
   0   5   5 115.250 4.20133   6
   0   5   5 112.372 4.24146   4
   0   5   5 119.687 3.30036  10
   0   5   5 118.549 3.29301   3
  -1  -5  -5 126.966 4.24937   2
  -1  -5  -5 121.211 3.98327   7
  -1  -5  -5 118.042 2.85905   3
  -1  -5  -5 123.436 3.89816   5
   1   5   5 126.196 4.11478   6
   1   5   5 127.582 4.29267   4
   1   5   5 124.460 2.93913  10
   1   5   5 118.774 2.90711   3
  -2  -5  -5 7.26801 1.51981   5
  -2  -5  -5 7.64368 1.58852   7
  -2  -5  -5 5.91005 1.63090   2
   2   5   5 5.36791 1.50267   4
   2   5   5 10.9224 1.53945   6
  -3  -5  -5 24.5716 2.12155   7
  -3  -5  -5 23.6945 2.29080   2
  -3  -5  -5 31.2710 2.36862   5
   3   5   5 29.9499 2.31330   4
   3   5   5 28.7614 2.01553   6
  -4  -5  -5 139.039 4.66965   7
  -4  -5  -5 138.055 4.84914   2
   4   5   5 140.014 3.60032   6
   4   5   5 143.815 3.86062   4
  -5  -5  -5 1.43836 1.78398   2
  -5  -5  -5 4.40856 1.67907   7
   5   5   5 2.42726 0.78571   6
   5   5   5 0.47581 1.79218   8
  -6  -5  -5 1.91482 1.78153   7
  -6  -5  -5 0.08285 1.97564   2
   6   5   5 -0.8777 1.81273   8
  -7  -5  -5 6.07280 2.27154   2
  -7  -5  -5 7.71362 2.26066   7
   7   5   5 11.4594 2.42844   8
  -8  -5  -5 23.8546 3.09127   7
  -8  -5  -5 22.3532 3.18770   2
   8   5   5 27.0785 3.23856   8
  -9  -5  -5 -0.9655 2.46320   2
  -9  -5  -5 -4.1835 2.18832   7
   9   5   5 0.64811 2.48591   8
   5  -6  -5 4.62677 2.17768   9
   5  -6  -5 2.70357 2.01559   5
   5  -6  -5 6.31545 1.87307   1
  -5   6   5 5.26981 2.29790   6
  -5   6   5 3.45356 2.14583   3
  -5   6   5 6.06176 2.18895  10
   4  -6  -5 31.1695 2.90139   5
   4  -6  -5 34.6436 2.83668   1
   4  -6  -5 32.4813 3.09313   9
  -4   6   5 36.0351 3.38966   6
  -4   6   5 30.8874 3.03335  10
  -4   6   5 27.7968 2.94435   3
   3  -6  -5 33.5664 2.85126   5
   3  -6  -5 33.2802 2.73047   1
   3  -6  -5 32.4357 2.86043   9
  -3   6   5 31.2576 2.63891  10
  -3   6   5 32.3964 2.84916   3
  -3   6   5 24.4459 2.68477   6
   2  -6  -5 9.15802 1.70455   2
   2  -6  -5 6.05933 1.75358   9
   2  -6  -5 5.27017 1.70706   5
  -2   6   5 4.53700 1.75344   6
  -2   6   5 5.11486 1.47507  10
  -2   6   5 3.58221 1.52363   3
   1  -6  -5 15.7063 1.98164   2
   1  -6  -5 13.8361 2.05687   9
   1  -6  -5 15.9203 2.09302   5
  -1   6   5 15.3697 1.73155   3
  -1   6   5 15.9762 1.67063  10
  -1   6   5 15.2673 2.18254   6
   0  -6  -5 231.633 6.00502   5
   0  -6  -5 232.892 5.86546   7
   0  -6  -5 227.222 5.94606   2
   0  -6  -5 226.267 5.94435   9
   0   6   5 227.038 6.18999   6
   0   6   5 224.701 5.14751   3
   0   6   5 231.893 5.01620  10
  -1  -6  -5 55.3114 3.11821   2
  -1  -6  -5 59.0548 1.98504   3
  -1  -6  -5 58.3712 3.18585   9
  -1  -6  -5 59.0103 3.13259   7
  -1  -6  -5 59.8614 3.00372   5
   1   6   5 58.7940 1.86169  10
   1   6   5 58.5425 2.02081   3
   1   6   5 55.2859 3.12430   6
  -2  -6  -5 72.2188 3.29933   5
  -2  -6  -5 67.4608 3.24505   7
  -2  -6  -5 66.1610 3.50315   2
   2   6   5 73.0640 3.20892   6
  -3  -6  -5 16.6107 2.13340   2
  -3  -6  -5 18.4591 2.10651   5
  -3  -6  -5 17.4632 1.98614   7
   3   6   5 14.8947 1.62357   6
  -4  -6  -5 92.2338 4.18062   2
  -4  -6  -5 90.7710 3.92322   7
  -4  -6  -5 82.3197 3.79653   5
   4   6   5 89.9569 2.97873   6
  -5  -6  -5 7.18072 1.92695   7
  -5  -6  -5 10.9655 2.28815   2
   5   6   5 10.8579 1.13240   6
  -6  -6  -5 10.6888 2.24271   7
  -6  -6  -5 8.88155 2.37600   2
  -7  -6  -5 50.3725 4.06850   7
  -7  -6  -5 42.9963 3.76212   2
   7   6   5 48.6775 3.80856   8
  -8  -6  -5 63.8320 4.80393   2
  -8  -6  -5 69.3587 4.62498   7
   8   6   5 57.4458 4.40996   8
   5  -7  -5 6.28574 2.31446   5
   5  -7  -5 6.79283 2.24484   9
   5  -7  -5 9.22545 2.17384   1
  -5   7   5 3.24598 2.33529   6
  -5   7   5 3.97593 2.16102  10
  -5   7   5 4.59720 2.34996   3
   4  -7  -5 3.32155 1.90814   9
   4  -7  -5 1.03960 1.81281   1
   4  -7  -5 3.49001 2.00161   5
  -4   7   5 2.51044 1.83001  10
  -4   7   5 4.60887 2.22873   6
  -4   7   5 3.35745 1.99841   3
   3  -7  -5 25.2310 2.67722   1
   3  -7  -5 20.1089 2.61850   5
   3  -7  -5 20.0249 2.54862   9
  -3   7   5 25.7710 3.01353   6
  -3   7   5 21.7666 2.55319   3
  -3   7   5 21.0508 2.42795  10
   2  -7  -5 20.3272 2.34429   9
   2  -7  -5 17.3399 2.30879   5
   2  -7  -5 19.9991 2.47484   1
  -2   7   5 20.3490 2.23962   3
  -2   7   5 18.7602 2.07810  10
  -2   7   5 17.8362 2.53490   6
   1  -7  -5 17.5343 2.00722   2
   1  -7  -5 19.0740 2.21657   9
   1  -7  -5 19.2433 2.33519   5
  -1   7   5 16.6486 1.92379   3
  -1   7   5 17.3226 1.72715  10
  -1   7   5 17.0173 2.35656   6
   0  -7  -5 59.3840 3.38951   5
   0  -7  -5 63.5886 3.32973   9
   0  -7  -5 57.6631 3.16855   7
   0  -7  -5 59.3236 3.28745   2
   0   7   5 56.6988 3.59331   6
   0   7   5 57.0211 2.33111  10
   0   7   5 63.1596 2.63089   3
  -1  -7  -5 72.6609 3.28952   7
  -1  -7  -5 76.6753 3.60095   5
  -1  -7  -5 66.8926 3.48107   2
  -1  -7  -5 68.0958 3.44003   9
   1   7   5 69.8685 3.49239   6
  -2  -7  -5 10.0564 1.98698   5
  -2  -7  -5 12.3039 1.82473   7
  -2  -7  -5 15.8917 2.11912   2
   2   7   5 12.0925 1.88014   6
  -3  -7  -5 3.56199 1.77900   2
  -3  -7  -5 2.57527 1.72528   5
  -3  -7  -5 4.72908 1.62694   7
   3   7   5 2.73556 1.36996   6
  -4  -7  -5 5.78594 1.88020   5
  -4  -7  -5 5.96490 1.77445   7
  -4  -7  -5 7.02132 2.05178   2
   4   7   5 7.02798 1.38075   6
  -5  -7  -5 7.26231 2.21669   2
  -5  -7  -5 7.28078 1.97399   5
  -5  -7  -5 7.99292 1.98214   7
  -6  -7  -5 86.5588 4.49677   7
  -6  -7  -5 90.5465 4.24649   5
  -6  -7  -5 89.1040 4.82375   2
  -7  -7  -5 72.1710 4.86036   2
  -7  -7  -5 75.7376 4.73805   7
  -8  -7  -5 -4.3359 2.54316   2
  -8  -7  -5 -1.5446 2.12922   7
   4  -8  -5 2.00905 1.88566   9
   4  -8  -5 -0.9651 1.81912   1
   4  -8  -5 -2.5149 1.74583   5
  -4   8   5 4.28679 2.31983   6
  -4   8   5 2.74804 1.89628  10
  -4   8   5 0.30086 1.99001   3
   3  -8  -5 35.3679 3.06111   9
   3  -8  -5 35.3652 3.20044   5
   3  -8  -5 29.1759 3.03739   1
  -3   8   5 27.8080 2.86712   3
  -3   8   5 31.4400 2.76938  10
  -3   8   5 38.3984 3.73005   6
   2  -8  -5 -0.1417 1.80001   1
   2  -8  -5 2.50496 1.88573   5
   2  -8  -5 3.14667 1.72994   9
  -2   8   5 2.15682 1.56636   3
  -2   8   5 0.89042 1.40907  10
  -2   8   5 -0.6671 1.90104   6
   1  -8  -5 2.20873 1.59041   9
   1  -8  -5 1.18352 1.74038   1
   1  -8  -5 0.22078 1.39681   2
   1  -8  -5 2.45965 1.90521   5
  -1   8   5 0.51252 1.33987   3
  -1   8   5 0.51071 1.80561   6
  -1   8   5 -0.5814 1.15903  10
   0  -8  -5 12.6281 2.18153   5
   0  -8  -5 13.5461 2.08088   9
   0  -8  -5 15.6318 2.03813   2
   0   8   5 13.0941 1.59928   3
   0   8   5 12.2574 2.22907   6
  -1  -8  -5 77.4124 3.60891   9
  -1  -8  -5 84.3490 4.08696   5
  -1  -8  -5 74.1832 3.50731   7
  -1  -8  -5 75.8790 3.78003   2
   1   8   5 71.7187 3.75172   6
  -2  -8  -5 26.9428 2.58466   5
  -2  -8  -5 31.0414 2.42170   7
  -2  -8  -5 26.0374 2.53783   2
   2   8   5 31.5822 2.57438   6
  -3  -8  -5 -1.0024 1.38560   7
  -3  -8  -5 -2.4372 1.48566   5
  -3  -8  -5 0.95674 1.72812   2
   3   8   5 0.69892 1.39996   6
  -4  -8  -5 132.725 5.04792   5
  -4  -8  -5 138.443 4.71631   7
  -4  -8  -5 130.260 5.15982   2
   4   8   5 126.699 4.11100   6
  -5  -8  -5 22.1815 2.87774   2
  -5  -8  -5 20.5139 2.43621   7
  -5  -8  -5 20.8880 2.65533   5
  -6  -8  -5 2.81211 1.95300   5
  -6  -8  -5 2.95759 2.37611   2
  -6  -8  -5 0.89373 1.95164   7
  -7  -8  -5 9.01151 2.50684   7
  -7  -8  -5 10.1045 2.38017   5
  -7  -8  -5 4.68178 2.54099   2
   3  -9  -5 1.94496 2.11294   1
   3  -9  -5 4.01149 2.26538   5
  -3   9   5 1.04111 1.93002   3
  -3   9   5 3.29645 2.34136   6
   2  -9  -5 6.54527 2.24168   5
   2  -9  -5 5.15737 2.16519   1
   2  -9  -5 7.56817 1.93962   9
  -2   9   5 10.5876 2.49710   6
  -2   9   5 5.91653 1.93416   3
   1  -9  -5 5.30467 1.76500   9
   1  -9  -5 6.81629 2.17515   5
   1  -9  -5 4.31120 2.15600   1
   1  -9  -5 6.69963 1.63781   2
  -1   9   5 2.81189 1.51051   3
  -1   9   5 8.56896 2.26927   6
   0  -9  -5 36.2251 3.19214   5
   0  -9  -5 36.1333 2.67769   2
   0  -9  -5 34.9196 2.87622   9
   0   9   5 31.5409 3.19657   6
  -1  -9  -5 6.36577 1.83332   2
  -1  -9  -5 5.24997 1.63417   7
  -1  -9  -5 3.76654 1.96074   5
  -1  -9  -5 9.56901 1.89737   9
   1   9   5 7.17996 2.02444   6
  -2  -9  -5 0.08234 1.59136   9
  -2  -9  -5 3.92832 1.84807   2
  -2  -9  -5 0.47205 1.43605   7
  -2  -9  -5 3.18569 1.91135   5
   2   9   5 6.08415 1.78505   6
  -3  -9  -5 4.48807 1.95578   2
  -3  -9  -5 4.35879 1.65885   7
  -3  -9  -5 4.98799 2.10179   5
   3   9   5 4.23337 1.70290   6
  -4  -9  -5 21.1056 2.70154   2
  -4  -9  -5 20.5697 2.35731   7
  -4  -9  -5 15.1086 2.53386   5
   4   9   5 15.2814 2.19017   6
  -5  -9  -5 2.52675 1.87381   7
  -5  -9  -5 4.31744 2.13915   5
  -5  -9  -5 3.21199 2.22390   2
  -6  -9  -5 3.75944 2.38858   2
  -6  -9  -5 5.43929 2.19803   7
  -6  -9  -5 3.01194 2.12576   5
   2 -10  -5 1.70259 2.25594   5
   2 -10  -5 -2.4005 2.00189   1
  -2  10   5 2.93134 2.40685   6
   1 -10  -5 0.62164 2.04045   5
   1 -10  -5 -0.8574 2.13783   1
  -1  10   5 0.50905 2.00046   6
   0 -10  -5 0.52484 2.12010   1
   0 -10  -5 -4.5949 1.82759   5
   0  10   5 -0.1345 1.92280   6
  -1 -10  -5 17.2275 2.73969   5
  -1 -10  -5 17.7507 2.61635   2
   1  10   5 13.6970 2.49053   6
  -2 -10  -5 2.29072 1.81378   2
  -2 -10  -5 5.27050 2.16022   5
   2  10   5 1.65900 1.84480   6
  -3 -10  -5 11.6220 2.52084   5
  -3 -10  -5 13.9723 2.36720   2
   3  10   5 10.8545 2.12623   6
  -4 -10  -5 35.3011 3.44969   5
  -4 -10  -5 31.6912 3.18713   2
  -5 -10  -5 5.04625 2.39020   5
  -5 -10  -5 9.22312 2.56801   2
  -1 -11  -5 8.93722 2.65631   1
  -1 -11  -5 6.82907 2.48189   5
   1  11   5 7.72425 2.35747   6
  -2 -11  -5 33.2536 3.56672   1
  -2 -11  -5 26.8662 3.28034   5
   2  11   5 26.1828 3.02838   6
  -1  -9   6 6.65392 2.46641   4
   0  -9   6 12.2963 2.81004   4
   0  -9   6 15.4445 2.59392   1
   1  -9   6 16.8799 2.72655   1
   1  -9   6 15.1621 2.99614   4
   2  -9   6 52.8891 4.05483   1
   2  -9   6 38.7600 4.02286   4
   3  -9   6 4.73367 2.58901   4
   3  -9   6 4.09648 2.14106   8
   3  -9   6 2.76866 2.34660   1
  -3  -8   6 12.1576 2.66651   3
  -3  -8   6 6.40124 2.42810  10
  -2  -8   6 21.9275 2.97567   4
  -2  -8   6 15.6283 2.87794   3
  -1  -8   6 8.44623 2.28083   4
  -1  -8   6 4.47942 1.83457   1
   0  -8   6 2.95689 2.21457   4
   0  -8   6 5.56316 1.97711   1
   1  -8   6 6.58663 2.16164   1
   1  -8   6 5.81687 2.29425   4
   2  -8   6 11.2325 2.79508   4
   2  -8   6 20.5175 2.82531   1
   3  -8   6 0.50933 1.84549   8
   3  -8   6 0.09054 2.33662   4
   3  -8   6 4.65639 2.30045   1
   4  -8   6 50.3825 3.90462   8
   4  -8   6 53.3573 4.23337   1
   4  -8   6 56.6193 4.74068   4
   5  -8   6 117.248 5.23732   8
   5  -8   6 116.183 6.34161   4
   5  -8   6 119.609 4.70405   5
   5  -8   6 122.414 5.93290   1
  -4  -7   6 4.69255 2.39488   3
  -4  -7   6 6.36336 2.49324  10
  -3  -7   6 8.10749 2.41078  10
  -3  -7   6 3.71777 2.01198   4
  -3  -7   6 3.79133 2.31473   3
  -2  -7   6 4.51182 2.05054   4
  -2  -7   6 6.42714 2.27259   3
  -1  -7   6 3.13008 1.96864   4
  -1  -7   6 5.97301 1.77578   1
   0  -7   6 58.1647 4.20299   4
   0  -7   6 45.7475 3.33475   1
   1  -7   6 3.34648 2.14535   4
   1  -7   6 6.07800 2.06222   1
   2  -7   6 3.80856 2.12592   4
   2  -7   6 5.47393 2.10865   1
   3  -7   6 101.027 3.59226   5
   3  -7   6 102.622 4.31401   8
   3  -7   6 108.229 4.85695   1
   3  -7   6 107.055 5.33408   4
   4  -7   6 -0.7451 2.00027   1
   4  -7   6 1.06845 2.15272   4
   4  -7   6 2.11194 1.49073   5
   4  -7   6 0.81195 1.73003   8
   5  -7   6 10.9121 2.59426   1
   5  -7   6 9.71035 2.83028   4
   5  -7   6 12.5429 2.09360   5
   5  -7   6 10.5723 2.39731   8
   6  -7   6 2.20698 2.57847   4
   6  -7   6 1.54282 1.92020   5
   6  -7   6 1.10392 2.04081   8
   6  -7   6 0.11847 2.24638   1
  -5  -6   6 14.9024 2.89539  10
  -5  -6   6 11.3877 2.68721   3
  -4  -6   6 31.4880 3.42867  10
  -4  -6   6 31.8233 3.45389   3
   3   6  -6 15.6477 2.18334   9
  -3  -6   6 13.3545 2.60262   3
  -3  -6   6 16.0565 2.68053  10
  -3  -6   6 20.2245 2.60672   4
   2   6  -6 35.8273 2.61879   9
  -2  -6   6 35.6890 3.16741   4
  -2  -6   6 35.0973 3.32965   3
   1   6  -6 1.20194 1.16454   9
  -1  -6   6 2.38752 1.44123   1
  -1  -6   6 1.23926 1.77298   4
   0   6  -6 9.08603 1.28143   9
   0  -6   6 11.0692 2.28328   4
   0  -6   6 9.50391 1.85794   1
   1  -6   6 42.4252 3.55520   4
   1  -6   6 47.7217 3.23216   1
   2  -6   6 110.268 3.21335   5
   2  -6   6 107.017 4.51383   1
   2  -6   6 111.776 3.86240   8
   2  -6   6 117.734 5.11495   4
   3  -6   6 2.91885 1.26102   5
   3  -6   6 1.19009 1.87375   1
   3  -6   6 0.86710 1.87350   4
   3  -6   6 2.87786 1.58314   8
   4  -6   6 2.62394 2.11157   4
   4  -6   6 1.41200 1.69247   8
   4  -6   6 3.45005 1.47825   5
   4  -6   6 2.13160 1.94320   1
   5  -6   6 2.10608 2.06712   1
   5  -6   6 2.69376 1.55108   5
   5  -6   6 0.04515 2.09464   4
   5  -6   6 0.01206 1.87717   8
   6  -6   6 3.97348 2.42063   4
   6  -6   6 4.22849 2.26164   8
   6  -6   6 2.89773 2.23667   1
   7  -6   6 7.15632 2.73262   4
   7  -6   6 10.3095 2.56962   8
   7  -6   6 9.56244 2.70993   1
  -5  -5   6 14.3487 2.78377   3
  -5  -5   6 15.0671 2.80864  10
   4   5  -6 6.59891 1.99743   9
  -4  -5   6 3.71189 1.80421   4
  -4  -5   6 7.01123 2.25056   3
  -4  -5   6 3.22732 2.15953  10
   3   5  -6 19.6493 2.33097   9
  -3  -5   6 22.9385 2.81757  10
  -3  -5   6 25.9264 2.66146   4
  -3  -5   6 19.2306 2.68814   3
   2   5  -6 12.0058 1.80231   9
  -2  -5   6 10.2355 2.26079   3
  -2  -5   6 13.5697 2.20375   4
  -2  -5   6 11.6071 1.46673   1
   1   5  -6 37.0031 2.45582   9
  -1  -5   6 34.6257 2.96830   4
  -1  -5   6 39.0319 2.48515   1
   0   5  -6 -0.3094 1.09655   9
   0  -5   6 -0.4476 1.57081   4
   0  -5   6 -0.7200 0.91720   8
   0  -5   6 -0.1741 1.37302   1
  -1   5  -6 -0.0019 1.03367   9
   1  -5   6 1.41787 1.54746   1
   1  -5   6 -0.0857 0.70531   5
   1  -5   6 0.59161 1.16644   8
   1  -5   6 -0.2333 1.73405   4
  -2   5  -6 256.442 5.43889   9
  -2   5  -6 264.603 5.56876   7
   2  -5   6 262.215 5.99269   8
   2  -5   6 247.242 6.67115   1
   2  -5   6 248.423 7.28152   4
   2  -5   6 247.631 5.19365   5
  -3   5  -6 17.8093 1.59314   7
   3  -5   6 19.9390 1.74557   5
   3  -5   6 18.0648 2.01892   8
   3  -5   6 18.4082 2.58869   4
   3  -5   6 19.7225 2.44213   1
  -4   5  -6 18.8920 1.35349   2
  -4   5  -6 19.3662 1.73116   7
   4  -5   6 19.1067 2.70838   4
   4  -5   6 19.3788 1.91220   5
   4  -5   6 20.4216 2.30882   8
   4  -5   6 21.4491 2.59496   1
  -5   5  -6 20.7179 1.90720   7
   5  -5   6 20.4728 2.85517   4
   5  -5   6 21.3792 2.76653   1
   5  -5   6 19.3577 2.47631   8
  -6   5  -6 12.7017 1.90021   7
   6  -5   6 17.6836 2.67217   8
   6  -5   6 19.0472 2.92308   1
   6  -5   6 17.3607 2.92097   4
  -7   5  -6 -0.3271 1.65415   7
   7  -5   6 2.03602 2.17895   1
   7  -5   6 0.67763 2.28062   4
   7  -5   6 0.10438 2.04621   8
   8  -5   6 17.4391 3.19460   4
   8  -5   6 12.9423 2.88259   1
   8  -5   6 14.5931 2.89722   8
  -6  -4   6 23.3594 3.30562  10
  -6  -4   6 22.3588 3.15019   3
   5   4  -6 3.89388 2.18008   9
  -5  -4   6 6.35802 2.23691   3
  -5  -4   6 7.00587 2.46226  10
   4   4  -6 44.8260 3.64261   9
  -4  -4   6 43.7803 3.76517   3
  -4  -4   6 43.8998 3.21844   4
  -4  -4   6 37.2654 3.43656  10
   3   4  -6 15.2297 2.18136   9
  -3  -4   6 17.5782 2.57477  10
  -3  -4   6 12.4390 2.31091   3
  -3  -4   6 16.4587 2.34811   4
   2   4  -6 6.92374 1.72973   9
  -2  -4   6 9.58743 2.00760   4
  -2  -4   6 9.80829 1.32445   1
  -2  -4   6 11.5320 2.21319  10
  -2  -4   6 5.36778 1.92726   3
   1   4  -6 0.46735 1.32359   9
  -1  -4   6 2.56134 1.65784   4
  -1  -4   6 0.75524 1.14477   1
   0   4  -6 16.8590 1.71738   9
   0  -4   6 13.2988 2.15566   4
   0  -4   6 13.6241 1.10581   8
   0  -4   6 12.1011 1.71304   1
  -1   4  -6 0.41580 1.16309   9
   1  -4   6 1.96186 0.99063   8
   1  -4   6 0.41213 1.57925   4
   1  -4   6 2.74477 1.51497   1
  -2   4  -6 494.308 9.29477   9
  -2   4  -6 497.445 8.62324   5
  -2   4  -6 486.417 9.30862   7
   2  -4   6 491.366 10.8970   4
   2  -4   6 481.201 9.35340   8
   2  -4   6 482.988 10.1565   1
  -3   4  -6 33.1346 2.05598   2
  -3   4  -6 34.3339 2.29941   7
   3  -4   6 37.1096 3.12296   4
   3  -4   6 34.3777 2.73495   1
   3  -4   6 37.9157 2.52942   8
  -4   4  -6 3.50061 1.11543   2
  -4   4  -6 2.46706 1.28970   7
   4  -4   6 -1.8586 1.66055   4
   4  -4   6 2.90764 1.80171   1
   4  -4   6 3.55814 1.62650   8
  -5   4  -6 30.6456 2.32480   7
  -5   4  -6 27.9265 2.18305   2
   5  -4   6 29.5990 2.70312   8
   5  -4   6 25.0857 2.81439   4
   5  -4   6 26.9479 2.90290   1
  -6   4  -6 41.2426 2.75456   2
  -6   4  -6 45.6936 3.14267   7
   6  -4   6 39.9331 3.24850   8
   6  -4   6 42.2241 3.60538   4
   6  -4   6 41.3352 3.41497   1
  -7   4  -6 0.07286 1.68943   7
   7  -4   6 1.54656 1.99569   1
   7  -4   6 1.22382 1.98331   8
   7  -4   6 0.50767 2.12100   4
  -8   4  -6 6.88958 2.14799   7
   8  -4   6 9.61046 2.53012   1
   8  -4   6 9.76041 2.78692   4
   8  -4   6 10.4757 2.68709   8
   6   3  -6 3.44084 2.29713   9
  -6  -3   6 1.74045 2.25485  10
  -6  -3   6 -1.5829 2.14301   3
   5   3  -6 35.2954 3.38995   9
  -5  -3   6 40.9725 3.66652  10
  -5  -3   6 39.7229 3.67066   3
  -5  -3   6 47.9291 3.36081   4
   4   3  -6 20.7494 2.65228   9
  -4  -3   6 17.4202 2.28932   4
  -4  -3   6 15.8092 2.51895   3
  -4  -3   6 19.0258 2.72567  10
   3   3  -6 5.32648 1.83644   9
  -3  -3   6 3.79896 1.86326   3
  -3  -3   6 5.23564 1.97820  10
  -3  -3   6 7.00227 1.84996   4
   2   3  -6 0.78162 1.46075   9
  -2  -3   6 0.59024 1.53393   4
  -2  -3   6 2.43229 1.80815  10
  -2  -3   6 1.29347 1.58713   3
  -2  -3   6 0.56259 0.95452   1
   1   3  -6 8.04340 1.65637   9
  -1  -3   6 10.8723 1.95234   3
  -1  -3   6 11.0274 1.40463   1
  -1  -3   6 7.62337 1.81748   4
   0   3  -6 27.5438 2.25712   9
   0  -3   6 23.2350 1.07941   8
   0  -3   6 22.9920 2.42968   4
   0  -3   6 23.5202 1.94348   1
  -1   3  -6 33.0321 2.23367   7
  -1   3  -6 29.6450 2.17805   9
   1  -3   6 28.9554 1.59022   8
   1  -3   6 31.3521 2.38766   1
   1  -3   6 33.1715 2.75104   4
  -2   3  -6 291.515 6.20185   2
  -2   3  -6 292.585 5.36769   5
  -2   3  -6 291.716 6.31188   7
   2  -3   6 282.428 7.34133   4
   2  -3   6 294.292 6.01714   8
   2  -3   6 276.789 6.74807   1
  -3   3  -6 0.59715 1.11296   2
  -3   3  -6 1.72784 1.21091   7
   3  -3   6 2.18334 1.27434   8
   3  -3   6 0.48355 1.44345   1
   3  -3   6 0.10907 1.53190   4
  -4   3  -6 -0.8332 1.19321   2
  -4   3  -6 1.16497 1.25447   7
   4  -3   6 -0.6102 1.58403   4
   4  -3   6 0.58023 1.36927   8
   4  -3   6 2.45942 1.60322   1
  -5   3  -6 6.12591 1.50911   2
  -5   3  -6 6.26038 1.59548   7
   5  -3   6 7.48272 2.07305   1
   5  -3   6 6.00645 1.81512   8
   5  -3   6 7.45042 2.04541   4
  -6   3  -6 7.75447 1.61009   2
  -6   3  -6 8.21370 1.81271   7
   6  -3   6 7.53238 2.03921   1
   6  -3   6 14.2601 2.35139   4
   6  -3   6 11.5594 2.13493   8
  -7   3  -6 16.3889 2.31142   7
  -7   3  -6 12.3059 1.92087   2
   7  -3   6 13.0548 2.47666   8
   7  -3   6 13.1151 2.50423   4
   7  -3   6 12.7643 2.43249   1
  -8   3  -6 2.23420 1.96462   7
   8  -3   6 2.15472 2.17740   1
   8  -3   6 3.22113 2.21597   4
   8  -3   6 2.84098 2.18572   8
   6   2  -6 18.7510 3.00374   9
  -6  -2   6 16.0672 2.84419   3
  -6  -2   6 12.7425 2.70938  10
   5   2  -6 -0.2811 1.95024   9
  -5  -2   6 0.51853 1.87972   3
  -5  -2   6 -0.3810 1.58590   4
  -5  -2   6 -1.6468 1.85784  10
   4   2  -6 43.6181 3.58638   9
  -4  -2   6 37.5487 3.10835   3
  -4  -2   6 39.2914 3.14213   4
  -4  -2   6 43.4629 3.51831  10
   3   2  -6 40.0783 3.32377   9
  -3  -2   6 41.6846 3.26473   3
  -3  -2   6 46.5814 3.57755  10
  -3  -2   6 40.2829 3.09350   4
   2   2  -6 1.44271 1.54150   9
   2   2  -6 1.96890 0.74469   1
  -2  -2   6 6.04588 1.78338  10
  -2  -2   6 4.32310 1.66656   3
  -2  -2   6 5.62693 1.67635   4
   1   2  -6 11.1893 1.82927   9
  -1  -2   6 10.9944 1.34631   1
  -1  -2   6 9.60854 1.81998   4
  -1  -2   6 7.97230 1.76586   3
   0   2  -6 18.9482 1.90207   9
   0  -2   6 17.3685 1.69058   1
   0  -2   6 19.5008 2.22799   4
  -1   2  -6 51.7154 2.63891   2
  -1   2  -6 58.9853 2.77695   9
  -1   2  -6 58.1415 2.74712   7
   1  -2   6 56.4815 1.80782   8
   1  -2   6 53.5480 2.69246   1
   1  -2   6 60.3590 3.22863   4
  -2   2  -6 22.4837 1.23189   5
  -2   2  -6 28.0155 2.22443   7
  -2   2  -6 17.9884 1.70522   2
   2  -2   6 22.6595 1.66094   8
   2  -2   6 20.7711 2.25624   4
   2  -2   6 21.8941 2.01331   1
  -3   2  -6 10.6747 1.55064   7
  -3   2  -6 11.2739 1.55918   2
   3  -2   6 11.2351 1.47329   8
   3  -2   6 6.22905 1.63065   1
   3  -2   6 6.35568 1.75686   4
  -4   2  -6 29.0249 2.17599   7
  -4   2  -6 29.5117 2.12205   2
   4  -2   6 31.1386 2.56791   1
   4  -2   6 28.9797 2.24347   8
   4  -2   6 26.5522 2.57821   4
  -5   2  -6 10.7368 1.73749   2
  -5   2  -6 13.8048 1.89666   7
   5  -2   6 15.5960 2.25282   1
   5  -2   6 13.8140 2.01388   8
   5  -2   6 14.9988 2.20055   4
  -6   2  -6 28.0853 2.34918   2
  -6   2  -6 28.5619 2.53741   7
   6  -2   6 25.8898 2.64975   8
   6  -2   6 24.4406 2.61758   1
   6  -2   6 23.8130 2.61545   4
  -7   2  -6 0.26159 1.62489   7
  -7   2  -6 0.23311 1.63155   2
   7  -2   6 -3.7745 1.71986   1
   7  -2   6 -0.8444 1.86023   8
   7  -2   6 2.50637 1.89548   4
  -8   2  -6 68.8294 4.00993   2
  -8   2  -6 73.1725 4.41230   7
   8  -2   6 73.8088 4.27146   4
   8  -2   6 82.2242 4.59529   1
   8  -2   6 61.4731 4.47626   8
  -9   2  -6 67.9100 4.68371   7
  -9   2  -6 73.4337 4.96339  10
  -9   2  -6 69.6332 4.72917   2
   9  -2   6 68.1410 4.67123   1
   9  -2   6 76.6318 4.98838   8
   6   1  -6 7.07561 2.66983   9
  -6  -1   6 11.0877 2.20210   6
  -6  -1   6 9.83475 2.49642   3
  -6  -1   6 10.2501 2.62405  10
  -6  -1   6 10.3773 2.13459   4
   5   1  -6 3.80777 2.17386   9
  -5  -1   6 -0.2254 1.86036   3
  -5  -1   6 1.86413 1.67180   4
  -5  -1   6 -0.7154 1.83254  10
   4   1  -6 57.7764 3.75247   9
  -4  -1   6 50.1582 3.53422   3
  -4  -1   6 54.9709 3.98640  10
  -4  -1   6 51.8283 3.39920   4
   3   1  -6 9.99608 2.07174   9
  -3  -1   6 11.4587 2.14841  10
  -3  -1   6 9.98574 1.97636   3
  -3  -1   6 13.9582 2.10587   4
   2   1  -6 4.53935 1.73595   9
   2   1  -6 1.90103 0.98662   1
  -2  -1   6 3.53608 1.53893   4
  -2  -1   6 4.02425 1.69876  10
  -2  -1   6 2.30646 0.67212   5
  -2  -1   6 2.67715 1.52531   3
   1   1  -6 287.081 6.79715   9
  -1  -1   6 288.120 7.06848   4
  -1  -1   6 280.501 6.80387   3
   0   1  -6 40.8172 2.58116   9
   0   1  -6 40.1150 2.49281   7
   0   1  -6 39.3128 2.48545   2
   0  -1   6 36.7315 2.16454   1
   0  -1   6 39.8600 2.72366   4
   0  -1   6 38.8950 2.50437   3
  -1   1  -6 14.4194 1.72788   2
  -1   1  -6 15.6991 1.68837   7
  -1   1  -6 16.5681 0.82379   5
  -1   1  -6 14.1418 1.73298   9
   1  -1   6 13.6527 1.87455   4
   1  -1   6 18.5983 1.77007   1
   1  -1   6 17.0481 1.19883   8
  -2   1  -6 0.34263 0.63555   5
  -2   1  -6 -1.6078 1.17511   7
  -2   1  -6 -1.6995 1.15131   2
   2  -1   6 -0.6877 1.22707   4
   2  -1   6 0.38912 0.84016   8
   2  -1   6 1.17571 1.22470   1
  -3   1  -6 27.2387 2.03896   2
  -3   1  -6 26.5270 2.04223   7
   3  -1   6 34.6382 2.61447   4
   3  -1   6 27.7015 1.94059   8
   3  -1   6 30.8663 2.37179   1
  -4   1  -6 265.443 6.19925   2
  -4   1  -6 271.737 6.39124   7
   4  -1   6 261.932 6.67604   4
   4  -1   6 263.244 6.18657   8
   4  -1   6 258.677 6.55010   1
  -5   1  -6 -0.0869 1.38465   2
  -5   1  -6 -0.0072 1.45759   7
   5  -1   6 0.11220 1.41799   8
   5  -1   6 -2.2936 1.38139   4
   5  -1   6 -2.4377 1.48019   1
  -6   1  -6 29.7729 2.64931   7
  -6   1  -6 29.1600 2.52088   2
   6  -1   6 32.3032 2.76789   4
   6  -1   6 31.3134 2.84371   8
   6  -1   6 33.2622 2.85494   1
  -7   1  -6 12.3279 2.16846   2
  -7   1  -6 14.7439 2.32380   7
   7  -1   6 19.2629 2.54233   8
   7  -1   6 18.7691 2.61053   1
   7  -1   6 17.7911 2.39564   4
  -8   1  -6 3.38747 2.03158   2
  -8   1  -6 5.23941 2.20518   7
  -8   1  -6 5.47698 2.21201  10
   8  -1   6 5.34892 2.26128   8
   8  -1   6 6.62306 1.99733   4
   8  -1   6 4.79540 2.22064   1
  -9   1  -6 -1.6668 2.02332   2
  -9   1  -6 1.67037 2.16907  10
  -9   1  -6 0.80588 2.18989   7
   9  -1   6 5.22325 2.44814   8
   9  -1   6 3.67999 2.19192   1
   6   0  -6 2.56228 2.35734   9
  -6   0   6 -0.5476 1.75801   6
  -6   0   6 -0.9154 2.06493  10
  -6   0   6 0.22271 2.04395   3
   5   0  -6 127.824 5.67288   9
  -5   0   6 121.694 4.98710   4
  -5   0   6 128.385 5.45107   3
  -5   0   6 124.161 5.48249  10
   4   0  -6 276.515 7.72623   9
  -4   0   6 270.229 7.60268  10
  -4   0   6 270.735 7.35164   4
  -4   0   6 276.801 7.69032   3
   3   0  -6 131.486 4.88963   9
   3   0  -6 142.870 3.46339   1
   3   0  -6 134.179 3.43915   5
  -3   0   6 124.365 4.71025   4
  -3   0   6 135.437 4.84898   3
  -3   0   6 129.743 4.96968  10
   2   0  -6 50.8462 1.80194   5
   2   0  -6 50.3109 3.19564   9
  -2   0   6 46.2269 3.07601   3
  -2   0   6 48.1715 3.25240   4
  -2   0   6 51.7072 3.27514  10
  -2   0   6 48.6530 1.81415   5
   1   0  -6 156.687 3.29259   5
   1   0  -6 168.887 4.99217   9
  -1   0   6 164.363 4.77205   3
  -1   0   6 169.264 3.28024   5
  -1   0   6 167.308 5.08904   4
  -1   0   6 170.628 4.98274  10
   0   0  -6 74.1674 3.22978   9
   0   0  -6 79.6954 1.82609   8
   0   0  -6 78.3284 1.90209   5
   0   0  -6 80.6022 3.29013   7
   0   0  -6 85.9770 3.43205   2
   0   0   6 82.5452 3.47167   4
   0   0   6 85.0298 3.27374   3
  -1   0  -6 3.00739 1.31057   7
  -1   0  -6 3.88866 0.70460   5
  -1   0  -6 3.96631 0.80670   8
  -1   0  -6 6.13546 1.47609   2
  -1   0  -6 5.06170 1.42562   9
   1   0   6 4.77653 1.42608   4
   1   0   6 5.97213 1.28212   1
   1   0   6 5.29268 0.86070   8
  -2   0  -6 19.8357 1.88487   2
  -2   0  -6 22.3277 1.94431   7
   2   0   6 19.2001 1.99636   4
   2   0   6 23.2750 2.02244   1
   2   0   6 21.8014 1.59524   8
  -3   0  -6 20.7222 1.85345   7
  -3   0  -6 27.3811 2.12964   2
   3   0   6 24.4726 2.16315   4
   3   0   6 25.8689 2.17685   1
   3   0   6 25.2165 1.82603   8
  -4   0  -6 2.10113 1.49845   2
  -4   0  -6 3.45945 1.48342   7
   4   0   6 2.51546 1.29136   8
   4   0   6 2.48462 1.49116   1
   4   0   6 5.48529 1.57102   4
  -5   0  -6 3.47720 1.59978   7
  -5   0  -6 6.76204 1.70839   2
   5   0   6 3.35275 1.57131   4
   5   0   6 5.64294 1.73325   1
   5   0   6 4.18364 1.56548   8
  -6   0  -6 67.0960 3.69341   2
  -6   0  -6 62.2023 3.60622   7
   6   0   6 72.3508 3.81424   1
   6   0   6 62.0211 3.50973   8
   6   0   6 63.2812 3.46126   4
  -7   0  -6 3.70795 1.85232   7
  -7   0  -6 2.29585 1.80971   2
   7   0   6 0.20680 1.72723   1
   7   0   6 -1.8925 1.66883   8
   7   0   6 -1.6901 1.47337   4
  -8   0  -6 21.8098 2.68363  10
  -8   0  -6 19.9381 2.76040   7
  -8   0  -6 17.2153 2.56959   2
   8   0   6 18.4783 2.59273   1
   8   0   6 24.1155 2.46488   4
   8   0   6 20.4868 2.85300   8
  -9   0  -6 0.37116 2.12697   7
  -9   0  -6 -0.0519 2.06133   2
  -9   0  -6 -1.9779 2.04187  10
   9   0   6 0.53593 2.21568   8
   9   0   6 -1.1374 1.88408   1
   6  -1  -6 38.5829 3.92441   9
  -6   1   6 34.3432 3.29524   6
  -6   1   6 32.2653 3.56357  10
  -6   1   6 36.6782 3.66184   3
   5  -1  -6 19.2034 1.99185   5
   5  -1  -6 17.1237 2.71501   9
  -5   1   6 16.9533 2.47113   4
  -5   1   6 19.8003 2.56250   6
  -5   1   6 24.1194 2.88192  10
  -5   1   6 21.2958 2.84071   3
   4  -1  -6 84.3541 4.49821   9
   4  -1  -6 80.8916 2.52336   1
   4  -1  -6 80.5358 2.55319   8
   4  -1  -6 79.3061 3.06815   5
  -4   1   6 78.1626 4.20386   3
  -4   1   6 78.8200 4.20096  10
  -4   1   6 82.3720 4.24333   4
   3  -1  -6 -0.7243 1.65132   9
   3  -1  -6 1.76086 1.10503   5
   3  -1  -6 0.26020 0.81381   8
  -3   1   6 0.66472 1.60728   4
  -3   1   6 -0.7080 1.45060   3
  -3   1   6 -1.2036 1.47735  10
   2  -1  -6 36.2743 2.91339   9
   2  -1  -6 33.5712 1.85069   5
  -2   1   6 37.4207 2.81292   3
  -2   1   6 35.5781 2.87494   4
  -2   1   6 33.1816 2.68000  10
   1  -1  -6 123.059 2.65298   8
   1  -1  -6 115.055 4.05538   2
   1  -1  -6 125.373 4.31702   9
   1  -1  -6 120.825 2.98811   5
  -1   1   6 115.130 4.10163  10
  -1   1   6 119.741 4.00049   3
  -1   1   6 119.980 2.90439   5
  -1   1   6 116.845 4.32001   4
   0  -1  -6 8.25173 0.89308   8
   0  -1  -6 6.61685 1.52553   2
   0  -1  -6 5.98334 0.92199   5
   0  -1  -6 9.58968 1.64018   9
   0  -1  -6 7.78671 1.51305   7
   0   1   6 7.43160 1.59545   4
   0   1   6 8.68716 1.39315   3
  -1  -1  -6 1.31067 1.26964   7
  -1  -1  -6 1.72732 0.79944   5
  -1  -1  -6 1.04952 1.35645   2
  -1  -1  -6 1.69943 0.65624   8
  -1  -1  -6 4.15780 1.46117   9
   1   1   6 3.22778 1.36358   4
   1   1   6 2.44690 1.07555   3
  -2  -1  -6 262.710 6.37019   2
  -2  -1  -6 279.362 6.40643   7
   2   1   6 281.985 5.71616   8
   2   1   6 280.411 6.64664   4
  -3  -1  -6 213.025 5.39594   7
  -3  -1  -6 206.849 5.47200   2
   3   1   6 203.511 5.40250   1
   3   1   6 218.621 5.02845   8
   3   1   6 209.185 5.52149   4
  -4  -1  -6 6.04509 1.65686   2
  -4  -1  -6 10.6260 1.75957   7
   4   1   6 8.27052 1.59951   1
   4   1   6 8.72060 1.66298   4
   4   1   6 11.3069 1.62487   8
  -5  -1  -6 20.5535 2.25584   2
  -5  -1  -6 19.2290 2.15376   7
   5   1   6 18.1550 2.07496   8
   5   1   6 19.6556 2.00579   4
   5   1   6 22.2040 2.27893   1
  -6  -1  -6 292.876 7.39814   2
  -6  -1  -6 292.619 7.53536   7
   6   1   6 301.366 6.97898   4
   6   1   6 285.294 7.45475   8
  -7  -1  -6 -2.2454 1.69656   2
  -7  -1  -6 -2.6635 1.68202   7
   7   1   6 0.33545 1.77711   1
   7   1   6 0.75497 1.84877   8
   7   1   6 0.52468 1.45192   4
  -8  -1  -6 11.5667 2.28204  10
  -8  -1  -6 6.45867 2.34972   7
  -8  -1  -6 10.6104 2.44993   2
   8   1   6 11.3996 2.46351   8
   8   1   6 11.4276 2.28422   1
  -9  -1  -6 6.71914 2.40828   2
  -9  -1  -6 10.7139 2.63228   7
  -9  -1  -6 4.23546 2.17912  10
   9   1   6 6.64599 2.51207   8
   9   1   6 7.88571 2.25436   1
   6  -2  -6 4.14367 2.40939   9
   6  -2  -6 2.52612 1.70193   5
  -6   2   6 1.33469 2.21577   3
  -6   2   6 1.32323 1.93475   6
  -6   2   6 4.65424 2.31655  10
   5  -2  -6 22.1936 3.07015   9
   5  -2  -6 21.0359 2.16891   5
  -5   2   6 17.1318 2.68093  10
  -5   2   6 17.4905 2.58106   6
  -5   2   6 13.8381 2.51417   3
   4  -2  -6 44.7641 2.23644   1
   4  -2  -6 46.0412 3.56254   9
   4  -2  -6 43.9448 2.62677   5
   4  -2  -6 47.6256 2.27391   8
  -4   2   6 41.8544 3.20858   6
  -4   2   6 44.1661 3.43968   4
  -4   2   6 40.2250 3.27451   3
  -4   2   6 43.1227 3.33445  10
   3  -2  -6 0.97526 1.21155   5
   3  -2  -6 1.18853 1.72158   9
  -3   2   6 1.64506 1.67036   6
  -3   2   6 -1.2759 1.48308  10
  -3   2   6 -0.1617 1.60198   4
  -3   2   6 1.19462 1.57945   3
   2  -2  -6 51.2413 2.32556   5
   2  -2  -6 51.3941 3.30706   9
  -2   2   6 44.3263 3.03672   3
  -2   2   6 51.7711 3.15279  10
  -2   2   6 43.9279 3.17299   4
   1  -2  -6 74.9504 2.59037   5
   1  -2  -6 69.7340 3.34069   2
   1  -2  -6 70.3703 3.44111   9
  -1   2   6 72.7183 3.25564  10
  -1   2   6 75.5059 3.57325   4
  -1   2   6 80.3139 3.20240   3
   0  -2  -6 76.0562 2.53103   5
   0  -2  -6 73.6845 3.27534   7
   0  -2  -6 81.1230 3.38552   2
   0  -2  -6 74.4267 3.36398   9
   0   2   6 80.1861 2.93961   3
   0   2   6 77.4043 3.52313   4
   0   2   6 75.8886 3.04287  10
  -1  -2  -6 33.0320 1.80689   5
  -1  -2  -6 31.0268 2.33911   2
  -1  -2  -6 34.0064 2.66398   9
  -1  -2  -6 32.3378 2.48452   7
   1   2   6 33.7334 2.49407   4
   1   2   6 32.3917 1.93047   3
  -2  -2  -6 291.112 6.72156   7
  -2  -2  -6 292.890 5.92386   5
  -2  -2  -6 279.344 6.76477   2
   2   2   6 296.225 6.88903   4
   2   2   6 286.669 5.74551   3
   2   2   6 297.574 6.13645   8
  -3  -2  -6 86.3693 3.53826   2
  -3  -2  -6 84.6203 3.37995   7
   3   2   6 84.1833 3.04505   8
   3   2   6 81.8245 3.37080   4
  -4  -2  -6 116.073 4.19061   2
  -4  -2  -6 108.987 4.17982   7
   4   2   6 114.421 3.80972   4
   4   2   6 114.313 2.91781   3
   4   2   6 113.092 3.82412   8
  -5  -2  -6 1.98818 1.61946   7
  -5  -2  -6 5.20659 1.88587   2
   5   2   6 5.68083 1.50690   4
   5   2   6 5.08236 1.68299   8
  -6  -2  -6 220.320 6.36832   2
  -6  -2  -6 208.854 6.28840   7
   6   2   6 209.756 6.12617   8
   6   2   6 217.586 5.43200   4
  -7  -2  -6 2.29485 1.85062   7
  -7  -2  -6 3.08725 2.03845   2
   7   2   6 4.38235 1.46659   4
   7   2   6 5.56302 2.02933   8
  -8  -2  -6 5.82051 2.34542   2
  -8  -2  -6 7.06994 1.93692  10
  -8  -2  -6 7.95863 2.35781   7
   8   2   6 6.40705 2.31763   8
  -9  -2  -6 61.6822 4.83853   2
  -9  -2  -6 69.4636 5.01114   7
  -9  -2  -6 59.1026 4.15543  10
   9   2   6 64.5756 4.83847   8
   6  -3  -6 0.50603 1.74507   5
   6  -3  -6 -1.5931 2.14956   9
  -6   3   6 4.55880 2.37905  10
  -6   3   6 0.93125 1.95549   6
  -6   3   6 -1.2861 2.06851   3
   5  -3  -6 0.25679 1.54063   5
   5  -3  -6 -0.7794 1.40446   8
   5  -3  -6 4.34447 2.08909   9
  -5   3   6 1.62208 1.89849  10
  -5   3   6 -0.3958 1.87369   3
  -5   3   6 1.72357 1.74000   6
   4  -3  -6 76.9859 3.02866   1
   4  -3  -6 69.6949 3.37027   5
   4  -3  -6 73.0099 4.25652   9
   4  -3  -6 78.6576 3.18677   8
  -4   3   6 67.4759 4.26383   4
  -4   3   6 69.4951 4.00264   6
  -4   3   6 77.1171 4.28403   3
  -4   3   6 78.4458 4.29492  10
   3  -3  -6 3.54369 1.93518   9
   3  -3  -6 1.07298 1.32725   5
  -3   3   6 -0.5613 1.47378   3
  -3   3   6 5.34653 1.95372   4
  -3   3   6 0.90583 1.56466   6
  -3   3   6 3.48737 1.73979  10
   2  -3  -6 14.1347 1.70317   5
   2  -3  -6 14.8432 2.21341   9
  -2   3   6 12.3890 2.09314   4
  -2   3   6 11.5917 1.85011  10
  -2   3   6 12.8478 1.92278   3
  -2   3   6 14.4852 2.06829   6
   1  -3  -6 36.7740 2.82338   9
   1  -3  -6 30.5378 2.41440   2
   1  -3  -6 35.7274 2.24040   5
  -1   3   6 29.2736 2.21072  10
  -1   3   6 31.0201 2.64605   4
  -1   3   6 33.0755 2.45107   3
   0  -3  -6 138.995 4.62714   9
   0  -3  -6 138.926 4.45622   2
   0  -3  -6 145.916 3.82836   5
   0  -3  -6 146.863 4.52125   7
   0   3   6 146.431 3.95441   3
   0   3   6 144.696 4.73250   4
   0   3   6 141.839 4.06055  10
  -1  -3  -6 3.73957 1.57617   9
  -1  -3  -6 4.86123 1.48051   7
  -1  -3  -6 4.94275 1.18873   5
  -1  -3  -6 4.46645 1.55023   2
   1   3   6 3.72572 1.05035  10
   1   3   6 4.69428 1.03639   3
   1   3   6 3.71964 1.52757   4
  -2  -3  -6 2.33868 1.40472   2
  -2  -3  -6 2.01323 1.34737   7
  -2  -3  -6 2.25248 1.14718   5
   2   3   6 2.70679 0.77944   3
   2   3   6 1.78847 1.33097   4
  -3  -3  -6 56.6078 3.22398   2
  -3  -3  -6 59.8982 3.12911   7
   3   3   6 63.8758 1.82304   3
   3   3   6 65.5801 3.05632   8
   3   3   6 63.9149 1.83283   3
   3   3   6 69.2637 3.07285   4
  -4  -3  -6 17.1588 2.01748   7
  -4  -3  -6 19.4836 2.18176   2
   4   3   6 21.9179 2.14686   8
   4   3   6 18.0316 1.17843   3
   4   3   6 16.8944 1.83740   4
  -5  -3  -6 54.5615 3.57177   2
  -5  -3  -6 55.7770 3.44291   7
   5   3   6 60.8170 2.83079   4
   5   3   6 55.6331 3.29378   8
   5   3   6 59.0421 1.94855   3
  -6  -3  -6 39.3290 3.20321   2
  -6  -3  -6 36.1254 3.02441   7
   6   3   6 41.9380 3.27509   8
   6   3   6 43.0883 2.45857   4
  -7  -3  -6 265.664 7.69259   7
  -7  -3  -6 274.846 7.79351   2
   7   3   6 265.895 7.50949   8
  -8  -3  -6 1.81171 2.19375   7
  -8  -3  -6 -1.0331 2.19191   2
   8   3   6 -2.2448 1.99024   8
  -9  -3  -6 22.7583 3.33037   2
  -9  -3  -6 30.3275 3.49303   7
   9   3   6 22.9165 3.39209   8
   6  -4  -6 3.27393 2.35820   9
   6  -4  -6 5.31997 1.98609   5
  -6   4   6 5.35661 2.43295   3
  -6   4   6 5.51002 2.27781   6
  -6   4   6 4.28485 2.34988  10
   5  -4  -6 1.28833 1.63943   5
   5  -4  -6 1.47716 1.68617   8
   5  -4  -6 -2.8489 1.81038   9
  -5   4   6 1.27130 2.01539  10
  -5   4   6 0.63561 1.87665   6
  -5   4   6 1.01020 1.86919   3
   4  -4  -6 3.58461 1.67730   5
   4  -4  -6 2.44642 1.37785   1
   4  -4  -6 4.76922 2.02236   9
  -4   4   6 1.93538 1.87550   3
  -4   4   6 3.11367 1.91493   6
  -4   4   6 4.14164 1.95116  10
   3  -4  -6 5.68987 2.01831   9
   3  -4  -6 4.27171 1.55415   5
  -3   4   6 7.93989 1.93854   3
  -3   4   6 6.53812 1.92977   6
  -3   4   6 6.42512 1.81494  10
  -3   4   6 7.85359 2.15601   4
   2  -4  -6 5.31148 1.50042   5
   2  -4  -6 5.14541 1.78408   9
  -2   4   6 3.05935 1.49411  10
  -2   4   6 2.13912 1.50270   3
  -2   4   6 4.16489 1.86294   4
  -2   4   6 4.56182 1.73825   6
   1  -4  -6 6.05325 1.77051   9
   1  -4  -6 4.55608 1.41062   5
   1  -4  -6 3.14445 1.59510   2
  -1   4   6 2.00439 1.51784   6
  -1   4   6 1.70629 1.28358   3
  -1   4   6 3.23370 1.77719   4
  -1   4   6 2.10358 1.25868  10
   0  -4  -6 72.4302 3.53671   9
   0  -4  -6 68.7764 3.48072   7
   0  -4  -6 74.3848 3.44447   2
   0  -4  -6 69.4116 2.93876   5
   0   4   6 70.4432 2.80262  10
   0   4   6 76.4794 3.48343   6
   0   4   6 72.0584 3.61043   4
   0   4   6 71.9369 2.74475   3
  -1  -4  -6 8.74546 1.72864   7
  -1  -4  -6 11.3065 1.88969   2
  -1  -4  -6 13.1837 1.57924   5
  -1  -4  -6 9.62868 1.87904   9
   1   4   6 7.75776 1.55169   6
   1   4   6 9.30372 1.19336  10
   1   4   6 11.4434 1.19887   3
   1   4   6 8.82898 1.80631   4
  -2  -4  -6 14.4793 1.90868   7
  -2  -4  -6 12.0671 1.63093   5
  -2  -4  -6 15.9151 2.08419   2
   2   4   6 14.2843 1.89984   4
   2   4   6 13.4313 1.19216  10
   2   4   6 14.6462 0.99708   3
   2   4   6 17.0891 1.74871   6
  -3  -4  -6 52.6147 2.77936   5
  -3  -4  -6 50.1475 3.07413   7
  -3  -4  -6 48.4323 3.33770   2
   3   4   6 50.4285 2.85982   4
   3   4   6 52.3194 2.57384   6
   3   4   6 53.8559 1.90558  10
  -4  -4  -6 24.8259 2.35419   7
  -4  -4  -6 28.4180 2.59684   2
   4   4   6 29.0955 2.32164   4
   4   4   6 25.3627 1.50379  10
   4   4   6 29.3020 2.02319   6
   4   4   6 32.6819 2.58920   8
  -5  -4  -6 395.759 9.44671   2
  -5  -4  -6 416.744 9.41256   7
   5   4   6 420.311 7.75012   6
   5   4   6 407.125 8.24514   4
   5   4   6 411.970 9.20948   8
  -6  -4  -6 24.0142 2.66296   7
  -6  -4  -6 22.8966 2.78497   2
   6   4   6 30.8886 2.88855   8
   6   4   6 28.5996 2.03950   4
  -7  -4  -6 14.7976 2.69042   2
  -7  -4  -6 17.4737 2.63287   7
   7   4   6 12.0035 2.51652   8
  -8  -4  -6 -2.7247 1.96889   7
  -8  -4  -6 0.79853 2.33106   2
   8   4   6 0.65946 2.20577   8
  -9  -4  -6 22.4365 3.33411   7
  -9  -4  -6 12.6843 3.11517   2
   9   4   6 21.9454 3.25002   8
   5  -5  -6 3.52556 2.76617   1
   5  -5  -6 5.26442 2.22939   9
   5  -5  -6 3.16168 1.93696   8
   5  -5  -6 8.03663 2.12266   5
  -5   5   6 4.35589 2.17057   6
  -5   5   6 0.79302 1.98194  10
  -5   5   6 1.01522 2.08826   3
   4  -5  -6 55.7082 3.95805   9
   4  -5  -6 57.2795 3.55914   5
   4  -5  -6 61.7053 3.32529   1
  -4   5   6 57.1646 3.86953   3
  -4   5   6 60.9629 4.05328   6
  -4   5   6 55.5910 3.90552  10
   3  -5  -6 3.04705 1.70041   5
   3  -5  -6 4.38327 1.56827   1
   3  -5  -6 0.52925 1.81863   9
  -3   5   6 2.56558 1.76364  10
  -3   5   6 4.04105 1.78664   3
  -3   5   6 1.63960 1.81525   6
   2  -5  -6 94.7720 3.87447   5
   2  -5  -6 101.074 4.35241   9
  -2   5   6 95.9967 3.93982  10
  -2   5   6 95.5764 4.48175   6
  -2   5   6 91.7471 3.81826   3
   1  -5  -6 9.94648 2.04351   9
   1  -5  -6 8.22659 1.71058   5
   1  -5  -6 7.19060 1.79375   2
  -1   5   6 8.61105 1.58651   3
  -1   5   6 11.7352 2.04390   6
  -1   5   6 9.07495 1.59355  10
  -1   5   6 9.40189 2.05653   4
   0  -5  -6 186.741 5.10620   5
   0  -5  -6 182.327 5.35624   2
   0  -5  -6 186.075 5.34119   7
   0  -5  -6 175.532 5.41849   9
   0   5   6 181.842 5.47701   6
   0   5   6 182.714 4.58409  10
   0   5   6 181.400 5.69291   4
   0   5   6 184.416 4.51998   3
  -1  -5  -6 123.776 4.07362   5
  -1  -5  -6 135.860 4.72886   2
  -1  -5  -6 138.638 4.46570   7
  -1  -5  -6 131.420 4.58735   9
   1   5   6 139.891 4.71509   4
   1   5   6 133.003 3.29602   3
   1   5   6 131.139 3.36337  10
   1   5   6 131.120 4.46906   6
  -2  -5  -6 17.3378 2.11462   7
  -2  -5  -6 19.9648 2.05336   5
  -2  -5  -6 19.9566 2.23028   2
   2   5   6 18.6167 1.95117   6
   2   5   6 17.1715 2.10328   4
   2   5   6 18.3014 1.29496  10
  -3  -5  -6 600.588 11.8705   5
  -3  -5  -6 615.633 12.4754   2
  -3  -5  -6 614.291 12.1903   7
   3   5   6 622.045 11.9671   4
   3   5   6 613.608 11.6090   6
  -4  -5  -6 0.03682 1.40995   5
  -4  -5  -6 2.81077 1.81641   2
  -4  -5  -6 1.04082 1.62102   7
   4   5   6 0.63871 1.11001   6
   4   5   6 0.40207 1.28730   4
  -5  -5  -6 65.8861 4.05357   2
  -5  -5  -6 64.8391 3.70282   7
   5   5   6 66.8807 2.43230   6
   5   5   6 64.7998 2.83346   4
   5   5   6 60.2820 3.66647   8
  -6  -5  -6 0.96594 1.83055   7
  -6  -5  -6 0.30866 2.10486   2
   6   5   6 1.82524 1.99973   8
  -7  -5  -6 59.8717 4.61517   2
  -7  -5  -6 64.6500 4.51912   7
   7   5   6 63.5487 4.24085   8
  -8  -5  -6 0.48063 2.23502   7
  -8  -5  -6 3.31291 2.50313   2
   8   5   6 0.16117 2.22119   8
   5  -6  -6 0.93370 1.77930   1
   5  -6  -6 3.51156 2.16883   5
   5  -6  -6 -1.0631 1.92238   9
  -5   6   6 4.69533 2.26659   6
  -5   6   6 1.94867 2.15178  10
  -5   6   6 1.72130 2.22329   3
   4  -6  -6 12.9846 2.14759   1
   4  -6  -6 11.0420 2.28323   5
   4  -6  -6 11.1831 2.45505   9
  -4   6   6 13.0650 2.62603   6
  -4   6   6 10.3410 2.26571  10
  -4   6   6 11.6951 2.44966   3
   3  -6  -6 12.3849 2.21226   5
   3  -6  -6 13.4985 2.38012   9
   3  -6  -6 8.43293 1.93750   1
  -3   6   6 14.8920 2.52418   6
  -3   6   6 12.6883 2.11206  10
  -3   6   6 12.2789 2.19553   3
   2  -6  -6 141.308 5.17035   9
   2  -6  -6 144.136 4.93179   5
  -2   6   6 143.015 4.82350   3
  -2   6   6 136.536 4.63561  10
  -2   6   6 138.045 5.29031   6
   1  -6  -6 604.604 12.1972   2
   1  -6  -6 616.508 12.2029   5
   1  -6  -6 613.501 12.5617   9
  -1   6   6 610.895 12.8274   6
  -1   6   6 593.211 11.7203   3
  -1   6   6 598.026 11.6329  10
   0  -6  -6 49.8789 3.32565   9
   0  -6  -6 49.3995 3.35796   2
   0  -6  -6 44.5662 3.21192   7
   0  -6  -6 47.7562 3.06910   5
   0   6   6 52.9717 3.32227   6
   0   6   6 52.0267 2.48931   3
   0   6   6 46.5121 2.37777  10
  -1  -6  -6 936.928 17.3636   2
  -1  -6  -6 924.363 17.0996   5
  -1  -6  -6 934.125 17.1483   7
  -1  -6  -6 929.478 17.4263   9
   1   6   6 918.082 17.5763   4
   1   6   6 928.151 15.6440  10
   1   6   6 918.234 15.6491   3
   1   6   6 934.765 17.3399   6
  -2  -6  -6 3.52901 1.54758   5
  -2  -6  -6 3.97782 1.77532   2
  -2  -6  -6 0.77537 1.50186   7
   2   6   6 0.62529 1.34728   6
   2   6   6 0.74803 1.53254   4
  -3  -6  -6 111.926 4.25190   7
  -3  -6  -6 106.460 4.63956   2
  -3  -6  -6 110.881 4.26919   5
   3   6   6 107.956 4.08119   4
   3   6   6 109.358 3.81042   6
  -4  -6  -6 4.55435 1.72530   7
  -4  -6  -6 4.30526 1.95239   2
  -4  -6  -6 3.67870 1.70905   5
   4   6   6 4.57745 1.32306   6
  -5  -6  -6 25.7475 2.71065   7
  -5  -6  -6 32.3256 3.13244   2
  -5  -6  -6 35.2761 2.80533   5
   5   6   6 29.7958 1.97708   6
  -6  -6  -6 13.3334 2.41551   7
  -6  -6  -6 9.68802 2.43913   2
  -7  -6  -6 23.6253 3.19504   2
  -7  -6  -6 21.9395 2.95143   7
   7   6   6 23.0226 3.12540   8
  -8  -6  -6 1.44284 2.53972   2
  -8  -6  -6 1.52905 2.23148   7
   8   6   6 -2.9823 2.40838   8
   4  -7  -6 0.33997 1.94261   5
   4  -7  -6 1.42886 1.96629   9
   4  -7  -6 1.08340 1.79649   1
  -4   7   6 -0.7427 1.91616   3
  -4   7   6 -0.7923 1.81717  10
  -4   7   6 1.08055 2.11462   6
   3  -7  -6 296.482 7.82980   1
   3  -7  -6 275.563 7.77167   5
   3  -7  -6 289.209 8.09835   9
  -3   7   6 296.446 8.62820   6
  -3   7   6 297.408 7.90890   3
  -3   7   6 297.480 7.69147  10
   2  -7  -6 10.3404 2.17886   5
   2  -7  -6 10.1034 2.18355   9
  -2   7   6 9.13842 1.78328  10
  -2   7   6 10.8819 1.98354   3
  -2   7   6 6.52992 2.13887   6
   1  -7  -6 304.528 7.39603   2
   1  -7  -6 298.154 7.56894   5
   1  -7  -6 285.776 7.56378   9
  -1   7   6 290.608 6.70718  10
  -1   7   6 294.060 6.91157   3
  -1   7   6 280.305 7.91070   6
   0  -7  -6 61.7901 3.48457   2
   0  -7  -6 50.7120 3.23374   7
   0  -7  -6 54.0538 3.34782   5
   0  -7  -6 57.2426 3.52495   9
   0   7   6 55.2139 2.64715   3
   0   7   6 53.8788 3.74171   6
   0   7   6 56.3030 2.49187  10
  -1  -7  -6 23.1094 2.44652   9
  -1  -7  -6 26.9642 2.54377   2
  -1  -7  -6 27.0601 2.53427   5
  -1  -7  -6 21.0959 2.25787   7
   1   7   6 18.2437 2.29218   6
   1   7   6 22.9295 1.68346   3
   1   7   6 20.4530 1.50295  10
  -2  -7  -6 8.74590 2.07356   2
  -2  -7  -6 8.17184 1.93768   5
  -2  -7  -6 9.88935 1.90562   7
   2   7   6 7.93136 1.79484   6
  -3  -7  -6 27.3491 2.68713   2
  -3  -7  -6 28.6265 2.66287   5
  -3  -7  -6 27.7057 2.51258   7
   3   7   6 27.6433 2.27772   6
  -4  -7  -6 0.66311 1.67892   7
  -4  -7  -6 0.08993 1.82681   2
  -4  -7  -6 -1.9345 1.55478   5
   4   7   6 -0.6247 1.21213   6
  -5  -7  -6 1.64347 2.06409   2
  -5  -7  -6 1.73827 1.85898   7
  -5  -7  -6 2.86149 1.85939   5
  -6  -7  -6 9.54397 2.19122   7
  -6  -7  -6 3.30938 1.91155   5
  -6  -7  -6 3.43679 2.38661   2
  -7  -7  -6 -1.4222 1.93637   7
  -7  -7  -6 -1.6385 2.30989   2
  -8  -7  -6 3.07645 2.44033   7
   3  -8  -6 348.103 9.09981   1
   3  -8  -6 369.033 9.37682   5
   3  -8  -6 351.252 9.15888   9
  -3   8   6 369.437 10.1001   6
  -3   8   6 348.236 8.97638   3
  -3   8   6 343.265 8.74497  10
   2  -8  -6 6.97861 2.15655   5
   2  -8  -6 8.74459 2.20214   1
   2  -8  -6 5.25569 2.00073   9
  -2   8   6 1.23183 1.68781   3
  -2   8   6 3.24268 2.04672   6
  -2   8   6 6.24945 1.75145  10
   1  -8  -6 143.943 4.92361   2
   1  -8  -6 136.134 5.03039   9
   1  -8  -6 137.183 5.30247   5
  -1   8   6 139.077 5.57250   6
  -1   8   6 132.830 5.97457  10
  -1   8   6 136.425 4.52998   3
   0  -8  -6 101.857 4.32614   9
   0  -8  -6 100.917 4.54493   5
   0  -8  -6 103.116 4.27164   2
   0   8   6 101.393 3.70481   3
   0   8   6 98.7720 4.63006   6
  -1  -8  -6 74.7004 3.84034   9
  -1  -8  -6 75.0442 3.62182   7
  -1  -8  -6 74.9758 3.99935   2
  -1  -8  -6 71.8579 4.02038   5
   1   8   6 76.2341 3.94704   6
  -2  -8  -6 4.13043 1.82130   5
  -2  -8  -6 0.62559 1.54020   7
  -2  -8  -6 1.21454 1.71231   9
  -2  -8  -6 0.52609 1.75865   2
   2   8   6 2.27744 1.67798   6
  -3  -8  -6 24.7049 2.73297   2
  -3  -8  -6 20.7619 2.47284   5
  -3  -8  -6 23.5764 2.49210   7
   3   8   6 22.3671 2.25442   6
  -4  -8  -6 26.9482 2.84750   5
  -4  -8  -6 24.3500 2.58602   7
  -4  -8  -6 21.8819 2.73395   2
   4   8   6 23.7072 2.21072   6
  -5  -8  -6 43.8940 3.40572   5
  -5  -8  -6 45.5018 3.37819   7
  -5  -8  -6 39.9908 3.47784   2
  -6  -8  -6 35.3492 3.26866   7
  -6  -8  -6 36.8814 3.27314   5
  -6  -8  -6 40.5931 3.77838   2
  -7  -8  -6 11.2673 2.63653   7
  -7  -8  -6 9.37946 2.46359   5
  -7  -8  -6 16.9844 3.16432   2
   2  -9  -6 7.79204 2.35484   1
   2  -9  -6 8.62639 2.44424   5
   2  -9  -6 7.27909 2.12595   9
  -2   9   6 7.99405 2.60877   3
  -2   9   6 8.33311 2.51642   6
   1  -9  -6 0.51015 1.72746   9
   1  -9  -6 1.55127 1.94148   1
   1  -9  -6 0.09104 2.04885   5
   1  -9  -6 1.96449 1.65594   2
  -1   9   6 0.31970 2.04582   6
   0  -9  -6 11.5417 2.39937   5
   0  -9  -6 12.6694 2.22368   9
   0  -9  -6 8.52372 2.04253   2
   0   9   6 7.15588 2.25473   6
  -1  -9  -6 86.1146 4.26516   2
  -1  -9  -6 77.4089 4.00207   9
  -1  -9  -6 82.3792 4.49707   5
  -1  -9  -6 83.3008 3.88721   7
   1   9   6 85.9028 4.42295   6
  -2  -9  -6 6.21627 2.00194   9
  -2  -9  -6 6.01205 1.81178   7
  -2  -9  -6 3.75556 1.99311   2
  -2  -9  -6 4.95210 2.05334   5
   2   9   6 5.75417 1.92714   6
  -3  -9  -6 10.2286 2.29697   2
  -3  -9  -6 8.10331 2.32968   5
  -3  -9  -6 9.41488 1.98136   7
   3   9   6 8.87335 1.93855   6
  -4  -9  -6 -1.9047 1.89738   2
  -4  -9  -6 -0.0280 1.87430   5
  -4  -9  -6 0.70959 1.73973   7
  -5  -9  -6 -2.6911 2.02930   2
  -5  -9  -6 1.64679 2.05524   5
  -5  -9  -6 -0.4765 1.88426   7
  -6  -9  -6 -4.6851 2.09579   2
  -6  -9  -6 -1.8456 1.91505   7
  -6  -9  -6 -1.5705 2.03646   5
   1 -10  -6 32.1431 3.45591   5
   1 -10  -6 38.3693 3.72057   1
  -1  10   6 33.4002 3.64824   6
   0 -10  -6 0.73705 2.17309   5
   0 -10  -6 3.62642 2.20850   1
   0  10   6 3.88401 2.18272   6
  -1 -10  -6 -0.3690 2.06112   5
  -1 -10  -6 2.97012 1.87168   2
   1  10   6 4.28059 2.11136   6
  -2 -10  -6 3.01832 2.01081   2
  -2 -10  -6 0.19101 2.00409   5
   2  10   6 3.88923 1.91215   6
  -3 -10  -6 11.6708 3.11623   9
  -3 -10  -6 8.09035 2.36863   2
  -3 -10  -6 15.5359 2.73223   5
   3  10   6 9.97182 2.13349   6
  -4 -10  -6 7.45655 2.38431   2
  -4 -10  -6 7.95913 2.47135   5
  -1  -8   7 1.98622 2.25673   4
   0  -8   7 3.83196 1.97456   1
   0  -8   7 2.57699 2.25511   4
   1  -8   7 13.7270 2.86548   4
   1  -8   7 14.9194 2.57997   1
   2  -8   7 29.2639 3.63861   4
   2  -8   7 27.0838 3.12995   1
   3  -8   7 -1.7467 2.29018   4
   3  -8   7 -1.1039 2.07417   1
   3  -8   7 0.90512 1.74410   8
   4  -8   7 75.6455 5.37426   4
   4  -8   7 74.3160 4.96934   1
   4  -8   7 74.5777 4.23799   8
  -3  -7   7 7.82122 2.64147   3
  -3  -7   7 9.43092 2.70532  10
  -2  -7   7 0.62216 2.10128   3
  -2  -7   7 -3.5329 1.73700   4
  -1  -7   7 5.53001 2.24151   4
   0  -7   7 58.3910 3.64173   1
   0  -7   7 52.9542 4.32518   4
   1  -7   7 0.74263 1.78780   1
   1  -7   7 -3.7049 1.91210   4
   2  -7   7 3.78009 2.35963   4
   2  -7   7 9.21881 2.28014   1
   2  -7   7 7.61776 1.76503   8
   3  -7   7 4.43549 1.77806   8
   3  -7   7 0.06866 2.19324   4
   3  -7   7 4.78885 2.22382   1
   4  -7   7 22.4695 3.34683   4
   4  -7   7 15.5031 2.74720   1
   4  -7   7 16.6629 2.46311   8
   5  -7   7 -0.1723 2.15996   1
   5  -7   7 3.76497 2.06085   8
   5  -7   7 -1.4264 2.29206   4
  -4  -6   7 1.75020 2.43922  10
  -4  -6   7 6.33319 2.55794   3
  -3  -6   7 4.32211 2.06022   4
  -3  -6   7 6.68952 2.44504  10
  -3  -6   7 3.20468 2.27195   3
  -2  -6   7 5.48162 2.35411  10
  -2  -6   7 9.56217 2.30921   4
  -2  -6   7 7.01692 2.31602   3
  -1  -6   7 22.1273 2.15742   1
  -1  -6   7 18.6210 2.81129   4
   0  -6   7 1.41039 1.98879   4
   0  -6   7 -1.1994 1.49119   1
   1  -6   7 10.3378 2.02701   8
   1  -6   7 10.7370 2.47928   4
   1  -6   7 14.4311 2.24341   1
   2  -6   7 1.76832 2.08546   4
   2  -6   7 3.23816 1.88957   1
   2  -6   7 3.32921 1.40741   8
   3  -6   7 0.64363 1.54832   8
   3  -6   7 1.57913 2.12647   4
   3  -6   7 1.85024 1.93317   1
   4  -6   7 21.2087 3.15113   4
   4  -6   7 24.4197 2.59629   8
   4  -6   7 22.5769 2.99420   1
   5  -6   7 2.84672 2.18264   1
   5  -6   7 -0.9615 1.81097   8
   5  -6   7 0.88415 2.26900   4
   6  -6   7 5.09792 2.38915   1
   6  -6   7 0.45976 2.36593   4
   6  -6   7 0.13962 1.90351   8
   4   5  -7 8.69293 2.24823   9
  -4  -5   7 9.59939 2.58406   3
  -4  -5   7 15.7581 2.57092   4
  -4  -5   7 11.1706 2.73052  10
   3   5  -7 0.67414 1.65828   9
  -3  -5   7 0.37375 1.82287   4
  -3  -5   7 0.36371 2.14968  10
  -3  -5   7 -1.0533 1.87225   3
   2   5  -7 49.9443 3.21174   9
  -2  -5   7 44.3535 3.57391   3
  -2  -5   7 48.1192 3.72704   4
   1   5  -7 8.19329 1.71071   9
  -1  -5   7 9.78079 1.69210   1
  -1  -5   7 9.12028 2.21464   4
   0   5  -7 0.93845 1.24589   9
   0  -5   7 2.08179 1.91587   4
   0  -5   7 2.92368 1.50477   1
  -1   5  -7 41.1830 2.40357   9
   1  -5   7 37.9885 3.39997   4
   1  -5   7 42.6647 2.17775   8
   1  -5   7 40.8050 3.06738   1
  -2   5  -7 73.0946 2.85318   9
   2  -5   7 60.8287 3.69572   1
   2  -5   7 69.9656 2.96409   8
   2  -5   7 69.8654 4.27703   4
  -3   5  -7 0.79197 1.24359   7
  -3   5  -7 4.53527 1.37763   9
   3  -5   7 2.96241 1.98099   4
   3  -5   7 3.38417 1.49231   8
   3  -5   7 3.25537 1.87496   1
  -4   5  -7 6.21393 1.50449   7
   4  -5   7 1.32582 1.92433   1
   4  -5   7 8.12370 1.93243   8
   4  -5   7 7.90880 2.32440   4
  -5   5  -7 49.8986 2.94935   7
   5  -5   7 58.1554 4.21563   1
   5  -5   7 51.8990 4.22634   4
   5  -5   7 49.7403 3.31402   8
  -6   5  -7 7.80675 2.10481   7
   6  -5   7 10.7483 2.65627   4
   6  -5   7 5.90499 2.27338   1
   6  -5   7 8.32283 2.19632   8
   7  -5   7 160.306 6.54229   1
   7  -5   7 162.401 6.79825   4
   7  -5   7 173.900 6.39878   8
   5   4  -7 16.6915 2.84891   9
  -5  -4   7 20.5922 2.99988   3
  -5  -4   7 17.2343 3.14530  10
   4   4  -7 4.01731 2.01252   9
  -4  -4   7 0.88720 2.18059  10
  -4  -4   7 0.11196 1.94446   3
  -4  -4   7 -1.1569 1.72906   4
   3   4  -7 5.13269 1.90455   9
  -3  -4   7 1.41986 2.15247  10
  -3  -4   7 0.38979 1.85766   4
  -3  -4   7 5.60892 2.17939   3
   2   4  -7 103.982 4.24360   9
  -2  -4   7 105.713 4.80616   3
  -2  -4   7 102.369 4.73705   4
  -2  -4   7 112.933 5.18132  10
   1   4  -7 4.23950 1.60197   9
  -1  -4   7 2.55866 1.81775   3
  -1  -4   7 4.94733 1.43900   1
  -1  -4   7 3.05163 1.78835   4
   0   4  -7 51.7373 2.88587   9
   0  -4   7 54.0791 3.87509   4
   0  -4   7 58.7900 2.99500   1
  -1   4  -7 116.069 3.87024   9
   1  -4   7 123.774 5.02404   4
   1  -4   7 128.226 4.34243   1
   1  -4   7 122.905 3.17678   8
  -2   4  -7 7.98798 1.57955   9
  -2   4  -7 8.80054 1.56124   7
   2  -4   7 11.6315 1.49593   8
   2  -4   7 8.58578 2.18980   4
   2  -4   7 9.71655 1.95854   1
  -3   4  -7 44.7566 2.47457   2
  -3   4  -7 46.5964 2.65961   7
   3  -4   7 48.2293 3.76013   4
   3  -4   7 45.3960 2.67813   8
   3  -4   7 48.5925 3.49011   1
  -4   4  -7 28.0036 2.22034   2
  -4   4  -7 26.5005 2.17621   7
   4  -4   7 32.8411 3.24277   4
   4  -4   7 29.5553 2.45804   8
   4  -4   7 30.3193 2.99239   1
  -5   4  -7 261.403 6.40469   7
  -5   4  -7 255.544 5.90013   2
   5  -4   7 252.485 6.86077   8
   5  -4   7 254.648 7.43143   1
   5  -4   7 255.073 7.78683   4
  -6   4  -7 3.99684 1.69832   7
   6  -4   7 6.62538 2.15400   8
   6  -4   7 5.84417 2.20158   1
   6  -4   7 7.69851 2.45270   4
  -7   4  -7 41.3250 3.17353   7
   7  -4   7 35.8478 3.63153   1
   7  -4   7 36.5405 3.50679   8
   7  -4   7 41.1294 3.84215   4
  -8   4  -7 -2.8416 1.90392   7
   8  -4   7 -2.4595 2.22204   4
   8  -4   7 -2.2041 2.20563   8
   8  -4   7 2.75819 2.34421   1
   5   3  -7 1.93044 2.18174   9
  -5  -3   7 -0.1175 1.73176   4
  -5  -3   7 3.27488 2.27802  10
  -5  -3   7 -0.7445 1.94071   3
   4   3  -7 8.26240 2.28876   9
  -4  -3   7 10.2096 2.33864   4
  -4  -3   7 13.4642 2.62176  10
  -4  -3   7 9.53177 2.28631   3
   3   3  -7 33.8452 3.05314   9
  -3  -3   7 28.2404 3.00749   3
  -3  -3   7 30.8473 3.00307   4
  -3  -3   7 28.7367 3.08993  10
   2   3  -7 1.58005 1.63900   9
  -2  -3   7 0.31823 1.70651   3
  -2  -3   7 3.37799 1.83676   4
  -2  -3   7 3.81091 2.01515  10
   1   3  -7 3.02441 1.63044   9
  -1  -3   7 1.50050 1.62246   4
  -1  -3   7 2.88645 1.24366   1
  -1  -3   7 1.01828 1.65972   3
   0   3  -7 1.83554 1.47747   9
   0  -3   7 0.44205 1.34393   1
   0  -3   7 2.38464 1.68773   4
  -1   3  -7 608.949 11.7034   9
  -1   3  -7 609.362 11.6799   7
   1  -3   7 597.299 12.7377   4
   1  -3   7 606.362 10.4237   8
   1  -3   7 594.487 11.7322   1
  -2   3  -7 51.8041 1.58973   5
  -2   3  -7 51.3804 2.87918   9
  -2   3  -7 49.7638 2.72514   2
  -2   3  -7 50.4742 2.81669   7
   2  -3   7 52.4038 2.31885   8
   2  -3   7 54.3611 3.21571   1
   2  -3   7 51.2649 3.58538   4
  -3   3  -7 698.494 13.2059   2
  -3   3  -7 734.957 13.5065   7
   3  -3   7 726.621 14.8068   4
   3  -3   7 732.538 13.2659   8
   3  -3   7 716.961 14.1460   1
  -4   3  -7 27.4710 2.12644   2
  -4   3  -7 31.2823 2.39170   7
   4  -3   7 28.9342 2.35691   8
   4  -3   7 27.5395 2.65265   1
   4  -3   7 22.0190 2.75009   4
  -5   3  -7 85.7050 3.42107   2
  -5   3  -7 83.4850 3.68179   7
   5  -3   7 82.4225 3.88440   8
   5  -3   7 84.0122 4.44804   4
   5  -3   7 82.8251 4.30128   1
  -6   3  -7 71.3074 3.80703   7
  -6   3  -7 62.2606 3.33937   2
   6  -3   7 65.3093 4.25812   1
   6  -3   7 68.0828 4.35923   4
   6  -3   7 69.4484 3.99922   8
  -7   3  -7 6.54133 1.84195   2
  -7   3  -7 6.86787 2.06967   7
   7  -3   7 6.14322 2.29999   4
   7  -3   7 8.90298 2.36431   1
   7  -3   7 6.21019 2.21625   8
  -8   3  -7 1.92471 2.03564   7
   8  -3   7 4.55523 2.27248   8
   8  -3   7 6.38541 2.40871   1
   8  -3   7 3.81892 2.27611   4
   5   2  -7 8.95831 2.49996   9
  -5  -2   7 9.26640 2.55241  10
  -5  -2   7 7.91945 2.38389   3
  -5  -2   7 7.80178 2.23277   4
   4   2  -7 2.76283 2.04196   9
  -4  -2   7 0.18824 1.78595   3
  -4  -2   7 2.92485 2.01501  10
  -4  -2   7 3.21278 1.83766   4
   3   2  -7 21.6405 2.64666   9
  -3  -2   7 18.4020 2.59809  10
  -3  -2   7 15.1543 2.45447   3
  -3  -2   7 20.7139 2.55084   4
   2   2  -7 13.1360 2.12876   9
  -2  -2   7 11.3568 2.19367   4
  -2  -2   7 10.7691 2.19998   3
  -2  -2   7 8.38065 2.11833  10
   1   2  -7 270.555 6.84012   9
  -1  -2   7 273.647 7.17645   3
  -1  -2   7 265.615 7.26648   4
   0   2  -7 6.50499 1.70518   9
   0  -2   7 6.91650 1.91367   4
   0  -2   7 8.46962 1.54628   1
  -1   2  -7 406.444 8.56817   7
  -1   2  -7 395.338 8.50319   9
  -1   2  -7 386.495 8.46511   2
   1  -2   7 408.966 9.40581   4
   1  -2   7 402.267 7.08798   8
   1  -2   7 394.293 8.41098   1
  -2   2  -7 62.4093 3.15244   9
  -2   2  -7 60.1734 3.10127   7
  -2   2  -7 61.6156 3.05072   2
  -2   2  -7 64.6484 1.78753   5
   2  -2   7 59.6888 3.27154   1
   2  -2   7 62.7118 2.34056   8
   2  -2   7 63.8130 3.60028   4
  -3   2  -7 33.1275 2.63678   2
  -3   2  -7 39.4139 2.73847   7
   3  -2   7 37.9348 2.31621   8
   3  -2   7 33.4642 2.59011   1
   3  -2   7 37.9596 3.09008   4
  -4   2  -7 18.1336 2.06338   7
  -4   2  -7 16.2673 1.96392   2
   4  -2   7 16.0030 1.93752   8
   4  -2   7 20.1372 2.54524   4
   4  -2   7 15.2668 2.16601   1
  -5   2  -7 44.1393 2.94893   2
  -5   2  -7 37.2565 3.00908   7
   5  -2   7 33.4578 2.97103   1
   5  -2   7 36.3413 3.12522   4
   5  -2   7 31.0148 2.67599   8
  -6   2  -7 49.0229 3.16689   2
  -6   2  -7 44.2511 3.34316   7
   6  -2   7 50.5935 3.86346   4
   6  -2   7 44.9422 3.32935   8
   6  -2   7 49.4028 3.77046   1
  -7   2  -7 4.14000 1.80845   2
  -7   2  -7 4.72269 1.98084   7
   7  -2   7 3.51371 2.16324   1
   7  -2   7 9.96203 2.38295   4
   7  -2   7 9.57181 2.26441   8
  -8   2  -7 7.29446 2.16706   2
  -8   2  -7 5.27063 2.17577   7
   8  -2   7 6.94964 2.45002   1
   8  -2   7 6.44907 2.31948   4
   8  -2   7 7.28405 2.29500   8
  -9   2  -7 16.9276 3.01609   7
   6   1  -7 7.99356 2.72040   9
  -6  -1   7 9.07865 2.78746   3
  -6  -1   7 3.35736 2.60019  10
  -6  -1   7 9.85010 2.42623   6
   5   1  -7 0.54290 2.15115   9
  -5  -1   7 -1.8071 1.92702   3
  -5  -1   7 -1.3637 2.02020  10
  -5  -1   7 -0.1872 1.82802   4
   4   1  -7 -0.7110 1.80706   9
  -4  -1   7 -0.8971 1.67674   4
  -4  -1   7 -0.0151 1.87224  10
  -4  -1   7 0.97715 1.77783   3
   3   1  -7 266.599 7.44100   9
  -3  -1   7 261.218 7.30500   4
  -3  -1   7 254.574 7.34517   3
  -3  -1   7 271.568 7.69877  10
   2   1  -7 19.8086 2.49922   9
  -2  -1   7 20.0479 2.45973   4
  -2  -1   7 20.4063 2.42026   3
  -2  -1   7 21.8136 2.51612  10
   1   1  -7 681.264 13.4965   9
  -1  -1   7 695.174 13.6186   3
  -1  -1   7 675.074 13.8784   4
   0   1  -7 186.855 5.40565   9
   0   1  -7 191.279 5.47844   2
   0  -1   7 201.770 5.50059   3
   0  -1   7 194.219 5.93267   4
  -1   1  -7 187.003 5.22623   2
  -1   1  -7 192.437 5.29986   9
  -1   1  -7 190.423 5.20558   7
   1  -1   7 185.680 3.77746   8
   1  -1   7 186.950 5.02124   1
   1  -1   7 187.309 5.70193   4
  -2   1  -7 7.26571 1.60218   7
  -2   1  -7 5.93052 1.58710   2
  -2   1  -7 7.47498 0.87691   5
   2  -1   7 7.53725 1.13907   8
   2  -1   7 5.48275 1.73083   4
   2  -1   7 6.62589 1.61984   1
  -3   1  -7 117.361 4.10186   2
  -3   1  -7 125.846 4.21120   7
   3  -1   7 121.809 4.35577   1
   3  -1   7 120.148 4.52963   4
   3  -1   7 116.765 3.53751   8
  -4   1  -7 4.05447 1.63549   2
  -4   1  -7 1.14986 1.44003   7
   4  -1   7 0.54337 1.56924   1
   4  -1   7 0.78023 1.30727   8
   4  -1   7 2.68653 1.70811   4
  -5   1  -7 2.81649 1.65081   2
  -5   1  -7 4.43817 1.74558   7
   5  -1   7 3.22019 1.64298   8
   5  -1   7 2.33599 1.81337   4
   5  -1   7 2.12425 1.76509   1
  -6   1  -7 33.4020 2.81649   7
  -6   1  -7 33.9207 2.66266   2
   6  -1   7 34.7151 2.96433   8
   6  -1   7 27.2775 2.84193   1
   6  -1   7 33.6772 2.99650   4
  -7   1  -7 38.4360 3.06719   2
  -7   1  -7 39.8338 3.25383   7
   7  -1   7 37.8614 3.21848   4
   7  -1   7 34.2310 3.16549   1
   7  -1   7 45.2521 3.42720   8
  -8   1  -7 9.17496 2.30486   2
  -8   1  -7 2.11987 2.20996   7
   8  -1   7 7.91835 2.39972   1
   8  -1   7 10.5040 2.23717   4
   8  -1   7 5.10027 2.19372   8
  -9   1  -7 1.20942 2.24044   7
  -9   1  -7 0.74892 2.20063   2
   9  -1   7 5.39547 2.34357   1
   9  -1   7 0.80138 2.25232   8
   6   0  -7 12.4476 2.92664   9
  -6   0   7 12.1216 2.78404   3
  -6   0   7 10.7690 2.48837   6
  -6   0   7 11.8189 2.48752   4
  -6   0   7 15.1106 2.99826  10
   5   0  -7 557.318 13.3583   9
  -5   0   7 563.941 13.1957  10
  -5   0   7 557.825 13.1510   3
  -5   0   7 580.033 12.8161   4
   4   0  -7 31.5073 3.28443   9
  -4   0   7 32.6262 3.23287   3
  -4   0   7 31.6349 3.06682   4
  -4   0   7 36.4770 3.43197  10
   3   0  -7 544.883 12.1183   9
  -3   0   7 543.872 12.0816  10
  -3   0   7 554.214 12.1112   4
  -3   0   7 547.750 11.9574   3
   2   0  -7 170.958 5.53278   9
   2   0  -7 165.001 3.57929   5
  -2   0   7 167.406 5.51676  10
  -2   0   7 163.219 5.69152   4
  -2   0   7 162.436 5.41082   3
   1   0  -7 105.894 4.26621   9
   1   0  -7 102.642 2.36391   5
  -1   0   7 98.0649 4.05613   3
  -1   0   7 105.915 4.48564   4
  -1   0   7 109.445 4.23975  10
   0   0  -7 27.0768 1.05261   8
   0   0  -7 24.4106 2.45041   9
   0   0  -7 29.7007 2.40673   2
   0   0  -7 23.2860 2.20701   7
   0   0   7 26.6804 2.21732   3
   0   0   7 29.7104 2.70040   4
  -1   0  -7 89.0657 2.17601   5
  -1   0  -7 90.2406 3.69500   9
  -1   0  -7 88.5038 3.61445   7
  -1   0  -7 80.3216 3.49965   2
  -1   0  -7 87.0960 2.34841   8
   1   0   7 85.8284 3.35877   3
   1   0   7 80.2559 3.80287   4
  -2   0  -7 22.0230 2.15641   7
  -2   0  -7 19.5599 2.06340   2
   2   0   7 22.0689 1.70343   8
   2   0   7 18.3997 2.20396   4
   2   0   7 21.3188 2.01210   1
  -3   0  -7 18.4309 2.04247   7
  -3   0  -7 19.0192 2.12924   2
   3   0   7 20.0117 1.75482   8
   3   0   7 22.7767 2.28166   1
   3   0   7 18.4863 2.20886   4
  -4   0  -7 -1.7919 1.50769   2
  -4   0  -7 -0.6545 1.42390   7
   4   0   7 -0.7903 1.48468   4
   4   0   7 1.71847 1.62950   1
   4   0   7 0.02482 1.26294   8
  -5   0  -7 16.9299 2.21503   2
  -5   0  -7 17.9614 2.27917   7
   5   0   7 17.7505 2.15154   8
   5   0   7 20.6357 2.44975   1
   5   0   7 20.5212 2.34634   4
  -6   0  -7 3.65666 1.86988   2
  -6   0  -7 -1.4621 1.60540   7
   6   0   7 0.20196 1.74073   8
   6   0   7 2.85986 1.76681   4
   6   0   7 3.39456 1.84281   1
  -7   0  -7 3.52565 2.09138   2
  -7   0  -7 7.68836 2.13555   7
   7   0   7 8.27835 2.00569   4
   7   0   7 9.45194 2.27509   1
   7   0   7 7.83439 2.19279   8
  -8   0  -7 21.9282 2.96262   7
  -8   0  -7 17.6649 2.76463   2
   8   0   7 19.3275 2.44294   4
   8   0   7 16.9335 2.78162   8
   8   0   7 21.0765 2.90761   1
  -9   0  -7 29.1452 3.35528   7
  -9   0  -7 27.0219 3.22433   2
   9   0   7 29.2032 3.40827   1
   9   0   7 30.4724 3.54259   8
   6  -1  -7 112.180 6.01927   9
  -6   1   7 102.786 5.26136   6
  -6   1   7 108.382 5.92556  10
  -6   1   7 96.5656 5.47525   3
   5  -1  -7 44.0527 3.89753   9
  -5   1   7 46.0506 3.86379   3
  -5   1   7 51.5622 3.87221   6
  -5   1   7 59.3255 4.62629  10
  -5   1   7 44.5556 3.72703   4
   4  -1  -7 174.739 6.46459   9
   4  -1  -7 178.258 4.70019   5
  -4   1   7 186.928 6.44034   3
  -4   1   7 181.372 6.23929   4
  -4   1   7 194.733 6.50156  10
   3  -1  -7 18.6237 1.61222   5
   3  -1  -7 14.3662 2.45794   9
  -3   1   7 14.4059 2.38826   4
  -3   1   7 18.1550 2.45539   3
  -3   1   7 16.6109 2.44756  10
   2  -1  -7 37.7616 1.97410   5
   2  -1  -7 37.1808 3.08185   9
  -2   1   7 42.4900 3.46308   4
  -2   1   7 35.1707 2.79473   3
  -2   1   7 42.4039 3.15741  10
   1  -1  -7 13.2400 2.15963   9
   1  -1  -7 17.2513 1.29470   5
   1  -1  -7 14.2446 1.08706   8
   1  -1  -7 13.9115 2.09480   2
  -1   1   7 16.3815 2.27016   4
  -1   1   7 17.1477 2.13427  10
  -1   1   7 17.2118 2.04188   3
   0  -1  -7 9.76184 1.85690   2
   0  -1  -7 8.32707 1.85468   9
   0  -1  -7 8.09642 1.75892   7
   0  -1  -7 8.38162 1.02626   5
   0  -1  -7 8.39408 0.88325   8
   0   1   7 8.99032 1.56317   3
   0   1   7 9.17351 1.67949  10
   0   1   7 8.01970 1.83037   4
  -1  -1  -7 80.7889 3.68963   9
  -1  -1  -7 81.1428 2.39698   5
  -1  -1  -7 79.9775 3.52193   7
  -1  -1  -7 76.0676 3.53839   2
   1   1   7 85.0277 3.84332   4
   1   1   7 84.2286 3.22588   3
  -2  -1  -7 4.23762 0.96710   5
  -2  -1  -7 4.11567 1.65951   2
  -2  -1  -7 4.02426 1.57276   7
   2   1   7 5.74223 1.18014   8
   2   1   7 2.28558 1.49634   4
  -3  -1  -7 104.939 4.03588   2
  -3  -1  -7 102.880 3.96722   7
   3   1   7 106.444 3.39620   8
   3   1   7 101.902 4.11674   4
  -4  -1  -7 41.1805 3.08519   2
  -4  -1  -7 38.8957 2.98632   7
   4   1   7 37.2878 2.78784   1
   4   1   7 41.1744 2.87611   4
   4   1   7 38.6630 2.64281   8
  -5  -1  -7 68.1707 3.68644   2
  -5  -1  -7 73.5704 3.95687   7
   5   1   7 68.2695 3.53957   4
   5   1   7 66.3768 3.30738   8
   5   1   7 70.3565 3.66601   1
  -6  -1  -7 0.58961 1.79520   2
  -6  -1  -7 2.33232 1.81696   7
   6   1   7 1.34006 1.55284   4
   6   1   7 -0.9189 1.64154   1
   6   1   7 0.82944 1.65777   8
  -7  -1  -7 -1.3392 1.91759   2
  -7  -1  -7 -2.0399 1.90254   7
   7   1   7 -1.4631 1.48151   4
   7   1   7 1.77001 1.87214   1
   7   1   7 -0.4817 1.70817   8
  -8  -1  -7 69.3363 4.51579   2
  -8  -1  -7 69.0920 4.53438   7
   8   1   7 69.0482 4.29114   1
   8   1   7 66.1919 4.29263   8
  -9  -1  -7 147.299 6.33319   7
  -9  -1  -7 132.493 6.08204   2
   9   1   7 131.921 6.06141   8
   6  -2  -7 72.5017 5.33132   9
  -6   2   7 80.7486 5.39638  10
  -6   2   7 69.9115 4.60680   6
  -6   2   7 67.1492 5.03598   3
   5  -2  -7 125.024 5.70724   9
   5  -2  -7 115.459 4.21989   5
  -5   2   7 124.320 5.60363   3
  -5   2   7 120.760 5.50692   4
  -5   2   7 120.213 5.45788   6
  -5   2   7 127.089 5.84008  10
   4  -2  -7 4.54905 1.45586   5
   4  -2  -7 3.79642 2.08529   9
  -4   2   7 5.47424 2.05154   6
  -4   2   7 3.94378 2.06979   3
  -4   2   7 4.47000 2.19230   4
  -4   2   7 4.40453 1.98322  10
   3  -2  -7 23.3807 1.75814   8
   3  -2  -7 21.1140 2.71346   9
   3  -2  -7 25.1047 1.94459   5
  -3   2   7 28.2433 2.82809   3
  -3   2   7 25.3928 2.84491   4
  -3   2   7 27.8420 2.86773  10
   2  -2  -7 0.26119 1.12764   5
   2  -2  -7 -2.3170 1.51229   9
  -2   2   7 -0.8151 1.42993  10
  -2   2   7 -2.1496 1.57139   4
  -2   2   7 -1.8467 1.46781   3
   1  -2  -7 17.0103 2.21197   2
   1  -2  -7 16.1574 1.51824   5
   1  -2  -7 17.3629 2.36847   9
  -1   2   7 15.3387 1.92333   3
  -1   2   7 12.3953 1.93038  10
  -1   2   7 17.2696 2.26822   4
   0  -2  -7 88.0287 2.76184   5
   0  -2  -7 88.1587 3.87400   2
   0  -2  -7 87.9304 3.85246   7
   0  -2  -7 92.7515 3.98150   9
   0   2   7 93.5942 4.11785   4
   0   2   7 88.7173 3.35901   3
   0   2   7 90.6797 3.59531  10
  -1  -2  -7 44.8987 2.12980   5
  -1  -2  -7 44.6447 3.19631   2
  -1  -2  -7 44.1780 3.10930   9
  -1  -2  -7 43.8021 2.95425   7
   1   2   7 46.3378 3.23595   4
   1   2   7 42.0483 2.35676   3
  -2  -2  -7 58.6638 3.23948   7
  -2  -2  -7 59.9289 2.41450   5
  -2  -2  -7 57.5634 3.37263   2
   2   2   7 68.1958 3.50583   4
   2   2   7 55.6423 2.39683   3
  -3  -2  -7 7.32774 1.80328   2
  -3  -2  -7 6.87868 1.75416   7
   3   2   7 7.66807 1.51475   8
   3   2   7 10.0052 1.84049   4
  -4  -2  -7 4.69561 1.76408   2
  -4  -2  -7 -0.6362 1.50204   7
   4   2   7 1.01301 1.41165   8
   4   2   7 2.23495 1.48475   4
  -5  -2  -7 2.50946 1.88605   2
  -5  -2  -7 0.38314 1.69279   7
   5   2   7 1.62686 1.57415   8
   5   2   7 1.41064 1.49705   4
  -6  -2  -7 1.19549 1.81136   7
  -6  -2  -7 -0.7641 1.86088   2
   6   2   7 1.82624 1.55270   4
   6   2   7 -0.5995 1.71174   8
  -7  -2  -7 82.4231 4.53183   7
  -7  -2  -7 81.3400 4.53200   2
   7   2   7 82.9329 3.65229   4
   7   2   7 86.1972 4.38328   8
  -8  -2  -7 -0.6176 2.16412   2
  -8  -2  -7 1.62986 2.23928   7
   8   2   7 2.27500 2.12593   8
  -9  -2  -7 336.740 9.73925   2
  -9  -2  -7 361.229 9.93604   7
   5  -3  -7 20.3155 3.11524   9
   5  -3  -7 20.0996 2.28206   5
  -5   3   7 17.6401 2.75263   6
  -5   3   7 21.8378 3.08962   3
  -5   3   7 24.0062 3.14793  10
   4  -3  -7 0.91393 1.40083   5
   4  -3  -7 3.09277 2.13004   9
  -4   3   7 2.13726 1.96328   3
  -4   3   7 -0.3307 1.87026  10
  -4   3   7 6.86273 2.14633   6
  -4   3   7 1.68419 1.98192   4
   3  -3  -7 43.8119 2.67632   5
   3  -3  -7 43.3874 3.63835   9
  -3   3   7 43.8941 3.28309   3
  -3   3   7 45.1235 3.69746   4
  -3   3   7 39.7462 3.15141  10
  -3   3   7 44.7248 3.50282   6
   2  -3  -7 0.07900 1.65944   9
   2  -3  -7 1.33222 1.26245   5
  -2   3   7 1.42801 1.69637   6
  -2   3   7 -0.1636 1.49260  10
  -2   3   7 -2.1453 1.63192   4
  -2   3   7 1.00511 1.56869   3
   1  -3  -7 59.7484 3.52820   2
   1  -3  -7 67.7777 2.81865   5
   1  -3  -7 64.0221 3.75588   9
  -1   3   7 62.3746 3.74341   4
  -1   3   7 65.0181 3.26372  10
  -1   3   7 64.2081 3.22686   3
   0  -3  -7 91.3761 4.10194   7
   0  -3  -7 92.1738 4.09571   2
   0  -3  -7 97.9688 4.18069   9
   0  -3  -7 91.5590 3.14586   5
   0   3   7 95.1699 4.24595   4
   0   3   7 90.6450 3.37160   3
   0   3   7 97.5844 3.56487  10
  -1  -3  -7 23.8368 2.34783   2
  -1  -3  -7 26.0312 2.33752   7
  -1  -3  -7 29.8300 2.65663   9
  -1  -3  -7 27.9288 1.91535   5
   1   3   7 26.8628 2.00012   3
   1   3   7 31.7765 2.75184   4
   1   3   7 28.3939 2.08062  10
  -2  -3  -7 22.8793 2.37496   2
  -2  -3  -7 26.4850 1.94491   5
  -2  -3  -7 25.0058 2.42522   7
   2   3   7 28.3034 1.76853   3
   2   3   7 26.0786 2.45264   4
  -3  -3  -7 9.20919 1.47030   5
  -3  -3  -7 7.75363 1.78402   7
  -3  -3  -7 9.20891 1.99196   2
   3   3   7 9.34808 1.79373   4
   3   3   7 4.19923 1.55821   8
   3   3   7 7.12219 0.98542   3
  -4  -3  -7 33.3510 2.78598   2
  -4  -3  -7 36.6901 2.84186   7
   4   3   7 39.1005 1.68947   3
   4   3   7 36.4842 2.73582   8
   4   3   7 39.7132 2.80562   4
  -5  -3  -7 386.425 9.12178   2
  -5  -3  -7 371.497 8.98051   7
   5   3   7 378.652 8.33140   4
   5   3   7 384.595 8.67938   8
  -6  -3  -7 109.323 4.89007   2
  -6  -3  -7 106.099 4.70686   7
   6   3   7 107.346 4.51507   8
   6   3   7 105.530 3.89140   4
  -7  -3  -7 1136.64 21.8820   7
  -7  -3  -7 1162.98 21.9548   2
   7   3   7 1154.83 21.6729   8
  -8  -3  -7 1.40376 2.38203   2
  -8  -3  -7 3.83618 2.29496   7
   8   3   7 2.78148 2.27711   8
  -9  -3  -7 147.092 6.57126   7
  -9  -3  -7 153.574 6.82813   2
   9   3   7 167.611 6.64709   8
   5  -4  -7 -0.8304 2.08431   9
   5  -4  -7 2.10972 1.73771   5
  -5   4   7 -0.6436 1.99351  10
  -5   4   7 -2.9690 1.96111   3
  -5   4   7 -2.3928 1.92753   6
   4  -4  -7 4.21747 1.76755   5
   4  -4  -7 5.15050 1.57692   1
   4  -4  -7 2.90039 2.04398   9
  -4   4   7 4.87343 2.04141   6
  -4   4   7 5.71010 2.17509  10
  -4   4   7 3.31115 2.06539   3
   3  -4  -7 11.9439 1.87472   5
   3  -4  -7 14.3966 2.55046   9
  -3   4   7 9.05840 2.31791   4
  -3   4   7 9.89501 2.13340   3
  -3   4   7 13.5100 2.42982   6
  -3   4   7 9.67094 2.11314  10
   2  -4  -7 3.99469 1.86871   9
   2  -4  -7 4.19408 1.59926   5
  -2   4   7 8.01374 1.83497   3
  -2   4   7 5.33798 1.71668  10
  -2   4   7 9.21323 2.13154   6
  -2   4   7 3.28117 2.01433   4
   1  -4  -7 4.28172 1.48415   5
   1  -4  -7 2.86514 1.81873   2
   1  -4  -7 2.79518 1.79652   9
  -1   4   7 2.27776 1.43847  10
  -1   4   7 -0.1024 1.57140   6
  -1   4   7 2.36381 1.87384   4
  -1   4   7 2.12009 1.46908   3
   0  -4  -7 24.2359 2.64969   9
   0  -4  -7 24.3735 2.52421   7
   0  -4  -7 27.8128 2.12776   5
   0  -4  -7 23.2684 2.51783   2
   0   4   7 28.2914 2.08481   3
   0   4   7 27.5487 2.74176   4
   0   4   7 28.8715 2.13884  10
   0   4   7 24.3372 2.42256   6
  -1  -4  -7 5.70973 1.88387   2
  -1  -4  -7 8.22933 1.98192   9
  -1  -4  -7 6.01906 1.77120   7
  -1  -4  -7 2.57749 1.30902   5
   1   4   7 5.73530 1.25669  10
   1   4   7 9.92619 1.29933   3
   1   4   7 5.31574 1.78350   4
   1   4   7 6.15707 1.63243   6
  -2  -4  -7 29.0888 2.70989   2
  -2  -4  -7 28.8320 2.18357   5
  -2  -4  -7 25.5832 2.43308   7
   2   4   7 31.6836 1.98211  10
   2   4   7 28.9487 2.59975   4
   2   4   7 28.6617 1.65572   3
  -3  -4  -7 820.943 15.9628   2
  -3  -4  -7 830.090 15.1976   5
  -3  -4  -7 826.710 15.8550   7
   3   4   7 847.745 15.7453   4
  -4  -4  -7 0.92591 1.80998   2
  -4  -4  -7 1.70910 1.67295   7
   4   4   7 1.19359 1.62430   8
   4   4   7 3.42213 1.58088   4
  -5  -4  -7 748.865 15.0659   2
  -5  -4  -7 781.671 15.0399   7
   5   4   7 748.038 13.3878   6
   5   4   7 732.103 14.5695   8
   5   4   7 727.873 13.9651   4
  -6  -4  -7 195.647 6.61291   2
  -6  -4  -7 193.226 6.30893   7
   6   4   7 181.241 6.16078   8
   6   4   7 205.314 5.19899   4
  -7  -4  -7 16.1618 2.84110   2
  -7  -4  -7 8.18128 2.43285   7
   7   4   7 14.0372 2.51985   8
  -8  -4  -7 24.7854 3.22615   7
  -8  -4  -7 29.3889 3.48144   2
   8   4   7 30.8869 3.38758   8
  -9  -4  -7 18.7478 3.39978   2
  -9  -4  -7 15.0262 3.15643   7
   9   4   7 19.7600 3.41839   8
   5  -5  -7 1.11422 1.85607   5
   5  -5  -7 0.38029 2.23005   9
  -5   5   7 -2.1664 1.94383   3
  -5   5   7 0.80299 2.14907  10
  -5   5   7 -0.2031 2.13909   6
   4  -5  -7 1.79008 1.65654   1
   4  -5  -7 2.43521 1.79450   5
   4  -5  -7 3.40066 2.07434   9
  -4   5   7 0.00049 1.94063  10
  -4   5   7 -2.8162 1.90794   6
  -4   5   7 -0.0350 1.87372   3
   3  -5  -7 2.73521 1.62957   5
   3  -5  -7 1.78360 1.93482   9
  -3   5   7 2.25186 1.79120   3
  -3   5   7 0.36463 1.79905   6
  -3   5   7 2.04266 1.73162  10
   2  -5  -7 6.53471 1.79241   5
   2  -5  -7 5.89128 1.99542   9
  -2   5   7 5.84568 1.77179  10
  -2   5   7 4.62554 2.16270   4
  -2   5   7 4.06239 1.93545   6
  -2   5   7 9.25485 1.90709   3
   1  -5  -7 23.5182 2.65490   9
   1  -5  -7 30.5934 2.46301   5
   1  -5  -7 29.4235 2.73357   2
  -1   5   7 29.2595 2.40830   3
  -1   5   7 26.3912 2.32572  10
  -1   5   7 28.2937 2.91731   4
  -1   5   7 25.9796 2.70365   6
   0  -5  -7 55.2636 3.62030   9
   0  -5  -7 59.1969 3.17678   5
   0  -5  -7 52.9768 3.43226   7
   0  -5  -7 57.6193 3.51933   2
   0   5   7 56.4663 2.74490   3
   0   5   7 52.7022 2.70518  10
   0   5   7 53.1933 3.71165   4
   0   5   7 54.3798 3.53261   6
  -1  -5  -7 641.617 12.9684   7
  -1  -5  -7 648.689 13.1024   2
  -1  -5  -7 621.309 12.3878   5
  -1  -5  -7 631.687 13.1468   9
   1   5   7 644.690 11.7494  10
   1   5   7 650.845 13.3598   4
   1   5   7 665.118 11.5606   3
   1   5   7 653.386 13.0508   6
  -2  -5  -7 14.7897 1.89310   5
  -2  -5  -7 16.1368 2.20030   7
  -2  -5  -7 11.6521 2.20273   2
   2   5   7 12.3110 1.95925   6
   2   5   7 14.6431 2.15535   4
   2   5   7 16.4745 1.37710  10
   2   5   7 14.4845 1.06561   3
  -3  -5  -7 481.593 10.4634   7
  -3  -5  -7 475.631 10.0201   5
  -3  -5  -7 491.495 10.7251   2
   3   5   7 482.376 10.3232   4
   3   5   7 482.090 8.59893  10
   3   5   7 483.108 9.94252   6
  -4  -5  -7 75.4083 3.49289   5
  -4  -5  -7 75.9497 4.21336   2
  -4  -5  -7 74.1872 3.92068   7
   4   5   7 74.5188 3.11643   6
   4   5   7 76.3136 3.45136   4
  -5  -5  -7 149.301 5.60052   2
  -5  -5  -7 146.236 5.48357   7
   5   5   7 149.645 4.55563   4
   5   5   7 143.432 4.04099   6
  -6  -5  -7 -0.5278 2.03087   2
  -6  -5  -7 -0.9977 1.76571   7
   6   5   7 1.91006 2.06364   8
   6   5   7 0.50714 1.90005   4
  -7  -5  -7 82.2037 4.74471   7
  -7  -5  -7 75.0594 4.88704   2
   7   5   7 86.3727 4.85265   8
  -8  -5  -7 0.73724 2.28273   7
  -8  -5  -7 1.76499 2.65682   2
   8   5   7 2.18607 2.25884   8
   4  -6  -7 8.97060 2.07508   1
   4  -6  -7 4.83482 2.05076   5
   4  -6  -7 7.00026 2.37598   9
  -4   6   7 5.12761 2.33305   6
  -4   6   7 5.39572 2.18841  10
  -4   6   7 4.58235 2.20617   3
   3  -6  -7 8.03353 2.34715   9
   3  -6  -7 4.98866 1.84400   1
   3  -6  -7 8.59084 2.03798   5
  -3   6   7 7.48643 2.04789   3
  -3   6   7 10.8754 2.51816   6
  -3   6   7 3.81417 1.90001  10
   2  -6  -7 5.77451 2.06823   9
   2  -6  -7 5.13129 1.89274   5
  -2   6   7 5.16862 2.09316   6
  -2   6   7 5.54318 1.75719  10
  -2   6   7 4.15840 1.71532   3
   1  -6  -7 323.647 7.72925   5
   1  -6  -7 304.981 7.92921   2
   1  -6  -7 316.014 8.24192   9
  -1   6   7 311.269 7.29346   3
  -1   6   7 320.615 8.46687   6
  -1   6   7 313.458 7.32706  10
   0  -6  -7 2.12484 1.81595   9
   0  -6  -7 -1.4188 1.56557   7
   0  -6  -7 2.43959 1.80168   2
   0  -6  -7 -0.4270 1.53598   5
   0   6   7 1.04681 1.60430   6
   0   6   7 1.44770 1.15561   3
   0   6   7 -0.0979 1.14927  10
   0   6   7 -0.0068 1.75299   4
  -1  -6  -7 378.088 8.90267   7
  -1  -6  -7 383.024 9.08391   2
  -1  -6  -7 376.589 8.56169   5
  -1  -6  -7 377.402 9.02466   9
   1   6   7 374.903 8.92697   6
   1   6   7 375.550 9.15743   4
   1   6   7 387.828 7.36126   3
   1   6   7 374.539 7.43064  10
  -2  -6  -7 25.8220 2.46649   5
  -2  -6  -7 27.5619 2.78060   2
  -2  -6  -7 32.5146 2.78951   7
   2   6   7 33.0979 2.66576   6
   2   6   7 32.6037 1.59745  10
   2   6   7 35.7748 2.92488   4
  -3  -6  -7 135.182 5.27648   2
  -3  -6  -7 130.664 4.60941   5
  -3  -6  -7 135.775 4.90687   7
   3   6   7 130.754 4.45273   6
   3   6   7 122.028 4.69643   4
  -4  -6  -7 32.4656 2.86768   7
  -4  -6  -7 26.6569 2.89210   2
  -4  -6  -7 36.1941 2.83927   5
   4   6   7 29.2471 2.20724   6
   4   6   7 30.4540 2.55738   4
  -5  -6  -7 1.11991 2.14093   2
  -5  -6  -7 1.49948 1.90085   7
  -5  -6  -7 -1.8421 1.53789   5
   5   6   7 1.05996 1.32118   4
   5   6   7 -0.3200 1.14522   6
  -6  -6  -7 7.62511 2.47453   2
  -6  -6  -7 -0.9644 1.91937   7
  -7  -6  -7 45.2385 3.83239   7
  -7  -6  -7 58.4000 4.44587   2
   7   6   7 58.2125 4.29825   8
  -8  -6  -7 6.17083 2.80925   2
  -8  -6  -7 3.80562 2.50281   7
   8   6   7 2.32311 2.58427   8
   3  -7  -7 248.510 7.29912   5
   3  -7  -7 250.828 7.80784   9
   3  -7  -7 254.302 7.25363   1
  -3   7   7 246.390 8.09398   6
  -3   7   7 260.851 7.43314   3
  -3   7   7 253.537 7.30246  10
   2  -7  -7 6.64737 2.10044   9
   2  -7  -7 9.21201 2.18488   5
  -2   7   7 6.13052 1.73400  10
  -2   7   7 5.76588 2.12518   6
  -2   7   7 3.17279 1.74176   3
   1  -7  -7 177.407 5.84016   2
   1  -7  -7 193.406 6.17954   9
   1  -7  -7 181.410 5.86188   5
  -1   7   7 186.887 5.19495  10
  -1   7   7 184.587 5.34363   3
  -1   7   7 191.514 6.47204   6
   0  -7  -7 248.873 6.80005   2
   0  -7  -7 232.610 6.87147   9
   0  -7  -7 234.576 6.62280   5
   0   7   7 247.382 5.74975   3
   0   7   7 250.186 7.23258   6
   0   7   7 231.471 5.58328  10
  -1  -7  -7 1.69901 1.72861   7
  -1  -7  -7 3.54926 1.91659   2
  -1  -7  -7 1.15324 1.72158   5
  -1  -7  -7 2.81067 1.84570   9
   1   7   7 0.40680 1.62528   6
  -2  -7  -7 45.9858 3.59005   9
  -2  -7  -7 41.5102 3.30176   7
  -2  -7  -7 44.9488 3.24061   5
  -2  -7  -7 47.4088 3.73853   2
   2   7   7 41.5569 3.22843   6
  -3  -7  -7 24.2948 2.61746   5
  -3  -7  -7 27.6744 2.70162   7
  -3  -7  -7 25.3444 2.87655   2
   3   7   7 29.0166 2.54092   6
  -4  -7  -7 75.4174 4.20576   7
  -4  -7  -7 74.1259 4.10403   5
  -4  -7  -7 78.1379 4.56732   2
   4   7   7 76.3717 3.38219   6
  -5  -7  -7 6.49462 2.02793   5
  -5  -7  -7 7.68785 2.41834   2
  -5  -7  -7 8.01861 2.14665   7
  -6  -7  -7 7.49004 2.31618   7
  -6  -7  -7 8.50887 2.67818   2
  -6  -7  -7 9.25608 2.21119   5
  -7  -7  -7 -2.9897 2.42454   2
  -7  -7  -7 2.49043 2.21580   7
  -7  -7  -7 4.42421 2.03257   5
   3  -8  -7 23.0563 2.92688   1
   3  -8  -7 24.5209 3.08056   9
   3  -8  -7 33.7076 3.32559   5
  -3   8   7 33.6359 3.64069   6
  -3   8   7 32.3570 3.10531   3
  -3   8   7 23.2665 3.49406  10
   2  -8  -7 63.4221 4.06660   1
   2  -8  -7 63.2481 4.06843   5
   2  -8  -7 68.1075 4.21599   9
  -2   8   7 66.5029 4.75273   6
  -2   8   7 66.1516 3.81172   3
   1  -8  -7 -1.3972 1.74747   9
   1  -8  -7 0.59610 1.64366   2
   1  -8  -7 -1.5482 1.79104   5
  -1   8   7 1.71067 1.99170   6
   0  -8  -7 82.3462 4.18252   2
   0  -8  -7 86.9606 4.31595   9
   0  -8  -7 82.2045 4.25390   5
   0   8   7 80.4713 4.49074   6
  -1  -8  -7 2.73025 1.85869   5
  -1  -8  -7 2.75331 1.92387   2
  -1  -8  -7 2.17397 1.88144   9
  -1  -8  -7 0.90126 1.72132   7
   1   8   7 2.33410 1.80253   6
  -2  -8  -7 101.903 4.54861   7
  -2  -8  -7 103.502 4.81932   2
  -2  -8  -7 102.811 4.66186   9
  -2  -8  -7 90.5619 4.39555   5
   2   8   7 95.0346 4.38407   6
  -3  -8  -7 0.33913 1.99574   2
  -3  -8  -7 0.64698 1.75816   7
  -3  -8  -7 2.60184 1.89723   5
   3   8   7 0.48053 1.48891   6
  -4  -8  -7 9.86088 2.22883   5
  -4  -8  -7 1.21314 1.87863   7
  -4  -8  -7 5.95413 2.34238   2
   4   8   7 10.2963 1.84986   6
  -5  -8  -7 3.36246 2.07025   5
  -5  -8  -7 3.07446 2.21431   2
  -5  -8  -7 1.71206 2.00988   7
  -6  -8  -7 0.97043 2.12906   7
  -6  -8  -7 4.26026 2.13268   5
  -6  -8  -7 1.34153 2.36531   2
   1  -9  -7 0.91073 2.08925   5
   1  -9  -7 3.08860 1.83814   2
   1  -9  -7 2.39860 1.92726   9
  -1   9   7 4.53524 2.36721   6
   0  -9  -7 14.2141 2.56879   5
   0  -9  -7 10.8971 2.20236   2
   0  -9  -7 11.3509 2.30137   9
   0   9   7 9.02807 2.40839   6
  -1  -9  -7 18.9340 2.59437   2
  -1  -9  -7 15.8617 2.46774   9
  -1  -9  -7 13.4699 2.55964   5
  -1  -9  -7 16.5430 2.39910   7
   1   9   7 20.1185 2.80644   6
  -2  -9  -7 6.37328 2.00001   7
  -2  -9  -7 4.82359 1.94782   9
  -2  -9  -7 -0.5552 2.00929   2
  -2  -9  -7 2.90281 2.04050   5
   2   9   7 4.68678 1.93870   6
  -3  -9  -7 -1.3651 1.92965   5
  -3  -9  -7 -0.9708 1.98448   2
  -3  -9  -7 0.24141 1.75604   7
   3   9   7 1.26501 1.63065   6
  -4  -9  -7 11.2099 2.39685   7
  -4  -9  -7 9.84684 2.52554   5
  -4  -9  -7 10.6430 2.60135   2
  -5  -9  -7 -0.9308 2.30111   2
  -5  -9  -7 2.23809 2.18511   5
  -5  -9  -7 0.08394 1.93591   7
  -1 -10  -7 32.6021 3.41631   5
  -1 -10  -7 36.4753 3.19053   2
   1  10   7 28.2804 3.19920   6
  -2 -10  -7 4.52270 2.24496   5
  -2 -10  -7 1.08915 1.98294   9
  -2 -10  -7 1.23557 2.04702   2
   2  10   7 1.71487 1.97180   6
  -3 -10  -7 3.48245 2.35150   2
  -3 -10  -7 1.06597 2.04716   9
  -3 -10  -7 7.44128 2.43419   5
   3  10   7 5.99749 2.04672   6
   1  -8   8 2.44118 2.47672   4
   2  -8   8 23.8592 3.67207   4
   2  -8   8 21.7258 3.04577   1
  -1  -7   8 9.77616 2.59105   4
  -1  -7   8 9.25032 2.51158   3
   0  -7   8 4.76332 2.36284   4
   0  -7   8 1.31574 1.78147   1
   1  -7   8 18.9426 2.60575   1
   1  -7   8 13.5057 2.86669   4
   2  -7   8 18.4936 3.25951   4
   2  -7   8 21.2302 2.77015   1
   3  -7   8 16.8427 3.15862   4
   3  -7   8 19.3616 2.88941   1
   4  -7   8 -1.8071 1.75330   8
   4  -7   8 0.45107 2.33105   4
   4  -7   8 2.28536 2.27888   1
  -2  -6   8 13.0972 2.85050  10
  -2  -6   8 9.02489 2.61648   3
  -2  -6   8 8.25828 2.51582   4
  -1  -6   8 0.73125 2.09825   4
  -1  -6   8 0.54304 2.12006   3
   0  -6   8 6.33277 2.35768   4
   0  -6   8 11.0042 2.09512   1
   1  -6   8 55.8558 4.36885   4
   1  -6   8 47.0922 3.44169   1
   2  -6   8 16.1315 2.53245   1
   2  -6   8 14.8136 2.91379   4
   3  -6   8 8.32972 2.65565   4
   3  -6   8 3.83675 1.66319   8
   3  -6   8 7.36018 2.26330   1
   4  -6   8 1.51875 2.08686   1
   4  -6   8 -1.3240 1.57438   8
   4  -6   8 3.65438 2.50886   4
   5  -6   8 22.4065 3.44343   4
   5  -6   8 22.3347 3.14216   1
   5  -6   8 23.9567 2.80013   8
   6  -6   8 1.74425 2.45382   1
   6  -6   8 6.24497 2.21537   8
   6  -6   8 3.61178 2.52284   4
   3   5  -8 9.58730 2.25800   9
  -3  -5   8 7.68658 2.45014   3
  -3  -5   8 9.52950 2.75756  10
  -3  -5   8 11.7317 2.59141   4
   2   5  -8 2.15292 1.75569   9
  -2  -5   8 -0.6410 2.26964  10
  -2  -5   8 2.33914 2.01275   4
  -2  -5   8 1.94932 2.11813   3
   1   5  -8 27.6861 2.49422   9
  -1  -5   8 21.5234 2.93598   3
  -1  -5   8 28.9796 3.18501   4
   0   5  -8 1.22592 1.46327   9
   0  -5   8 -0.1127 1.93951   4
   0  -5   8 -0.6619 1.45580   1
  -1   5  -8 18.5431 2.01762   9
   1  -5   8 18.7469 2.87151   4
   1  -5   8 18.9099 2.38370   1
  -2   5  -8 16.2449 1.86654   9
   2  -5   8 17.7387 2.88424   4
   2  -5   8 19.9645 2.44612   1
  -3   5  -8 9.68230 1.65464   7
  -3   5  -8 6.44003 1.71231   9
   3  -5   8 6.18941 2.13582   1
   3  -5   8 10.0238 1.71459   8
   3  -5   8 7.39175 2.40972   4
  -4   5  -8 11.3498 1.80291   7
   4  -5   8 12.5370 2.05769   8
   4  -5   8 12.6769 2.95841   4
   4  -5   8 19.0981 2.72316   1
   5  -5   8 341.789 9.25043   1
   5  -5   8 339.985 8.42300   8
   5  -5   8 327.644 9.67407   4
   6  -5   8 13.7991 2.81468   1
   6  -5   8 14.2396 2.93989   4
   6  -5   8 11.0346 2.41345   8
   7  -5   8 246.345 8.57077   4
   7  -5   8 218.799 7.34099   8
   7  -5   8 242.856 8.13184   1
   4   4  -8 1.77845 1.98743   9
  -4  -4   8 1.57699 2.29019  10
  -4  -4   8 -1.9480 1.99124   3
  -4  -4   8 1.83880 2.08736   4
   3   4  -8 2.53512 1.87798   9
  -3  -4   8 1.07864 2.07831  10
  -3  -4   8 -0.9755 1.93943   3
  -3  -4   8 3.47874 2.00869   4
   2   4  -8 12.6895 2.26273   9
  -2  -4   8 9.00399 2.36673   3
  -2  -4   8 5.46768 2.23761   4
  -2  -4   8 7.03585 2.44867  10
   1   4  -8 4.18589 1.74869   9
  -1  -4   8 0.61482 1.32713   1
  -1  -4   8 1.61956 1.88464   4
  -1  -4   8 4.23651 2.02924   3
   0   4  -8 41.1058 2.86488   9
   0  -4   8 37.7180 2.87870   1
   0  -4   8 34.5179 3.30722   4
  -1   4  -8 28.6162 2.38690   9
   1  -4   8 25.1494 3.03351   4
   1  -4   8 33.9910 2.71634   1
  -2   4  -8 40.8529 2.80262   9
  -2   4  -8 38.8304 2.80242   7
   2  -4   8 41.8552 3.11342   1
   2  -4   8 35.1627 3.36906   4
   2  -4   8 35.0969 2.15634   8
  -3   4  -8 449.495 9.12097   2
  -3   4  -8 436.875 9.31449   9
  -3   4  -8 448.186 9.33111   7
   3  -4   8 444.130 10.2358   1
   3  -4   8 441.884 9.07365   8
   3  -4   8 446.677 11.0864   4
  -4   4  -8 47.6126 2.69086   2
  -4   4  -8 48.5121 3.05012   7
   4  -4   8 46.0340 3.82736   4
   4  -4   8 48.2200 2.99751   8
   4  -4   8 48.8866 3.72113   1
  -5   4  -8 279.561 7.44348   2
  -5   4  -8 275.482 6.90033   7
   5  -4   8 264.545 7.84655   1
   5  -4   8 258.136 8.25037   4
   5  -4   8 280.731 7.24143   8
  -6   4  -8 118.791 4.67029   7
   6  -4   8 123.558 6.03457   4
   6  -4   8 122.452 5.63160   1
   6  -4   8 132.113 5.22274   8
  -7   4  -8 163.478 5.72062   7
   7  -4   8 165.894 6.19950   8
   7  -4   8 162.143 6.88007   4
   7  -4   8 153.927 6.54882   1
   4   3  -8 18.6272 2.91926   9
  -4  -3   8 14.3590 2.83083   3
  -4  -3   8 19.1487 2.85221   4
  -4  -3   8 23.0151 3.24100  10
   3   3  -8 16.7191 2.61018   9
  -3  -3   8 13.2358 2.52292   3
  -3  -3   8 14.8510 2.79164  10
  -3  -3   8 15.2879 2.62356   4
   2   3  -8 4.75304 1.90380   9
  -2  -3   8 5.61175 2.24493   4
  -2  -3   8 3.66466 2.04592   3
  -2  -3   8 5.15055 2.23265  10
   1   3  -8 22.2376 2.54958   9
  -1  -3   8 21.0407 1.97503   1
  -1  -3   8 17.6519 2.64527   4
  -1  -3   8 13.3659 2.43516   3
   0   3  -8 2.29246 1.57233   9
   0  -3   8 2.96404 1.48588   1
   0  -3   8 0.78522 1.81954   4
  -1   3  -8 258.408 6.57170   9
   1  -3   8 267.670 7.69118   4
   1  -3   8 262.525 6.66142   1
  -2   3  -8 28.5166 2.41251   7
  -2   3  -8 34.4234 2.74304   2
  -2   3  -8 33.0289 2.61341   9
   2  -3   8 33.4766 1.99452   8
   2  -3   8 38.2982 2.95532   1
   2  -3   8 39.0827 3.41734   4
  -3   3  -8 386.483 8.48239   7
  -3   3  -8 383.609 8.31407   2
   3  -3   8 388.789 9.08656   1
   3  -3   8 383.975 7.94282   8
   3  -3   8 371.592 9.60702   4
  -4   3  -8 206.691 5.86511   7
  -4   3  -8 213.354 5.60256   2
   4  -3   8 211.773 6.96387   4
   4  -3   8 218.940 6.59504   1
   4  -3   8 209.395 5.63801   8
  -5   3  -8 195.741 5.48982   2
  -5   3  -8 205.652 5.86884   7
   5  -3   8 219.160 7.02681   4
   5  -3   8 197.373 6.48009   1
   5  -3   8 195.091 5.83802   8
  -6   3  -8 95.3040 4.40964   7
  -6   3  -8 103.687 4.15744   2
   6  -3   8 96.7210 5.12813   4
   6  -3   8 99.8407 4.94717   1
   6  -3   8 101.249 4.49434   8
  -7   3  -8 0.33108 1.88954   7
   7  -3   8 4.10205 2.30467   4
   7  -3   8 2.11178 2.13547   1
   7  -3   8 1.01229 2.05486   8
  -8   3  -8 1.86502 2.15322   7
   8  -3   8 3.59335 2.49855   4
   8  -3   8 2.27709 2.40236   1
   8  -3   8 5.25121 2.36378   8
   5   2  -8 23.4111 3.23117   9
  -5  -2   8 20.4321 2.93532   4
  -5  -2   8 19.0067 3.26112  10
  -5  -2   8 23.1951 3.28315   3
   4   2  -8 1.03248 2.02210   9
  -4  -2   8 -2.1502 1.83371   3
  -4  -2   8 1.31755 2.19801  10
  -4  -2   8 2.31213 2.02983   4
   3   2  -8 56.7941 4.05665   9
  -3  -2   8 54.4683 4.30873  10
  -3  -2   8 49.3349 3.99006   4
  -3  -2   8 55.3357 4.04804   3
   2   2  -8 6.02276 2.02694   9
  -2  -2   8 0.50985 1.85249   3
  -2  -2   8 1.63754 2.00697  10
  -2  -2   8 3.31070 2.00401   4
   1   2  -8 340.226 8.47404   9
  -1  -2   8 359.415 9.01869  10
  -1  -2   8 364.395 8.84931   3
  -1  -2   8 342.760 9.03121   4
   0   2  -8 62.9453 3.45115   9
   0  -2   8 55.6904 3.73892   3
   0  -2   8 56.9107 3.83198   4
   0  -2   8 57.9225 2.99163   1
  -1   2  -8 465.308 9.80333   2
  -1   2  -8 471.393 9.91755   7
  -1   2  -8 456.437 9.86874   9
   1  -2   8 445.287 7.88025   8
   1  -2   8 449.934 10.6719   4
   1  -2   8 463.738 9.66042   1
  -2   2  -8 1167.20 20.9608   7
  -2   2  -8 1193.64 21.0718   9
  -2   2  -8 1183.20 20.8776   2
   2  -2   8 1190.01 21.1287   1
   2  -2   8 1151.29 22.0586   4
   2  -2   8 1152.62 19.6633   8
  -3   2  -8 44.6724 3.02590   2
  -3   2  -8 46.2578 3.13774   7
   3  -2   8 43.2909 3.54040   4
   3  -2   8 50.0119 2.47042   8
   3  -2   8 38.1811 3.04101   1
  -4   2  -8 64.4865 3.46672   7
  -4   2  -8 57.3249 3.38612   2
   4  -2   8 69.1152 4.08795   4
   4  -2   8 60.0620 3.10299   8
   4  -2   8 57.2644 3.82543   1
  -5   2  -8 12.1118 2.00032   2
  -5   2  -8 14.6799 2.14818   7
   5  -2   8 12.2572 2.38947   1
   5  -2   8 14.4513 2.58426   4
   5  -2   8 14.5563 2.09868   8
  -6   2  -8 16.4507 2.23021   2
  -6   2  -8 14.5837 2.32238   7
   6  -2   8 21.9064 2.92318   4
   6  -2   8 16.6681 2.38308   8
   6  -2   8 15.0512 2.51164   1
  -7   2  -8 1.26787 1.84212   2
  -7   2  -8 0.73853 1.85861   7
   7  -2   8 4.53560 2.27464   4
   7  -2   8 3.20993 2.07066   8
   7  -2   8 -1.3117 2.00000   1
  -8   2  -8 2.84048 2.16951   7
  -8   2  -8 1.34631 2.05559   2
   8  -2   8 2.62744 2.23133   4
   8  -2   8 3.55860 2.31342   1
   8  -2   8 3.27122 2.25124   8
   5   1  -8 10.1402 2.79437   9
  -5  -1   8 12.4873 2.65682   4
  -5  -1   8 8.55916 2.69239  10
  -5  -1   8 6.11339 2.62666   3
   4   1  -8 4.85500 2.32301   9
  -4  -1   8 0.21926 1.92559   4
  -4  -1   8 0.38330 2.03112  10
  -4  -1   8 2.12181 2.07336   3
   3   1  -8 235.044 7.23584   9
  -3  -1   8 223.147 7.38093  10
  -3  -1   8 241.394 7.31351   3
  -3  -1   8 231.103 7.18505   4
   2   1  -8 116.632 5.04713   9
  -2  -1   8 119.164 4.92103   3
  -2  -1   8 121.049 5.09797  10
  -2  -1   8 119.275 5.09579   4
   1   1  -8 125.289 4.85929   9
  -1  -1   8 133.989 5.02381   3
  -1  -1   8 132.421 5.37172   4
  -1  -1   8 129.152 5.14125  10
   0   1  -8 322.381 7.91577   9
   0  -1   8 324.745 7.94133   3
   0  -1   8 318.259 8.37722   4
  -1   1  -8 -0.3437 1.56392   7
  -1   1  -8 -0.3033 1.58354   2
  -1   1  -8 0.11402 1.62274   9
   1  -1   8 0.77068 1.41489   1
   1  -1   8 0.44523 1.65558   4
  -2   1  -8 82.8187 3.75040   7
  -2   1  -8 89.0467 3.91690   2
  -2   1  -8 89.6693 3.89207   9
  -2   1  -8 82.9649 2.15967   5
  -2   1  -8 83.2600 2.15799   5
   2  -1   8 80.4012 4.21025   4
   2  -1   8 84.8601 2.70284   8
   2  -1   8 86.0881 3.77001   1
  -3   1  -8 0.71970 1.62463   2
  -3   1  -8 -0.2788 1.47667   7
   3  -1   8 2.11352 1.68220   1
   3  -1   8 2.20467 1.76200   4
   3  -1   8 -0.3252 1.09828   8
  -4   1  -8 1.79561 1.64704   7
  -4   1  -8 3.72121 1.81090   2
   4  -1   8 5.86580 1.54357   8
   4  -1   8 2.14071 1.87048   4
   4  -1   8 1.96571 1.65118   1
  -5   1  -8 4.28041 1.74689   2
  -5   1  -8 5.00174 1.74333   7
   5  -1   8 4.87816 2.07134   4
   5  -1   8 1.19831 1.57428   8
   5  -1   8 3.63420 1.90568   1
  -6   1  -8 -0.4165 1.78087   2
  -6   1  -8 -0.7599 1.68662   7
   6  -1   8 2.13363 1.76615   8
   6  -1   8 0.50811 1.82877   1
   6  -1   8 -1.1518 1.80308   4
  -7   1  -8 -1.0759 1.87907   2
  -7   1  -8 -0.3210 1.83713   7
   7  -1   8 3.33310 1.93952   8
   7  -1   8 -2.0787 1.85895   1
   7  -1   8 2.87663 2.01202   4
  -8   1  -8 14.7271 2.75040   7
  -8   1  -8 20.9829 2.77835   2
   8  -1   8 26.6661 3.22094   1
   8  -1   8 21.8703 2.87309   4
   8  -1   8 23.6915 3.06008   8
   5   0  -8 99.6665 5.56499   9
  -5   0   8 95.0741 5.39541   3
  -5   0   8 99.7502 5.35792  10
  -5   0   8 81.7284 4.89483   4
   4   0  -8 31.2321 3.39776   9
  -4   0   8 32.3834 3.38742   4
  -4   0   8 36.6005 3.55630  10
  -4   0   8 34.0858 3.41589   3
   3   0  -8 12.6975 2.49862   9
  -3   0   8 15.4626 2.47168   3
  -3   0   8 15.5914 2.63409  10
  -3   0   8 10.9784 2.48835   4
   2   0  -8 92.6530 4.45316   9
  -2   0   8 94.7098 4.46645   3
  -2   0   8 90.9553 4.73307   4
  -2   0   8 90.9412 4.47712  10
   1   0  -8 0.50919 1.69153   9
  -1   0   8 1.99808 1.66620   3
  -1   0   8 3.39732 1.90454   4
  -1   0   8 1.10558 1.72079  10
   0   0  -8 2.57519 1.65281   2
   0   0  -8 5.23645 1.86971   9
   0   0   8 1.96214 1.55615   3
   0   0   8 0.65144 1.68039   4
  -1   0  -8 9.35888 1.88539   7
  -1   0  -8 8.20676 1.85373   2
  -1   0  -8 9.72555 2.02302   9
  -1   0  -8 9.96684 0.93707   5
  -1   0  -8 12.7731 1.08972   8
   1   0   8 16.3145 2.38768   4
   1   0   8 10.7374 1.73320   3
  -2   0  -8 19.3094 2.32732   2
  -2   0  -8 23.1768 2.51843   9
  -2   0  -8 19.3943 1.31446   5
  -2   0  -8 22.9916 2.37411   7
   2   0   8 21.6841 1.64197   8
   2   0   8 16.2256 2.27790   4
  -3   0  -8 3.57182 1.75017   7
  -3   0  -8 5.24257 1.90498   2
   3   0   8 1.43669 1.19404   8
   3   0   8 2.90053 1.61319   1
   3   0   8 5.72553 1.87568   4
  -4   0  -8 55.7583 3.57893   2
  -4   0  -8 51.7000 3.38605   7
   4   0   8 47.6256 3.62187   4
   4   0   8 49.5829 3.49696   1
   4   0   8 53.3036 2.87821   8
  -5   0  -8 2.02794 1.84086   2
  -5   0  -8 0.45195 1.71603   7
   5   0   8 1.24786 1.79572   1
   5   0   8 3.72909 1.63449   8
   5   0   8 1.77805 1.83163   4
  -6   0  -8 3.47258 1.94144   2
  -6   0  -8 5.14492 1.98156   7
   6   0   8 3.23589 1.86033   8
   6   0   8 6.55857 2.06397   4
   6   0   8 4.21202 2.03543   1
  -7   0  -8 3.84540 2.13193   7
  -7   0  -8 6.38552 2.21557   2
   7   0   8 5.75134 2.18648   8
   7   0   8 7.61645 2.30216   1
   7   0   8 6.29155 2.07018   4
  -8   0  -8 6.96098 2.45822   2
  -8   0  -8 8.18324 2.50992   7
   8   0   8 9.40181 2.28563   4
   8   0   8 6.84765 2.39954   1
   8   0   8 12.7288 2.57844   8
  -9   0  -8 15.0727 2.89280   7
  -9   0  -8 8.88845 2.65580   2
   9   0   8 14.8678 3.02921   8
   9   0   8 14.4314 2.94683   1
   5  -1  -8 27.8057 3.52917   9
  -5   1   8 26.7331 3.48734  10
  -5   1   8 28.4598 3.42464   3
  -5   1   8 27.2304 3.28513   6
  -5   1   8 25.3895 3.27485   4
   4  -1  -8 141.636 6.04997   9
  -4   1   8 138.899 5.91822  10
  -4   1   8 141.894 5.94591   3
  -4   1   8 140.756 5.77351   4
   3  -1  -8 1.29170 1.98932   9
  -3   1   8 1.34370 1.82108  10
  -3   1   8 0.09160 1.81582   3
  -3   1   8 2.91558 2.03069   4
   2  -1  -8 4.68107 1.04657   5
   2  -1  -8 7.13487 2.09110   9
  -2   1   8 1.45044 1.76524  10
  -2   1   8 3.55234 1.75625   3
  -2   1   8 3.75399 1.99943   4
   1  -1  -8 72.8515 4.08369   9
   1  -1  -8 80.6415 2.44353   5
  -1   1   8 78.2672 4.02089  10
  -1   1   8 77.5590 4.26863   4
  -1   1   8 83.2822 3.89195   3
   0  -1  -8 30.4584 2.74202   2
   0  -1  -8 39.1005 3.26333   9
   0  -1  -8 43.2870 3.15744   7
   0  -1  -8 40.5963 1.80562   8
   0  -1  -8 39.7174 1.82036   5
   0   1   8 39.7234 3.25757   4
   0   1   8 38.6737 2.87067   3
   0   1   8 35.7065 2.82478  10
  -1  -1  -8 19.2152 2.38134   2
  -1  -1  -8 17.6278 1.36048   5
  -1  -1  -8 13.2498 2.24249   9
  -1  -1  -8 15.9609 2.21807   7
   1   1   8 18.1689 1.94149   3
   1   1   8 19.7154 2.53475   4
  -2  -1  -8 44.6122 3.15998   2
  -2  -1  -8 40.2940 3.11395   7
  -2  -1  -8 41.7028 2.00666   5
   2   1   8 43.1180 2.66525   3
   2   1   8 40.6932 3.23355   4
  -3  -1  -8 9.08675 2.03985   2
  -3  -1  -8 8.47352 1.98009   7
   3   1   8 11.2623 1.61541   8
   3   1   8 9.49690 2.02091   4
  -4  -1  -8 21.3778 2.40858   7
  -4  -1  -8 22.5901 2.46347   2
   4   1   8 21.0576 2.07903   8
   4   1   8 23.5253 2.50466   4
  -5  -1  -8 -0.5348 1.79763   2
  -5  -1  -8 0.60649 1.66254   7
   5   1   8 0.49088 1.69612   1
   5   1   8 0.86417 1.63603   4
   5   1   8 -2.0292 1.36672   8
  -6  -1  -8 1.19774 1.88752   7
  -6  -1  -8 -1.5488 1.77406   2
   6   1   8 -1.1174 1.74195   1
   6   1   8 -2.2801 1.55307   8
   6   1   8 -0.7968 1.63263   4
  -7  -1  -8 -2.5402 2.04269   2
  -7  -1  -8 5.07576 2.09510   7
   7   1   8 2.52810 2.10124   8
   7   1   8 3.75193 1.85604   4
   7   1   8 4.38210 2.13734   1
  -8  -1  -8 2.73124 2.32050   7
  -8  -1  -8 -0.3629 2.13082   2
   8   1   8 1.30551 2.03818   8
   8   1   8 -0.0602 1.95493   1
  -9  -1  -8 69.8678 5.08292   2
  -9  -1  -8 74.9768 5.29451   7
   9   1   8 68.4477 5.02859   8
   5  -2  -8 63.3032 4.80386   9
  -5   2   8 71.7669 4.72707   6
  -5   2   8 64.2112 4.71613   4
  -5   2   8 69.7487 5.13219  10
  -5   2   8 59.7224 4.62728   3
   4  -2  -8 103.943 5.41958   9
  -4   2   8 103.785 5.12562   6
  -4   2   8 95.8375 5.05380   4
  -4   2   8 109.657 5.19508  10
  -4   2   8 95.0637 5.07883   3
   3  -2  -8 56.7408 2.71545   5
   3  -2  -8 62.2450 4.33178   9
  -3   2   8 51.7296 3.77667   3
  -3   2   8 51.8595 4.01667   4
  -3   2   8 58.9501 4.11240  10
   2  -2  -8 57.0648 2.54760   5
   2  -2  -8 57.0014 3.86376   9
  -2   2   8 59.7512 4.00545   4
  -2   2   8 60.7238 3.76152  10
  -2   2   8 56.3157 3.63193   3
   1  -2  -8 133.060 3.66902   5
   1  -2  -8 135.018 5.04163   2
   1  -2  -8 137.623 5.16048   9
  -1   2   8 132.006 4.69760   3
  -1   2   8 136.611 5.36177   4
  -1   2   8 136.332 4.89671  10
   0  -2  -8 -2.3501 1.66875   9
   0  -2  -8 0.40988 1.64907   2
   0  -2  -8 0.53708 1.69121   7
   0  -2  -8 2.63489 1.08895   5
   0   2   8 -1.1477 1.41351  10
   0   2   8 1.06411 1.76024   4
   0   2   8 3.79978 1.43903   3
  -1  -2  -8 3.44006 1.69598   2
  -1  -2  -8 5.37999 1.76308   7
  -1  -2  -8 6.86246 1.92547   9
  -1  -2  -8 5.17399 1.18060   5
   1   2   8 2.56300 1.78401   4
   1   2   8 2.80225 1.44220  10
   1   2   8 2.18180 1.34302   3
  -2  -2  -8 -0.4953 1.76406   2
  -2  -2  -8 3.25771 1.74478   7
  -2  -2  -8 3.74025 1.19890   5
   2   2   8 2.90837 1.20869   3
   2   2   8 1.45484 1.72105   4
  -3  -2  -8 8.62750 2.05068   2
  -3  -2  -8 9.08407 1.39933   5
  -3  -2  -8 6.89705 1.89458   7
   3   2   8 10.0348 1.66036   8
   3   2   8 7.15972 1.32709   3
   3   2   8 9.50219 2.04048   4
  -4  -2  -8 2.58078 1.85047   2
  -4  -2  -8 3.90913 1.90234   7
   4   2   8 4.93939 1.63562   8
   4   2   8 3.46664 1.75063   4
  -5  -2  -8 10.2299 2.24644   2
  -5  -2  -8 9.84443 2.20712   7
   5   2   8 9.12516 1.94843   8
   5   2   8 10.1580 2.02366   4
  -6  -2  -8 42.3364 3.49174   7
  -6  -2  -8 32.3415 3.09146   2
   6   2   8 41.4670 3.24477   4
   6   2   8 35.0122 2.99655   8
  -7  -2  -8 37.3303 3.47525   2
  -7  -2  -8 41.4076 3.52323   7
   7   2   8 40.6136 3.22033   4
   7   2   8 38.8780 3.30483   8
  -8  -2  -8 0.90250 2.18995   7
  -8  -2  -8 1.77382 2.33500   2
   8   2   8 1.66382 2.14299   8
  -9  -2  -8 67.0305 5.09127   7
  -9  -2  -8 74.5820 5.37857   2
   9   2   8 73.2021 4.90891   8
   5  -3  -8 7.75494 2.64215   9
  -5   3   8 7.41806 2.58393   3
  -5   3   8 9.16007 2.55187   6
  -5   3   8 2.92245 2.43382  10
   4  -3  -8 36.6740 2.67647   5
   4  -3  -8 27.5449 3.26964   9
  -4   3   8 33.9577 3.44322   6
  -4   3   8 32.8714 3.45971  10
  -4   3   8 36.1579 3.50673   3
  -4   3   8 34.1351 3.53104   4
   3  -3  -8 64.8404 4.37633   9
   3  -3  -8 62.9484 3.09214   5
  -3   3   8 67.6195 4.16870  10
  -3   3   8 60.9305 4.09703   3
  -3   3   8 58.6061 4.24973   4
  -3   3   8 73.6156 4.31368   6
   2  -3  -8 24.9345 2.85209   9
   2  -3  -8 25.6168 2.05497   5
  -2   3   8 22.0509 2.66623   6
  -2   3   8 26.5242 3.15400   4
  -2   3   8 26.1574 2.67311   3
  -2   3   8 25.4577 2.67145  10
   1  -3  -8 26.2055 1.99620   5
   1  -3  -8 21.4835 2.67552   9
   1  -3  -8 25.3527 2.63333   2
  -1   3   8 21.9748 2.33995  10
  -1   3   8 17.1375 2.57818   4
  -1   3   8 20.9043 2.27500   3
   0  -3  -8 6.39116 1.88103   2
   0  -3  -8 5.15130 1.83177   7
   0  -3  -8 5.14770 2.07226   9
   0  -3  -8 3.98854 1.29261   5
   0   3   8 4.79710 1.56442  10
   0   3   8 5.06424 1.50382   3
   0   3   8 2.93837 1.88692   4
  -1  -3  -8 5.86545 1.97802   9
  -1  -3  -8 1.70508 1.85907   2
  -1  -3  -8 4.73941 1.80822   7
  -1  -3  -8 6.46156 1.42844   5
   1   3   8 4.04644 1.43425  10
   1   3   8 3.02286 1.26247   3
   1   3   8 6.53166 2.03846   4
  -2  -3  -8 127.781 3.84752   5
  -2  -3  -8 136.796 4.89225   7
  -2  -3  -8 124.706 4.91130   2
   2   3   8 127.894 3.66622   3
   2   3   8 128.520 5.03448   4
  -3  -3  -8 14.2010 1.71339   5
  -3  -3  -8 12.0702 2.22199   7
  -3  -3  -8 11.8026 2.29914   2
   3   3   8 13.1857 1.35861   3
   3   3   8 9.40833 2.04062   4
  -4  -3  -8 48.0169 3.87423   2
  -4  -3  -8 52.8074 3.59727   7
   4   3   8 52.4133 3.42851   4
   4   3   8 52.8122 2.10578   3
   4   3   8 48.4926 3.20032   8
  -5  -3  -8 1.50683 1.87006   7
  -5  -3  -8 1.43860 1.91362   2
   5   3   8 0.99194 1.61457   4
   5   3   8 2.66665 1.78018   8
  -6  -3  -8 45.8444 3.58015   7
  -6  -3  -8 46.8249 3.64327   2
   6   3   8 47.0719 3.22393   4
   6   3   8 54.2910 3.61998   8
  -7  -3  -8 20.7827 2.86804   7
  -7  -3  -8 24.5200 3.18046   2
   7   3   8 24.6760 2.98725   8
   7   3   8 22.4742 2.95498   4
  -8  -3  -8 19.4515 3.07375   7
  -8  -3  -8 25.2638 3.38918   2
   8   3   8 20.5003 3.11091   8
   4  -4  -8 9.51283 2.59846   9
   4  -4  -8 7.34892 1.90184   5
  -4   4   8 0.50820 2.06450  10
  -4   4   8 8.65676 2.39320   6
  -4   4   8 11.1314 2.56941   3
   3  -4  -8 -0.0950 1.47934   5
   3  -4  -8 1.51899 2.08361   9
  -3   4   8 -0.3865 1.97984   4
  -3   4   8 1.06140 1.88512  10
  -3   4   8 -1.4383 1.71355   6
  -3   4   8 3.11305 1.96080   3
   2  -4  -8 29.1578 2.42860   5
   2  -4  -8 26.2985 2.92810   9
  -2   4   8 27.6230 2.70694  10
  -2   4   8 24.7628 2.67350   3
  -2   4   8 28.9467 2.96152   6
  -2   4   8 38.8415 3.63839   4
   1  -4  -8 46.3818 3.67466   9
   1  -4  -8 43.5058 3.29719   2
   1  -4  -8 44.4746 2.77667   5
  -1   4   8 37.9760 3.20240   6
  -1   4   8 39.7938 2.99571   3
  -1   4   8 35.7248 3.28787   4
  -1   4   8 43.2315 3.12570  10
   0  -4  -8 44.0981 3.26247   2
   0  -4  -8 48.5666 2.70255   5
   0  -4  -8 51.5095 3.73353   7
   0  -4  -8 55.1580 3.78963   9
   0   4   8 53.9022 2.95602  10
   0   4   8 43.9713 3.39721   6
   0   4   8 58.1573 4.02038   4
   0   4   8 47.1454 2.82636   3
  -1  -4  -8 1.58103 1.76157   7
  -1  -4  -8 2.71188 1.85591   9
  -1  -4  -8 3.41369 1.90940   2
  -1  -4  -8 0.49067 1.27159   5
   1   4   8 0.58494 1.75366   4
   1   4   8 3.07343 1.32988  10
   1   4   8 2.43397 1.19943   3
  -2  -4  -8 27.8521 2.67244   7
  -2  -4  -8 31.9048 2.36413   5
  -2  -4  -8 22.9622 2.66821   2
   2   4   8 28.1592 2.21664  10
   2   4   8 26.1600 2.77603   4
   2   4   8 31.3307 1.93605   3
  -3  -4  -8 34.4336 2.86268   7
  -3  -4  -8 32.6020 3.02556   2
  -3  -4  -8 34.8885 2.48345   5
   3   4   8 35.7594 2.98416   4
   3   4   8 35.5672 1.68398   3
  -4  -4  -8 23.9459 2.26103   5
  -4  -4  -8 21.5417 2.65722   7
  -4  -4  -8 18.7854 2.55186   2
   4   4   8 23.3408 2.49424   4
  -5  -4  -8 47.7491 3.70218   7
  -5  -4  -8 50.9765 3.72121   2
   5   4   8 46.5836 3.35273   8
   5   4   8 45.5678 3.25089   4
  -6  -4  -8 108.235 4.99466   7
  -6  -4  -8 109.209 5.24261   2
   6   4   8 107.116 4.73617   8
   6   4   8 102.901 4.06154   4
  -7  -4  -8 29.9670 3.37727   2
  -7  -4  -8 28.2851 3.22222   7
   7   4   8 31.7555 3.25970   8
  -8  -4  -8 4.92228 2.69569   2
  -8  -4  -8 1.35893 2.31586   7
   8   4   8 2.66665 2.40628   8
   4  -5  -8 112.315 5.67287   9
   4  -5  -8 119.017 4.87836   5
  -4   5   8 105.650 5.63541   6
  -4   5   8 109.413 5.38086   3
  -4   5   8 125.922 5.62990  10
   3  -5  -8 0.38366 1.57294   5
   3  -5  -8 0.78387 2.03620   9
  -3   5   8 -0.1554 1.87218   3
  -3   5   8 1.97394 2.03628   6
  -3   5   8 -1.0756 1.73053  10
   2  -5  -8 9.33013 1.93307   5
   2  -5  -8 9.41514 2.28793   9
  -2   5   8 5.76457 2.16685   6
  -2   5   8 9.71818 2.02083   3
  -2   5   8 5.23385 1.83731  10
  -2   5   8 8.00696 2.32032   4
   1  -5  -8 37.8505 3.43455   9
   1  -5  -8 34.3882 2.65330   5
   1  -5  -8 45.0907 3.47026   2
  -1   5   8 41.2390 2.95003  10
  -1   5   8 41.5647 3.68289   4
  -1   5   8 38.7929 2.81584   3
  -1   5   8 42.0214 3.55205   6
   0  -5  -8 2.89812 1.49500   5
   0  -5  -8 3.85373 1.83872   7
   0  -5  -8 2.42316 1.84486   2
   0  -5  -8 2.15806 1.91061   9
   0   5   8 2.29338 2.07916   4
   0   5   8 3.89030 1.40284  10
   0   5   8 2.88351 1.75883   6
   0   5   8 3.91535 1.41273   3
  -1  -5  -8 1.80484 1.42832   5
  -1  -5  -8 0.71960 1.80396   9
  -1  -5  -8 1.52338 1.77261   7
  -1  -5  -8 -1.6601 1.84247   2
   1   5   8 0.18803 1.79609   4
   1   5   8 -0.7263 1.06090  10
   1   5   8 0.15214 1.54916   6
   1   5   8 1.42394 1.13197   3
  -2  -5  -8 2.62255 1.84003   7
  -2  -5  -8 4.78511 1.62108   5
  -2  -5  -8 2.25911 1.88164   2
  -2  -5  -8 5.13297 2.05707   9
   2   5   8 6.80547 1.25510  10
   2   5   8 4.30038 1.00886   3
   2   5   8 4.72809 1.94057   4
   2   5   8 4.78366 1.72780   6
  -3  -5  -8 2.78088 2.06747   2
  -3  -5  -8 -0.7901 1.65820   7
  -3  -5  -8 0.21619 1.43395   5
   3   5   8 3.63738 1.73133   4
   3   5   8 1.06801 1.49545   6
   3   5   8 1.41460 0.95506  10
  -4  -5  -8 6.33990 1.75270   5
  -4  -5  -8 8.94549 2.22039   7
  -4  -5  -8 8.16897 2.31666   2
   4   5   8 9.93539 1.78533   6
   4   5   8 12.7375 2.07227   4
  -5  -5  -8 3.28121 2.20460   2
  -5  -5  -8 4.15525 1.69907   5
  -5  -5  -8 -0.1944 1.85986   7
   5   5   8 1.69898 1.32271   6
   5   5   8 3.02038 1.56794   4
  -6  -5  -8 95.4959 5.15849   2
  -6  -5  -8 102.546 5.03985   7
   6   5   8 99.3846 4.23334   4
   6   5   8 96.6801 4.92023   8
  -7  -5  -8 49.6981 4.19697   2
  -7  -5  -8 54.7833 4.42688   7
   7   5   8 55.8464 4.25444   8
  -8  -5  -8 24.4803 3.67263   2
  -8  -5  -8 35.5301 3.69310   7
   8   5   8 38.3134 3.81387   8
   3  -6  -8 -0.3605 1.79572   5
   3  -6  -8 2.55642 1.80526   1
   3  -6  -8 4.70289 2.24745   9
  -3   6   8 1.69850 1.89805  10
  -3   6   8 3.30788 2.01311   3
  -3   6   8 2.29424 2.15487   6
   2  -6  -8 4.32842 2.09205   9
   2  -6  -8 0.16978 1.67485   5
  -2   6   8 1.28934 1.95339   6
  -2   6   8 0.52921 1.71538   3
  -2   6   8 0.97968 1.68805  10
   1  -6  -8 -1.4150 1.74438   9
   1  -6  -8 2.74393 1.85452   2
   1  -6  -8 -0.3223 1.59714   5
  -1   6   8 -0.1385 1.80173   6
  -1   6   8 -0.0648 1.38436  10
  -1   6   8 -0.0548 1.42449   3
  -1   6   8 -2.2974 1.83071   4
   0  -6  -8 24.1736 2.67734   2
   0  -6  -8 26.4180 2.43100   5
   0  -6  -8 22.5341 2.81167   9
   0   6   8 20.6623 1.98529   3
   0   6   8 23.1362 2.67039   6
   0   6   8 25.4228 3.03243   4
   0   6   8 20.6764 1.97549  10
  -1  -6  -8 1.64635 1.82954   2
  -1  -6  -8 -0.1534 1.51278   5
  -1  -6  -8 -0.0739 1.70801   7
  -1  -6  -8 3.80964 1.95424   9
   1   6   8 0.38856 1.86270   4
   1   6   8 0.58928 1.75872   6
   1   6   8 -1.3030 1.00623   3
   1   6   8 0.04950 1.09505  10
  -2  -6  -8 2.22787 1.65350   5
  -2  -6  -8 4.03275 1.96311   7
  -2  -6  -8 2.44838 2.07832   2
  -2  -6  -8 7.17455 2.11725   9
   2   6   8 2.23645 1.95350   4
   2   6   8 5.36617 1.80949   6
  -3  -6  -8 1.90968 1.74676   7
  -3  -6  -8 1.26376 2.05855   2
  -3  -6  -8 -1.0217 1.49557   5
   3   6   8 0.48467 1.47191   6
   3   6   8 2.24816 1.79269   4
  -4  -6  -8 26.5733 2.65874   5
  -4  -6  -8 22.7967 2.76511   7
  -4  -6  -8 23.6865 2.92022   2
   4   6   8 28.0691 2.70625   4
   4   6   8 26.7793 2.37170   6
  -5  -6  -8 14.4855 2.68542   2
  -5  -6  -8 10.6665 2.11489   5
  -5  -6  -8 8.87689 2.36637   7
   5   6   8 8.86225 1.89520   4
   5   6   8 7.74159 1.60572   6
  -6  -6  -8 -0.8706 1.73960   5
  -6  -6  -8 0.00975 2.08057   7
  -6  -6  -8 -1.4184 2.18506   2
  -7  -6  -8 91.1076 5.31761   7
  -7  -6  -8 108.318 5.78807   2
   3  -7  -8 8.18973 2.26870   5
   3  -7  -8 7.13122 2.20697   1
   3  -7  -8 2.01230 2.10447   9
  -3   7   8 3.47779 1.95065  10
  -3   7   8 4.06108 2.24321   6
  -3   7   8 2.39420 2.09171   3
   2  -7  -8 70.5177 4.05987   5
   2  -7  -8 59.4496 4.29228   9
  -2   7   8 62.5144 3.90869   3
  -2   7   8 71.2274 3.92491  10
  -2   7   8 70.0857 4.76133   6
   1  -7  -8 6.53678 2.06181   5
   1  -7  -8 7.48696 2.16280   2
   1  -7  -8 6.26132 2.22493   9
  -1   7   8 4.24181 1.66907   3
  -1   7   8 7.20629 2.19417   6
  -1   7   8 5.12525 1.73402  10
   0  -7  -8 2.80484 1.98697   2
   0  -7  -8 1.65139 1.76147   5
   0  -7  -8 2.22717 1.94258   9
   0   7   8 3.98761 1.94347   6
  -1  -7  -8 -1.0128 1.73332   7
  -1  -7  -8 -1.7222 1.60594   5
  -1  -7  -8 2.14006 1.92631   2
  -1  -7  -8 -2.3569 1.66230   9
   1   7   8 -0.1840 1.65937   6
  -2  -7  -8 17.8798 2.70194   9
  -2  -7  -8 14.2036 2.23058   5
  -2  -7  -8 15.0146 2.46966   7
  -2  -7  -8 16.2498 2.60667   2
   2   7   8 18.3149 2.41453   6
   2   7   8 16.3201 2.51036   4
  -3  -7  -8 11.0408 2.28288   7
  -3  -7  -8 17.5412 2.41362   5
  -3  -7  -8 13.8965 2.63647   2
   3   7   8 13.3837 2.29296   4
   3   7   8 13.7456 2.12670   6
  -4  -7  -8 6.25504 2.14834   5
  -4  -7  -8 5.40620 2.39326   2
  -4  -7  -8 6.87456 2.22354   7
   4   7   8 4.77765 1.73335   6
   4   7   8 5.88773 1.90082   4
  -5  -7  -8 50.1200 3.80544   7
  -5  -7  -8 51.7631 3.85893   5
  -5  -7  -8 51.6767 3.98652   2
  -6  -7  -8 7.84031 2.22342   5
  -6  -7  -8 11.0275 2.55820   7
  -6  -7  -8 5.54258 2.58621   2
  -7  -7  -8 2.15939 2.57967   2
  -7  -7  -8 -1.3486 2.13524   7
  -7  -7  -8 1.50111 1.99910   5
   2  -8  -8 14.7873 2.74560   9
   2  -8  -8 11.9329 2.57739   5
   2  -8  -8 16.4860 2.66566   1
  -2   8   8 19.9843 3.17364   6
   1  -8  -8 54.1501 4.13801   9
   1  -8  -8 55.9834 4.03814   2
   1  -8  -8 54.2895 4.05417   5
  -1   8   8 45.8547 3.94835   6
   0  -8  -8 33.7703 3.16038   5
   0  -8  -8 42.6923 3.63875   9
   0  -8  -8 40.1262 3.40654   2
   0   8   8 42.8527 3.66776   6
  -1  -8  -8 45.0436 3.54859   5
  -1  -8  -8 48.2574 3.79209   7
  -1  -8  -8 42.9758 3.40293   2
  -1  -8  -8 47.4124 3.79580   9
   1   8   8 45.2156 3.65625   6
  -2  -8  -8 0.53791 1.80251   9
  -2  -8  -8 1.16402 1.93683   2
  -2  -8  -8 0.74485 1.81944   5
  -2  -8  -8 -0.7828 1.80137   7
   2   8   8 0.26775 1.68573   6
  -3  -8  -8 31.0115 3.07810   5
  -3  -8  -8 32.7002 3.06962   7
  -3  -8  -8 35.6350 3.48071   2
   3   8   8 33.0794 2.99734   6
  -4  -8  -8 25.0475 2.94781   7
  -4  -8  -8 25.6874 2.89588   5
  -4  -8  -8 24.8915 3.21805   2
   4   8   8 29.0973 2.66573   6
  -5  -8  -8 -0.5928 2.01929   5
  -5  -8  -8 0.43931 2.24548   2
  -5  -8  -8 -0.0989 2.01917   7
  -6  -8  -8 51.3112 4.09971   7
  -6  -8  -8 50.4574 4.32554   2
  -6  -8  -8 47.4139 3.85173   5
   0  -9  -8 20.8758 2.85566   9
   0  -9  -8 24.3187 3.04307   5
   0  -9  -8 25.5943 2.92197   2
   0   9   8 23.0097 3.09151   6
  -1  -9  -8 92.4893 4.92438   5
  -1  -9  -8 98.9322 4.95639   2
  -1  -9  -8 102.730 4.76815   7
  -1  -9  -8 96.0344 4.83092   9
   1   9   8 92.9356 5.06828   6
  -2  -9  -8 42.5264 3.65433   9
  -2  -9  -8 55.9422 4.22879   2
  -2  -9  -8 47.8009 3.82747   5
  -2  -9  -8 48.3137 3.62015   7
   2   9   8 46.5393 3.67810   6
  -3  -9  -8 -5.1976 1.78906   7
  -3  -9  -8 3.62253 2.20586   5
  -3  -9  -8 0.25596 1.97129   9
  -3  -9  -8 1.76664 2.32519   2
   3   9   8 2.37758 1.90170   6
  -4  -9  -8 125.926 5.86836   2
  -4  -9  -8 124.594 5.61709   5
  -4  -9  -8 124.111 5.53971   7
   2  -7   9 2.03829 2.50982   4
   2  -7   9 -0.0692 1.98823   1
  -1  -6   9 4.34281 2.41421   4
  -1  -6   9 2.01294 2.25136   3
   0  -6   9 2.34771 2.48496   4
   1  -6   9 9.44160 2.74169   4
   1  -6   9 9.49284 2.16872   1
   2  -6   9 20.2939 2.77756   1
   2  -6   9 19.0359 3.29385   4
   3  -6   9 1.04807 2.34518   4
   3  -6   9 2.98593 2.12999   1
   4  -6   9 38.1862 4.25216   4
   4  -6   9 43.6569 3.83560   1
   5  -6   9 -2.1780 2.26923   4
   5  -6   9 1.56233 1.95774   8
   5  -6   9 4.45568 2.41882   1
  -2  -5   9 2.07787 2.48255  10
  -2  -5   9 2.73494 2.31910   3
  -2  -5   9 5.03679 2.38576   4
  -1  -5   9 8.62034 2.57751   4
  -1  -5   9 5.77031 2.42528   3
   0  -5   9 29.6104 3.44759   4
   0  -5   9 31.4450 2.75969   1
   1  -5   9 1.73599 1.78761   1
   1  -5   9 0.85611 2.20453   4
   2  -5   9 2.67769 1.91091   1
   2  -5   9 7.82494 2.55962   4
   3  -5   9 3.34272 2.10668   1
   3  -5   9 7.76872 2.57047   4
   4  -5   9 3.17356 2.34864   4
   4  -5   9 -1.5513 1.94583   1
   4  -5   9 4.43040 1.74318   8
   5  -5   9 13.6875 3.17262   4
   5  -5   9 12.6149 2.28106   8
   5  -5   9 16.8205 2.93619   1
   6  -5   9 7.40721 2.85253   4
   6  -5   9 3.46267 2.16082   8
   6  -5   9 6.90000 2.58321   1
   3   4  -9 2.43875 2.06463   9
  -3  -4   9 -0.0845 2.13885   4
  -3  -4   9 0.69337 2.41032  10
  -3  -4   9 0.04484 2.17084   3
   2   4  -9 29.1494 3.07330   9
  -2  -4   9 24.4026 3.29802  10
  -2  -4   9 26.9319 3.30042   3
  -2  -4   9 26.6683 3.32890   4
   1   4  -9 24.2013 2.70102   9
  -1  -4   9 25.6180 3.20822   3
  -1  -4   9 22.5282 3.13314   4
   0   4  -9 5.64879 1.79749   9
   0  -4   9 3.06501 2.16140   4
   0  -4   9 3.77084 2.06355   3
   0  -4   9 3.38932 1.66695   1
  -1   4  -9 4.59176 1.74233   9
   1  -4   9 3.21203 1.78069   1
   1  -4   9 6.44218 2.38406   4
  -2   4  -9 5.51287 1.77429   9
   2  -4   9 4.71669 2.34621   4
   2  -4   9 3.48977 1.98013   1
  -3   4  -9 3.50968 1.50697   2
  -3   4  -9 3.12360 1.68562   9
  -3   4  -9 0.86068 1.53502   7
   3  -4   9 3.80865 2.36989   4
   3  -4   9 3.17860 1.97551   1
  -4   4  -9 4.01428 1.60024   2
  -4   4  -9 2.46698 1.66385   7
  -4   4  -9 2.18228 1.79052   9
   4  -4   9 2.12797 2.07849   1
   4  -4   9 2.68085 1.56141   8
   4  -4   9 2.89057 2.36253   4
  -5   4  -9 15.8742 2.25841   7
   5  -4   9 13.8393 2.30555   8
   5  -4   9 19.5834 2.80431   1
   5  -4   9 10.1764 2.76493   4
  -6   4  -9 8.28994 2.18203   7
   6  -4   9 13.6990 2.45610   8
   6  -4   9 10.9765 2.72843   1
   6  -4   9 9.06180 2.81392   4
  -7   4  -9 0.26342 2.70275   7
   7  -4   9 2.48153 2.38256   1
   7  -4   9 -2.2185 2.31920   4
   7  -4   9 -0.3236 2.03679   8
   3   3  -9 0.14489 1.97943   9
  -3  -3   9 2.88366 2.26487   4
  -3  -3   9 2.29076 2.29613  10
  -3  -3   9 -1.0240 1.99204   3
   2   3  -9 46.0374 3.64057   9
  -2  -3   9 51.4891 4.03523  10
  -2  -3   9 50.4725 4.10270   4
  -2  -3   9 58.3732 4.43970   3
   1   3  -9 5.52512 2.06554   9
  -1  -3   9 4.19643 2.25514  10
  -1  -3   9 6.80299 2.30198   4
  -1  -3   9 6.89134 2.25192   3
   0   3  -9 12.9232 2.24009   9
   0  -3   9 14.8961 2.67530   4
   0  -3   9 10.9658 2.41209   3
   0  -3   9 17.8664 2.10515   1
  -1   3  -9 25.0730 2.61765   9
   1  -3   9 24.5832 2.48823   1
   1  -3   9 20.7209 2.89089   4
  -2   3  -9 3.23177 1.64656   7
  -2   3  -9 1.17785 1.52727   2
  -2   3  -9 1.00623 1.64027   9
   2  -3   9 3.43671 2.13364   4
   2  -3   9 0.69572 1.71266   1
  -3   3  -9 -0.1265 1.54386   7
  -3   3  -9 1.14063 1.56909   2
  -3   3  -9 -1.9567 1.58694   9
   3  -3   9 -0.6052 1.13450   8
   3  -3   9 -0.0563 1.79438   1
   3  -3   9 1.79495 2.06331   4
  -4   3  -9 8.48429 1.98087   7
  -4   3  -9 8.99241 1.81180   2
   4  -3   9 8.66913 2.29286   1
   4  -3   9 10.0511 2.52646   4
   4  -3   9 5.20400 1.68983   8
  -5   3  -9 7.83397 1.79086   2
  -5   3  -9 5.91701 1.91634   7
   5  -3   9 4.31931 1.77130   8
   5  -3   9 0.21608 2.32961   4
   5  -3   9 3.12958 2.12675   1
  -6   3  -9 14.3113 2.22920   2
  -6   3  -9 12.1216 2.26694   7
   6  -3   9 11.2039 2.60640   1
   6  -3   9 17.3789 2.46016   8
   6  -3   9 10.7095 2.76791   4
  -7   3  -9 7.20717 2.20314   7
   7  -3   9 2.44274 2.38485   1
   7  -3   9 2.71798 2.60542   4
   7  -3   9 7.43924 2.30985   8
   4   2  -9 1.52031 2.24972   9
  -4  -2   9 1.54330 2.29245  10
  -4  -2   9 2.67689 2.28465   3
  -4  -2   9 5.21098 2.38396   4
   3   2  -9 20.1279 2.98212   9
  -3  -2   9 13.3280 2.67173  10
  -3  -2   9 21.1828 2.97962   3
  -3  -2   9 19.4020 2.97256   4
   2   2  -9 28.7605 3.10001   9
  -2  -2   9 24.1771 3.22936  10
  -2  -2   9 25.0396 3.01540   3
  -2  -2   9 27.7409 3.25355   4
   1   2  -9 8.14670 2.17730   9
  -1  -2   9 6.41125 2.32729  10
  -1  -2   9 7.63432 2.39470   4
  -1  -2   9 8.90589 2.23850   3
   0   2  -9 32.4953 2.94803   9
   0  -2   9 31.3510 2.97730   3
   0  -2   9 28.1441 3.16387   4
  -1   2  -9 55.9823 3.53700   9
   1  -2   9 56.9836 4.20639   4
   1  -2   9 59.9110 3.41119   1
  -2   2  -9 9.80874 2.11219   9
  -2   2  -9 8.84771 1.94010   7
  -2   2  -9 8.89292 1.98992   2
   2  -2   9 9.92924 2.00484   1
   2  -2   9 8.38778 2.32501   4
  -3   2  -9 2.42900 1.77790   9
  -3   2  -9 2.11003 1.66854   7
  -3   2  -9 -0.9239 1.54273   2
   3  -2   9 0.31140 1.98467   4
   3  -2   9 -0.3623 1.67250   1
   3  -2   9 1.19282 1.19106   8
  -4   2  -9 58.3397 3.64749   7
  -4   2  -9 61.7595 3.62089   2
   4  -2   9 65.2529 3.16452   8
   4  -2   9 54.7710 4.39272   4
   4  -2   9 58.2564 3.87864   1
  -5   2  -9 -0.1996 1.68368   7
  -5   2  -9 1.34666 1.74910   2
   5  -2   9 0.55747 1.61134   8
   5  -2   9 0.83826 2.10583   4
   5  -2   9 0.22098 2.00441   1
  -6   2  -9 3.01834 1.95158   7
  -6   2  -9 4.31675 1.92244   2
   6  -2   9 3.83672 1.78487   8
   6  -2   9 2.52726 2.22005   4
   6  -2   9 4.89022 2.16110   1
  -7   2  -9 28.9530 3.08086   7
  -7   2  -9 31.4209 2.99493   2
   7  -2   9 34.5267 3.60572   4
   7  -2   9 33.1444 3.56034   1
   7  -2   9 35.0550 3.30038   8
  -8   2  -9 6.58535 2.51494   7
   8  -2   9 6.35235 2.69835   1
   8  -2   9 8.76340 2.76319   4
   8  -2   9 14.8281 2.79455   8
   4   1  -9 0.92333 2.19381   9
  -4  -1   9 0.61681 2.04078   3
  -4  -1   9 -2.6680 1.98998   4
  -4  -1   9 -1.8776 2.19074  10
   3   1  -9 1.77179 2.08457   9
  -3  -1   9 0.75418 2.11529   4
  -3  -1   9 4.11403 2.22107  10
  -3  -1   9 2.89813 2.07883   3
   2   1  -9 1.31118 2.00919   9
  -2  -1   9 -2.0267 1.94226  10
  -2  -1   9 0.14348 1.78213   3
  -2  -1   9 -1.2391 1.99504   4
   1   1  -9 3.69931 1.99125   9
  -1  -1   9 3.32943 2.11662   4
  -1  -1   9 -0.5156 1.83220  10
  -1  -1   9 2.96675 1.89782   3
   0   1  -9 13.3899 2.36777   9
   0  -1   9 12.9184 2.51643   4
   0  -1   9 12.4673 2.19619   3
  -1   1  -9 120.400 4.81949   7
  -1   1  -9 115.039 4.77114   2
  -1   1  -9 123.300 4.80848   9
   1  -1   9 114.619 4.68085   3
   1  -1   9 110.884 5.13395   4
  -2   1  -9 26.5941 2.58794   7
  -2   1  -9 22.6914 2.54675   9
  -2   1  -9 24.8389 2.57450   2
   2  -1   9 22.9757 1.62241   8
   2  -1   9 16.7993 2.61810   4
   2  -1   9 22.2948 2.45968   1
  -3   1  -9 64.5419 3.71569   2
  -3   1  -9 61.5516 3.71247   7
   3  -1   9 63.1151 3.68095   1
   3  -1   9 57.8499 4.05004   4
   3  -1   9 68.4992 2.76369   8
  -4   1  -9 -0.1056 1.78952   2
  -4   1  -9 0.60503 1.70157   7
   4  -1   9 0.42850 1.33965   8
   4  -1   9 0.64968 1.97045   4
   4  -1   9 0.17541 1.78635   1
  -5   1  -9 22.2230 2.59327   7
  -5   1  -9 23.5134 2.65667   2
   5  -1   9 25.4317 2.91458   1
   5  -1   9 23.5031 2.45409   8
   5  -1   9 28.8120 3.18940   4
  -6   1  -9 0.66410 1.89596   7
  -6   1  -9 -0.0379 1.87039   2
   6  -1   9 2.60654 1.85247   8
   6  -1   9 1.55783 1.98846   4
   6  -1   9 1.45857 2.02138   1
  -7   1  -9 5.69004 2.25887   2
  -7   1  -9 5.08359 2.28347   7
   7  -1   9 8.52153 2.29799   8
   7  -1   9 4.87388 2.26854   1
   7  -1   9 4.08193 2.29711   4
  -8   1  -9 29.4204 3.24420   2
  -8   1  -9 27.6456 3.31713   7
   8  -1   9 34.5452 3.65915   1
   8  -1   9 33.8797 3.49600   4
   8  -1   9 36.9464 3.54687   8
   4   0  -9 23.1202 3.32622   9
  -4   0   9 22.7135 3.37533  10
  -4   0   9 22.0691 3.11492   4
  -4   0   9 16.8614 2.95937   3
   3   0  -9 3.70471 2.24831   9
  -3   0   9 2.16651 2.13567   4
  -3   0   9 2.74943 2.15277  10
  -3   0   9 -1.6018 1.87846   3
   2   0  -9 60.7338 4.25570   9
  -2   0   9 53.8018 4.03178  10
  -2   0   9 64.1040 4.31477   4
  -2   0   9 60.0578 3.94687   3
   1   0  -9 12.6268 2.40436   9
  -1   0   9 10.1538 2.28126  10
  -1   0   9 7.26268 2.06441   3
  -1   0   9 12.8037 2.49921   4
   0   0  -9 19.5868 2.55269   2
   0   0  -9 23.1524 2.69286   9
   0   0   9 14.8824 2.36156  10
   0   0   9 20.2021 2.78361   4
   0   0   9 16.7972 2.29674   3
  -1   0  -9 11.6982 2.20003   9
  -1   0  -9 11.2712 2.23207   7
  -1   0  -9 13.0128 2.25861   2
   1   0   9 5.31482 1.75871   3
   1   0   9 7.81825 2.15305   4
  -2   0  -9 8.39838 2.07967   7
  -2   0  -9 12.3281 2.31796   9
  -2   0  -9 13.6467 1.15022   5
  -2   0  -9 11.8696 2.17655   2
   2   0   9 14.4480 2.46079   4
  -3   0  -9 162.010 5.63592   2
  -3   0  -9 173.810 5.73920   7
  -3   0  -9 169.443 4.02847   5
   3   0   9 171.655 6.03422   4
   3   0   9 174.330 4.54257   8
  -4   0  -9 54.2360 3.76488   2
  -4   0  -9 44.5089 3.32904   7
   4   0   9 50.2242 3.49622   1
   4   0   9 45.0756 3.58846   4
   4   0   9 48.5321 2.82112   8
  -5   0  -9 4.16032 2.06573   2
  -5   0  -9 4.09223 1.90008   7
   5   0   9 4.10643 2.03882   4
   5   0   9 3.75970 1.94792   1
   5   0   9 2.86747 1.67662   8
  -6   0  -9 304.500 8.05103   2
  -6   0  -9 287.953 7.95609   7
   6   0   9 284.125 8.23248   1
   6   0   9 290.417 8.29690   4
   6   0   9 297.162 7.68681   8
  -7   0  -9 15.4523 2.70862   2
  -7   0  -9 12.2665 2.58854   7
   7   0   9 10.3391 2.46245   4
   7   0   9 13.9159 2.74419   1
   7   0   9 12.3578 2.40107   8
  -8   0  -9 56.8696 4.15517   2
  -8   0  -9 59.0113 4.77341   7
   8   0   9 60.1888 4.40646   4
   8   0   9 62.6541 4.58504   1
   8   0   9 55.7696 4.21538   8
   4  -1  -9 17.5321 2.97111   9
  -4   1   9 12.3930 2.74335  10
  -4   1   9 18.0606 2.96174   3
  -4   1   9 18.5818 3.03907   4
   3  -1  -9 5.36309 2.34456   9
  -3   1   9 4.46653 2.21065  10
  -3   1   9 3.99538 2.31710   4
  -3   1   9 2.18120 2.03458   3
   2  -1  -9 11.8188 2.43928   9
  -2   1   9 6.73266 2.16560  10
  -2   1   9 6.09901 2.06465   3
  -2   1   9 7.79780 2.48663   4
   1  -1  -9 1.40967 1.97215   9
  -1   1   9 -1.6770 1.85361   4
  -1   1   9 0.95194 1.73258   3
  -1   1   9 3.78096 1.87879  10
   0  -1  -9 0.88013 1.85159   2
   0  -1  -9 3.72435 1.87258   9
   0  -1  -9 2.49434 1.24209   5
   0   1   9 0.26368 1.87172   4
   0   1   9 3.57459 1.60519   3
   0   1   9 3.81791 1.77378  10
  -1  -1  -9 11.1598 1.19511   5
  -1  -1  -9 11.4946 2.24863   7
  -1  -1  -9 9.83646 2.25289   9
  -1  -1  -9 6.49455 2.11496   2
   1   1   9 13.5603 2.40664   4
   1   1   9 11.1236 1.82922   3
  -2  -1  -9 162.993 5.61896   7
  -2  -1  -9 175.010 5.76921   2
  -2  -1  -9 181.512 4.11278   5
  -2  -1  -9 174.197 5.85007   9
   2   1   9 170.611 5.07932   3
   2   1   9 177.518 6.09649   4
  -3  -1  -9 44.6169 2.29598   5
  -3  -1  -9 44.7870 3.45050   7
  -3  -1  -9 44.9188 3.60851   2
   3   1   9 47.3909 2.64709   8
   3   1   9 49.2588 3.62881   4
  -4  -1  -9 139.936 5.29767   2
  -4  -1  -9 144.084 5.33653   7
   4   1   9 153.117 5.65615   4
   4   1   9 134.884 4.42807   8
  -5  -1  -9 15.9711 2.52362   2
  -5  -1  -9 20.2332 2.58279   7
   5   1   9 13.7143 2.12649   8
   5   1   9 22.5698 2.74512   4
  -6  -1  -9 -1.4514 1.94187   7
  -6  -1  -9 0.18558 2.08392   2
   6   1   9 -0.8873 1.69556   8
   6   1   9 -1.1326 1.80815   4
  -7  -1  -9 0.20428 2.16011   2
  -7  -1  -9 0.86117 2.09905   7
   7   1   9 3.56315 2.03314   8
   7   1   9 10.6245 2.39282   4
  -8  -1  -9 -1.8708 2.15628   2
  -8  -1  -9 -1.0930 2.27548   7
   8   1   9 1.69393 2.27769   8
   4  -2  -9 0.44326 2.25307   9
  -4   2   9 0.18432 2.11535   6
  -4   2   9 -3.2547 1.94851   4
  -4   2   9 -0.4177 2.09770   3
  -4   2   9 -0.5298 2.14590  10
   3  -2  -9 9.82372 2.53383   9
  -3   2   9 11.1151 2.53928   3
  -3   2   9 9.74459 2.48313  10
  -3   2   9 11.7238 2.60452   4
   2  -2  -9 4.70171 2.24483   9
  -2   2   9 3.91912 1.88483   3
  -2   2   9 3.87787 2.22769   4
  -2   2   9 4.04216 1.97114  10
   1  -2  -9 3.01417 2.00956   9
   1  -2  -9 2.82813 1.12769   5
  -1   2   9 1.53279 1.78667  10
  -1   2   9 1.83857 1.64134   3
  -1   2   9 0.10558 1.94103   4
   0  -2  -9 143.591 3.81255   5
   0  -2  -9 143.152 5.41340   2
   0  -2  -9 146.010 5.47877   9
   0   2   9 142.815 4.84900   3
   0   2   9 146.261 5.85518   4
   0   2   9 146.980 5.19692  10
  -1  -2  -9 24.2498 2.75769   2
  -1  -2  -9 24.6649 2.82597   9
  -1  -2  -9 25.9999 2.72728   7
  -1  -2  -9 22.3025 1.71536   5
   1   2   9 28.5555 2.52597  10
   1   2   9 21.7272 2.77755   4
   1   2   9 27.4534 2.29380   3
  -2  -2  -9 93.4124 4.41916   9
  -2  -2  -9 89.1283 4.34570   7
  -2  -2  -9 85.7596 4.31994   2
  -2  -2  -9 88.0292 3.04814   5
   2   2   9 79.0826 4.36359   4
   2   2   9 88.0508 3.47873   3
  -3  -2  -9 7.91214 1.43053   5
  -3  -2  -9 8.25140 2.12436   7
  -3  -2  -9 7.43844 2.14016   2
   3   2   9 7.61507 2.11011   4
   3   2   9 5.62781 1.35299   3
  -4  -2  -9 44.5215 3.44342   7
  -4  -2  -9 47.0168 3.51156   2
   4   2   9 41.8513 2.98122   8
   4   2   9 47.1575 3.71877   4
  -5  -2  -9 35.5519 3.21949   2
  -5  -2  -9 43.4789 3.53309   7
   5   2   9 40.8509 3.29007   4
   5   2   9 35.0143 2.77133   8
  -6  -2  -9 6.10711 2.26478   7
  -6  -2  -9 3.90403 2.25322   2
   6   2   9 3.07928 1.87907   8
   6   2   9 4.67673 1.97514   4
  -7  -2  -9 26.2349 3.09947   7
  -7  -2  -9 31.0902 3.38831   2
   7   2   9 29.1767 3.08835   8
   7   2   9 30.6531 2.98021   4
  -8  -2  -9 29.3614 3.53278   2
  -8  -2  -9 29.5098 3.57707   7
   8   2   9 28.9976 3.36131   8
   4  -3  -9 5.65316 2.49229   9
  -4   3   9 2.91420 2.40390   4
  -4   3   9 2.22480 2.19537   6
  -4   3   9 5.89571 2.39105  10
  -4   3   9 2.46724 2.25769   3
   3  -3  -9 8.50232 2.57046   9
  -3   3   9 7.96995 2.40616   6
  -3   3   9 7.13229 2.20670  10
  -3   3   9 4.81881 2.37288   4
  -3   3   9 9.34647 2.40814   3
   2  -3  -9 88.3517 4.91715   9
   2  -3  -9 89.5038 3.72710   5
  -2   3   9 82.5706 5.05979   4
  -2   3   9 90.1113 4.61393   3
  -2   3   9 81.8702 4.62315   6
  -2   3   9 77.7708 4.41756  10
   1  -3  -9 19.0603 2.71891   2
   1  -3  -9 20.1717 2.78549   9
   1  -3  -9 18.0303 1.82759   5
  -1   3   9 17.9107 2.34459   3
  -1   3   9 19.8158 2.83103   4
  -1   3   9 15.9646 2.28317  10
   0  -3  -9 159.518 4.37362   5
   0  -3  -9 164.208 5.86670   9
   0  -3  -9 156.058 5.72672   2
   0   3   9 160.838 6.23884   4
   0   3   9 164.410 5.09738   3
   0   3   9 169.236 5.35270  10
  -1  -3  -9 13.7777 2.34763   2
  -1  -3  -9 14.2404 1.64782   5
  -1  -3  -9 10.1193 2.13386   7
  -1  -3  -9 14.0481 2.43691   9
   1   3   9 11.1027 2.38982   4
   1   3   9 8.47981 1.62963   3
   1   3   9 11.6632 1.89863  10
  -2  -3  -9 33.6566 2.36778   5
  -2  -3  -9 35.7524 3.12278   2
  -2  -3  -9 33.8395 3.18201   9
  -2  -3  -9 32.2993 2.94515   7
   2   3   9 28.6909 2.34198  10
   2   3   9 32.2022 2.33603   3
   2   3   9 35.8486 3.25844   4
  -3  -3  -9 15.4343 2.55295   2
  -3  -3  -9 19.7324 2.56649   7
  -3  -3  -9 18.5955 1.92049   5
   3   3   9 11.0943 2.35266   4
   3   3   9 20.3011 1.71027   3
  -4  -3  -9 19.1974 2.76006   2
  -4  -3  -9 15.7159 2.40164   7
  -4  -3  -9 16.6469 1.88329   5
   4   3   9 20.3004 2.55755   4
   4   3   9 22.4381 2.38307   8
   4   3   9 18.9203 1.55857   3
  -5  -3  -9 -1.0754 2.06447   2
  -5  -3  -9 0.69421 1.96703   7
   5   3   9 1.69540 1.78642   8
   5   3   9 0.22771 1.73268   4
  -6  -3  -9 21.4565 2.92862   7
  -6  -3  -9 21.8425 3.03913   2
   6   3   9 23.1387 2.82033   8
   6   3   9 25.5354 2.67066   4
  -7  -3  -9 -2.6876 2.00803   7
  -7  -3  -9 2.15464 2.42431   2
   7   3   9 2.36557 2.29112   4
   7   3   9 -0.9648 1.98451   8
  -8  -3  -9 -4.6202 2.39864   2
  -8  -3  -9 -2.4400 2.15700   7
   8   3   9 -0.2828 2.33236   8
   3  -4  -9 71.0486 4.89196   9
  -3   4   9 65.5898 4.40097   3
  -3   4   9 72.2653 4.52374  10
  -3   4   9 61.6913 4.70560   6
  -3   4   9 70.2149 5.04665   4
   2  -4  -9 95.6627 5.09859   9
   2  -4  -9 100.667 3.82242   5
  -2   4   9 104.737 4.71368   3
  -2   4   9 95.7300 5.46962   4
  -2   4   9 95.8068 4.66288  10
  -2   4   9 95.5146 4.99725   6
   1  -4  -9 52.4920 3.96195   9
   1  -4  -9 54.6693 3.07491   5
   1  -4  -9 59.1291 4.20896   2
  -1   4   9 58.4727 3.61150   3
  -1   4   9 56.2640 3.58404  10
  -1   4   9 57.6879 4.01545   6
  -1   4   9 58.2937 4.30384   4
   0  -4  -9 4.09539 1.95960   2
   0  -4  -9 4.67654 1.56074   5
   0  -4  -9 4.66838 2.08327   9
   0   4   9 6.64231 2.11903   6
   0   4   9 7.54743 2.32130   4
   0   4   9 7.96185 1.80573   3
   0   4   9 3.81871 1.65115  10
  -1  -4  -9 30.3529 2.29981   5
  -1  -4  -9 27.6643 2.95801   2
  -1  -4  -9 25.9359 2.79192   7
  -1  -4  -9 29.3812 3.02732   9
   1   4   9 30.4243 2.29351   3
   1   4   9 25.6017 2.97495   4
   1   4   9 21.4611 2.14592  10
  -2  -4  -9 17.4231 1.92894   5
  -2  -4  -9 21.3707 2.64570   2
  -2  -4  -9 16.8530 2.41988   7
  -2  -4  -9 20.8322 2.71052   9
   2   4   9 18.2503 2.74469   4
   2   4   9 17.7815 1.92610  10
   2   4   9 20.5447 1.79236   3
  -3  -4  -9 13.9721 2.45160   7
  -3  -4  -9 14.8833 1.92349   5
  -3  -4  -9 13.8687 2.56583   2
   3   4   9 16.3684 1.78481   3
   3   4   9 16.3456 2.56391   4
  -4  -4  -9 12.0626 2.46554   2
  -4  -4  -9 9.00970 2.32311   7
  -4  -4  -9 11.9434 1.89413   5
   4   4   9 10.5323 2.20330   4
  -5  -4  -9 -2.1564 1.37396   5
  -5  -4  -9 0.34454 1.95435   7
  -5  -4  -9 1.59127 2.13131   2
   5   4   9 1.43425 1.82727   4
   5   4   9 -0.9273 1.80339   8
  -6  -4  -9 38.6897 3.75509   2
  -6  -4  -9 34.9011 3.29559   7
   6   4   9 42.1846 3.41258   4
   6   4   9 51.0922 3.71422   8
  -7  -4  -9 -3.6929 2.32024   2
  -7  -4  -9 1.45399 2.16964   7
   7   4   9 -1.1795 2.01649   8
  -8  -4  -9 3.07706 2.92516   2
  -8  -4  -9 8.27694 2.73918   7
   8   4   9 13.0378 2.92851   8
   3  -5  -9 0.49032 2.19358   9
   3  -5  -9 2.40679 1.79275   5
  -3   5   9 4.26846 2.21839   6
  -3   5   9 1.69056 2.09482   3
  -3   5   9 3.72077 2.15450  10
   2  -5  -9 0.43517 1.59626   5
   2  -5  -9 -0.8842 1.94184   9
  -2   5   9 0.59914 2.00778   6
  -2   5   9 -0.7655 1.71325   3
  -2   5   9 -0.3511 2.13940   4
  -2   5   9 0.80318 1.75328  10
   1  -5  -9 0.72502 1.89701   2
   1  -5  -9 0.69087 1.90429   9
   1  -5  -9 0.94738 1.48694   5
  -1   5   9 0.86972 2.11740   4
  -1   5   9 -0.4875 1.57833   3
  -1   5   9 1.94607 1.97666   6
  -1   5   9 2.48224 1.64959  10
   0  -5  -9 22.4600 2.83327   2
   0  -5  -9 27.5525 2.48677   5
   0  -5  -9 26.2761 3.03853   9
   0   5   9 28.5116 2.42368   3
   0   5   9 22.8108 3.06410   4
   0   5   9 21.4392 2.71576   6
   0   5   9 26.2683 2.45327  10
  -1  -5  -9 3.64050 1.99091   9
  -1  -5  -9 6.73585 2.18380   7
  -1  -5  -9 4.67264 1.64614   5
  -1  -5  -9 3.96902 2.06916   2
   1   5   9 2.48388 2.02628   4
   1   5   9 2.21321 1.75378   6
   1   5   9 2.90497 1.37150   3
   1   5   9 4.91443 1.47994  10
  -2  -5  -9 3.75823 1.59478   5
  -2  -5  -9 1.39559 2.01391   9
  -2  -5  -9 2.07515 1.96803   7
  -2  -5  -9 6.09389 2.31358   2
   2   5   9 6.03178 1.38580  10
   2   5   9 8.02893 2.29607   4
   2   5   9 7.63573 2.03031   6
  -3  -5  -9 37.5818 2.81728   5
  -3  -5  -9 35.3540 3.25808   7
  -3  -5  -9 30.6386 3.26322   2
   3   5   9 29.7226 3.06753   4
   3   5   9 38.1521 2.45653  10
   3   5   9 40.6013 3.19939   6
  -4  -5  -9 6.21932 2.39676   2
  -4  -5  -9 9.58971 1.96567   5
  -4  -5  -9 6.30111 2.24909   7
   4   5   9 1.92282 1.64404   6
   4   5   9 4.71184 1.90338   4
  -5  -5  -9 1.68799 2.07395   7
  -5  -5  -9 3.53910 1.80191   5
  -5  -5  -9 2.49259 2.30949   2
   5   5   9 3.18395 1.56683   6
   5   5   9 1.41085 1.68720   4
  -6  -5  -9 57.9512 3.50337   5
  -6  -5  -9 47.3882 4.01751   2
  -6  -5  -9 43.3999 3.79354   7
   6   5   9 48.9160 3.78098   4
  -7  -5  -9 96.1178 5.43401   7
  -7  -5  -9 118.701 5.96121   2
   7   5   9 93.8811 5.09060   8
   2  -6  -9 -0.3121 1.98419   9
   2  -6  -9 -0.0113 1.69671   5
  -2   6   9 -2.6841 1.59514   3
  -2   6   9 -1.3261 1.67753  10
  -2   6   9 -1.3688 1.92231   6
   1  -6  -9 1.91070 2.09205   9
   1  -6  -9 0.01695 1.85730   2
   1  -6  -9 -0.2380 1.67283   5
  -1   6   9 2.72604 2.21789   4
  -1   6   9 -0.8311 1.45537  10
  -1   6   9 1.83007 2.00138   6
  -1   6   9 -1.1937 1.48101   3
   0  -6  -9 60.2347 4.05329   2
   0  -6  -9 54.2042 4.05175   9
   0  -6  -9 51.0199 3.52550   5
   0   6   9 58.6259 4.26873   6
   0   6   9 43.9458 3.01248  10
   0   6   9 52.5753 4.24818   4
  -1  -6  -9 4.70308 2.04731   9
  -1  -6  -9 7.22266 2.28961   2
  -1  -6  -9 0.90058 1.68202   5
  -1  -6  -9 3.37857 2.09922   7
   1   6   9 3.39546 1.97994   6
   1   6   9 7.43454 2.33468   4
  -2  -6  -9 -1.1243 1.83240   7
  -2  -6  -9 -1.1507 1.88877   9
  -2  -6  -9 -1.2172 2.04304   2
  -2  -6  -9 -1.2393 1.55533   5
   2   6   9 -0.6760 1.91270   4
   2   6   9 1.05028 1.80580   6
  -3  -6  -9 70.5566 3.83853   5
  -3  -6  -9 71.6846 4.46054   7
  -3  -6  -9 75.7777 4.91003   2
   3   6   9 69.7607 4.19806   4
   3   6   9 75.4744 3.97658   6
  -4  -6  -9 5.11585 2.01551   5
  -4  -6  -9 1.49216 2.06297   7
  -4  -6  -9 5.00443 2.42108   2
   4   6   9 4.64728 1.98102   4
   4   6   9 4.92417 1.75397   6
  -5  -6  -9 57.5157 3.77773   5
  -5  -6  -9 54.7928 4.41044   7
  -5  -6  -9 53.2901 4.18133   2
   5   6   9 45.5428 3.37769   4
   5   6   9 42.4221 3.51340   6
  -6  -6  -9 38.0982 3.86823   2
  -6  -6  -9 31.6491 3.08385   5
  -6  -6  -9 36.4475 3.62001   7
  -7  -6  -9 25.0628 2.90287   5
  -7  -6  -9 23.5128 3.33291   7
  -7  -6  -9 23.2924 3.47372   2
   1  -7  -9 7.79431 2.10167   5
   1  -7  -9 3.16928 2.17454   9
   1  -7  -9 5.38326 2.06614   2
  -1   7   9 -0.6316 1.97431   6
   0  -7  -9 23.3417 3.04487   9
   0  -7  -9 22.7962 2.73725   5
   0  -7  -9 19.2378 2.77701   2
   0   7   9 19.0171 2.85995   6
  -1  -7  -9 40.7694 3.23495   5
  -1  -7  -9 37.8638 3.36783   7
  -1  -7  -9 37.7781 3.64113   9
  -1  -7  -9 40.0361 3.47587   2
   1   7   9 36.3697 3.37084   6
   1   7   9 35.4740 3.53866   4
  -2  -7  -9 -1.6733 1.82868   7
  -2  -7  -9 0.34109 1.94916   2
  -2  -7  -9 -1.4134 1.65621   5
  -2  -7  -9 -1.1357 1.83543   9
   2   7   9 3.59044 2.03621   4
   2   7   9 0.22364 1.70607   6
  -3  -7  -9 8.26864 2.30762   7
  -3  -7  -9 12.6804 2.65612   9
  -3  -7  -9 9.64494 2.65469   2
  -3  -7  -9 7.58010 2.14191   5
   3   7   9 12.5242 2.47747   4
   3   7   9 6.09314 1.95155   6
  -4  -7  -9 -1.2199 1.76282   5
  -4  -7  -9 -0.7006 1.96648   7
  -4  -7  -9 4.36743 2.31427   2
   4   7   9 -1.7855 1.44674   6
   4   7   9 -0.8257 1.71681   4
  -5  -7  -9 2.64203 2.42202   2
  -5  -7  -9 1.29373 1.96381   5
  -5  -7  -9 2.75198 2.26088   7
  -6  -7  -9 101.028 5.97824   2
  -6  -7  -9 97.9162 5.31475   7
  -6  -7  -9 102.052 5.03344   5
   0  -8  -9 4.23027 2.26450   9
   0  -8  -9 4.04795 2.11549   2
   0  -8  -9 -1.8705 1.92323   5
   0   8   9 0.75784 1.97202   6
  -1  -8  -9 20.4345 2.87122   2
  -1  -8  -9 21.3984 2.76050   5
  -1  -8  -9 19.1974 2.94252   9
  -1  -8  -9 16.5923 2.69968   7
   1   8   9 15.3204 2.67753   6
  -2  -8  -9 4.05916 2.02584   5
  -2  -8  -9 3.09999 2.27681   2
  -2  -8  -9 5.89164 2.20083   7
  -2  -8  -9 1.36572 2.07359   9
   2   8   9 2.75681 2.04589   6
  -3  -8  -9 15.1362 2.58600   5
  -3  -8  -9 10.1715 2.75836   2
  -3  -8  -9 14.6024 2.79379   9
  -3  -8  -9 16.4520 2.73604   7
   3   8   9 14.8081 2.42447   6
  -4  -8  -9 19.3934 2.85475   7
  -4  -8  -9 11.9718 2.39119   5
  -4  -8  -9 15.0746 3.02213   2
   4   8   9 12.7847 2.25417   6
  -5  -8  -9 0.71152 2.08926   5
  -5  -8  -9 -2.6051 2.07383   7
  -5  -8  -9 0.20310 2.46482   2
   0  -5  10 82.9212 5.27342   4
   0  -5  10 70.3514 5.12902   3
   1  -5  10 197.337 7.59396   4
   1  -5  10 193.528 6.23558   1
   2  -5  10 0.48201 2.35662   4
   2  -5  10 -0.4517 1.83794   1
   3  -5  10 38.2553 4.15258   4
   3  -5  10 41.5775 3.67491   1
   4  -5  10 -0.4581 2.43281   4
   4  -5  10 6.40755 2.45448   1
   1   4 -10 80.2713 4.47419   9
  -1  -4  10 101.274 5.32639   3
  -1  -4  10 84.8070 5.40960   4
  -1  -4  10 82.3399 5.57469  10
   0   4 -10 19.8549 2.61394   9
   0  -4  10 17.0119 3.06820   4
   0  -4  10 14.3678 2.80783   3
  -1   4 -10 2.92692 1.78939   9
   1  -4  10 4.78477 2.39047   4
   1  -4  10 3.83824 1.86827   1
  -2   4 -10 6.82448 2.00228   9
   2  -4  10 5.92792 2.15185   1
   2  -4  10 11.2181 2.76823   4
  -3   4 -10 2.81165 1.82094   7
  -3   4 -10 2.69969 1.82395   9
   3  -4  10 5.51782 2.22653   1
   3  -4  10 5.04642 2.50511   4
  -4   4 -10 43.2690 3.48834   7
  -4   4 -10 47.7097 4.00007   9
   4  -4  10 53.8980 4.15028   1
   4  -4  10 46.8610 4.33122   4
  -5   4 -10 41.6771 3.18099   7
   5  -4  10 36.6037 4.05468   4
   5  -4  10 37.0714 3.82546   1
   2   3 -10 5.86126 2.28916   9
  -2  -3  10 2.01431 2.20036   3
  -2  -3  10 3.61567 2.46397  10
  -2  -3  10 7.89369 2.57372   4
   1   3 -10 14.9713 2.63636   9
  -1  -3  10 10.6909 2.76044   4
  -1  -3  10 9.69121 2.73287  10
  -1  -3  10 9.32106 2.46294   3
   0   3 -10 18.3227 2.61307   9
   0  -3  10 13.4212 2.85841   4
   0  -3  10 21.4894 2.98665   3
  -1   3 -10 -0.1001 1.81093   9
   1  -3  10 1.78958 1.85978   3
   1  -3  10 -0.4086 2.12887   4
   1  -3  10 1.91571 1.74315   1
  -2   3 -10 22.1433 2.53683   7
  -2   3 -10 22.3732 2.67983   9
   2  -3  10 19.2717 3.01883   4
   2  -3  10 25.2171 2.78935   1
  -3   3 -10 32.1519 2.86169   7
  -3   3 -10 32.9192 2.88747   2
  -3   3 -10 33.7825 3.08322   9
   3  -3  10 39.9402 4.02060   4
   3  -3  10 34.8895 3.24648   1
  -4   3 -10 6.37417 1.89769   2
  -4   3 -10 8.34160 2.12283   7
  -4   3 -10 2.48568 1.98151   9
   4  -3  10 4.24330 2.49335   4
   4  -3  10 7.36565 2.35431   1
  -5   3 -10 18.2879 2.57101   7
  -5   3 -10 19.8961 2.40316   2
   5  -3  10 23.1903 3.16236   1
   5  -3  10 19.7550 2.46527   8
   5  -3  10 17.4374 3.11583   4
  -6   3 -10 0.74414 1.97598   7
   6  -3  10 3.07277 1.90342   8
   6  -3  10 2.83219 2.60225   4
   6  -3  10 2.94043 2.40061   1
   2   2 -10 -0.2978 1.98554   9
  -2  -2  10 -1.0343 2.15804  10
  -2  -2  10 -1.7617 1.98726   4
  -2  -2  10 1.27993 2.05037   3
   1   2 -10 4.88252 2.20537   9
  -1  -2  10 1.44962 2.18019   4
  -1  -2  10 1.09277 2.05448   3
  -1  -2  10 3.79512 2.35057  10
   0   2 -10 0.35198 1.80872   9
   0  -2  10 -0.3962 2.09089   4
   0  -2  10 0.10080 1.90507   3
  -1   2 -10 0.17340 1.88564   9
   1  -2  10 -0.5652 1.80851   3
   1  -2  10 2.02012 2.18011   4
  -2   2 -10 55.4722 3.82832   9
  -2   2 -10 57.4546 3.80094   2
  -2   2 -10 58.6412 3.86148   7
   2  -2  10 54.0065 4.36284   4
   2  -2  10 54.1495 3.65860   1
  -3   2 -10 20.0226 2.56478   7
  -3   2 -10 20.8547 2.52161   2
  -3   2 -10 25.4041 2.86030   9
   3  -2  10 18.5682 3.07503   4
   3  -2  10 19.1401 2.66785   1
  -4   2 -10 6.79021 1.99439   2
  -4   2 -10 6.45919 2.09138   7
   4  -2  10 4.21275 2.36525   4
   4  -2  10 7.48309 1.64204   8
   4  -2  10 9.72663 2.37880   1
  -5   2 -10 1.44764 1.86907   7
  -5   2 -10 0.03720 1.76250   2
   5  -2  10 -1.8879 1.47638   8
   5  -2  10 2.52094 2.05520   1
   5  -2  10 2.15255 2.39584   4
  -6   2 -10 -1.7894 1.84299   7
  -6   2 -10 1.69435 1.97479   2
   6  -2  10 1.57500 2.07612   1
   6  -2  10 -1.8936 2.27496   4
   6  -2  10 -0.6973 1.70621   8
  -7   2 -10 18.3918 3.01937   2
  -7   2 -10 18.5518 2.84378   7
   7  -2  10 15.6025 3.08593   4
   7  -2  10 12.8658 2.56157   8
   7  -2  10 12.9536 2.89327   1
   3   1 -10 20.0032 3.17016   9
  -3  -1  10 16.5827 3.02070   4
  -3  -1  10 16.2236 3.04666  10
  -3  -1  10 8.28920 2.53611   3
   2   1 -10 6.73047 2.40775   9
  -2  -1  10 4.67371 2.49210   4
  -2  -1  10 1.51962 2.30981  10
  -2  -1  10 5.16651 2.17375   3
   1   1 -10 12.0808 2.51774   9
  -1  -1  10 9.87775 2.57764  10
  -1  -1  10 14.5558 2.77547   4
  -1  -1  10 10.0975 2.34571   3
   0   1 -10 19.6316 2.76729   9
   0  -1  10 11.9095 2.52810  10
   0  -1  10 15.1476 2.51555   3
   0  -1  10 18.2911 3.07321   4
  -1   1 -10 9.78554 2.20322   2
  -1   1 -10 9.30269 2.32184   9
   1  -1  10 6.07004 1.97916   3
   1  -1  10 9.19580 2.48235   4
  -2   1 -10 84.8191 4.25201   7
  -2   1 -10 94.1072 4.53967   2
  -2   1 -10 81.9042 4.38339   9
   2  -1  10 79.5995 4.81188   4
  -3   1 -10 0.38698 1.91647   9
  -3   1 -10 -1.3530 1.76548   7
  -3   1 -10 2.53948 1.91128   2
   3  -1  10 2.28143 2.11186   4
   3  -1  10 0.52179 1.84711   1
  -4   1 -10 1.87709 1.98589   7
  -4   1 -10 0.96717 1.86927   2
   4  -1  10 -0.6807 1.30060   8
   4  -1  10 -1.1464 1.98249   4
   4  -1  10 2.06094 1.93921   1
  -5   1 -10 55.9235 3.96548   2
  -5   1 -10 57.1465 4.08100   7
   5  -1  10 49.1434 3.84510   1
   5  -1  10 59.2700 3.49147   8
   5  -1  10 55.8946 4.40419   4
  -6   1 -10 12.6102 2.53804   7
  -6   1 -10 14.0588 2.51963   2
   6  -1  10 12.3029 2.22803   8
   6  -1  10 18.3147 3.01653   4
   6  -1  10 13.0895 2.88117   1
  -7   1 -10 5.36719 2.32027   2
  -7   1 -10 3.67603 2.20793   7
   7  -1  10 5.17705 2.20090   8
   7  -1  10 6.97916 2.58071   4
   7  -1  10 1.95248 2.33511   1
   3   0 -10 1.39286 2.20264   9
  -3   0  10 -0.4956 2.31622   4
  -3   0  10 0.24210 1.97747   3
  -3   0  10 0.64889 2.14035  10
   2   0 -10 7.57287 2.55302   9
  -2   0  10 8.89341 2.54854  10
  -2   0  10 9.35926 2.41337   3
  -2   0  10 6.45945 2.52234   4
   1   0 -10 7.89250 2.37965   9
  -1   0  10 10.5952 2.66365   4
  -1   0  10 6.98579 2.36363  10
  -1   0  10 5.67190 2.10885   3
   0   0 -10 4.72892 2.14989   9
   0   0  10 8.57332 2.09472   3
   0   0  10 7.30012 2.39521   4
   0   0  10 5.27557 2.24059  10
  -1   0 -10 88.1762 4.67010   9
  -1   0 -10 98.8226 4.83979   7
  -1   0 -10 93.4494 4.73092   2
   1   0  10 90.9170 4.36165   3
   1   0  10 90.8190 5.00781   4
  -2   0 -10 189.045 6.34197   2
  -2   0 -10 197.039 6.41772   7
  -2   0 -10 192.741 6.37669   9
   2   0  10 196.597 5.87306   3
   2   0  10 185.779 6.73301   4
  -3   0 -10 44.3656 3.43815   7
  -3   0 -10 47.8727 3.69036   2
  -3   0 -10 50.6466 3.83228   9
   3   0  10 52.2147 4.11510   4
   3   0  10 45.7285 2.52011   8
  -4   0 -10 11.0695 2.35046   2
  -4   0 -10 10.6153 2.34598   7
   4   0  10 10.1147 2.45108   4
   4   0  10 8.40860 1.66592   8
  -5   0 -10 -0.9897 1.90624   7
  -5   0 -10 3.45654 2.08210   2
   5   0  10 -0.9630 1.55569   8
   5   0  10 -0.2188 1.91115   1
   5   0  10 0.79983 2.04220   4
  -6   0 -10 57.0869 4.36587   7
  -6   0 -10 52.3794 3.90381   2
   6   0  10 67.3709 4.67271   4
   6   0  10 63.6832 4.32869   1
   6   0  10 61.2109 3.78981   8
  -7   0 -10 14.0566 2.72486   2
  -7   0 -10 9.02912 2.60291   7
   7   0  10 16.7051 2.64155   8
   7   0  10 14.9257 2.95295   1
   7   0  10 15.9043 2.84531   4
   3  -1 -10 6.01178 2.53176   9
  -3   1  10 1.55447 2.19934   3
  -3   1  10 7.88311 2.68411   4
  -3   1  10 4.87584 2.43165  10
   2  -1 -10 4.27893 2.34885   9
  -2   1  10 3.31467 2.02864   3
  -2   1  10 5.04243 2.31625  10
  -2   1  10 2.01295 2.28937   4
   1  -1 -10 6.50746 2.33772   9
  -1   1  10 6.11789 2.06638  10
  -1   1  10 9.26169 2.55477   4
  -1   1  10 6.76500 2.12835   3
   0  -1 -10 20.6493 2.75535   2
   0  -1 -10 18.7467 2.78605   9
   0   1  10 18.7081 2.94590   4
   0   1  10 17.1548 2.55095  10
   0   1  10 15.9050 2.34989   3
  -1  -1 -10 -1.9863 1.82585   7
  -1  -1 -10 1.60238 1.94651   2
  -1  -1 -10 0.71601 1.97628   9
   1   1  10 -0.3601 1.95133   4
   1   1  10 0.28538 1.55181   3
  -2  -1 -10 228.283 7.01486   9
  -2  -1 -10 223.232 6.93308   2
  -2  -1 -10 214.697 6.81316   7
   2   1  10 210.796 7.22633   4
   2   1  10 228.977 6.23627   3
  -3  -1 -10 5.30038 2.13906   7
  -3  -1 -10 2.18891 2.01520   2
  -3  -1 -10 6.09046 1.30830   5
  -3  -1 -10 5.45669 2.23289   9
   3   1  10 3.72057 1.59242   3
   3   1  10 4.09672 2.10691   4
  -4  -1 -10 36.8719 2.36277   5
  -4  -1 -10 30.3427 3.07627   2
  -4  -1 -10 33.2321 3.17404   7
   4   1  10 39.9997 2.79958   8
   4   1  10 32.1739 3.32380   4
  -5  -1 -10 39.3024 3.53326   7
  -5  -1 -10 42.4681 3.60552   2
   5   1  10 43.0122 3.17601   8
   5   1  10 37.5693 3.56587   4
  -6  -1 -10 4.78098 2.43508   2
  -6  -1 -10 7.72364 2.42436   7
   6   1  10 3.23060 1.93015   8
   6   1  10 5.45900 2.29204   4
  -7  -1 -10 -2.9297 2.04144   7
  -7  -1 -10 2.72037 2.27952   2
   7   1  10 4.35447 2.26706   4
   7   1  10 -0.8343 1.99297   8
   3  -2 -10 1.24359 2.30230   9
  -3   2  10 -1.3857 2.04874   4
  -3   2  10 3.27282 2.27210   3
  -3   2  10 2.15392 2.10448  10
   2  -2 -10 -0.9414 2.07515   9
  -2   2  10 3.00724 2.04546  10
  -2   2  10 0.33585 2.18115   4
  -2   2  10 2.39287 1.95955   3
   1  -2 -10 8.24223 2.42878   9
  -1   2  10 10.6912 2.19766   3
  -1   2  10 7.42790 2.26152  10
  -1   2  10 10.5291 2.72632   4
   0  -2 -10 8.60958 2.41696   2
   0  -2 -10 14.1561 2.62582   9
   0   2  10 14.3244 2.68098   4
   0   2  10 7.29080 1.93340   3
   0   2  10 8.81868 2.12537  10
  -1  -2 -10 7.84991 2.29380   9
  -1  -2 -10 8.74570 2.27473   7
  -1  -2 -10 11.9673 2.38544   2
   1   2  10 10.8040 2.00381   3
   1   2  10 5.20764 2.32100   4
   1   2  10 13.5183 2.18072  10
  -2  -2 -10 12.9110 2.49509   9
  -2  -2 -10 12.2430 1.51940   5
  -2  -2 -10 16.0292 2.53782   7
  -2  -2 -10 13.2687 2.51581   2
   2   2  10 11.1915 2.45237   4
   2   2  10 11.4764 1.83282   3
  -3  -2 -10 6.78687 2.32985   2
  -3  -2 -10 10.4048 1.49435   5
  -3  -2 -10 4.19209 2.29112   9
  -3  -2 -10 5.68599 2.10810   7
   3   2  10 5.27323 2.23625   4
   3   2  10 7.43692 1.60304   3
  -4  -2 -10 20.4130 2.79262   7
  -4  -2 -10 26.2093 2.99509   2
  -4  -2 -10 23.0428 2.01750   5
   4   2  10 22.7823 2.97510   4
   4   2  10 20.0850 2.02845   3
   4   2  10 19.9390 2.30103   8
  -5  -2 -10 11.7056 2.53438   7
  -5  -2 -10 11.4009 2.61960   2
   5   2  10 10.4934 2.50567   4
   5   2  10 11.7447 2.15864   8
  -6  -2 -10 10.0919 2.56760   7
  -6  -2 -10 14.1391 2.86253   2
   6   2  10 14.6236 2.40034   8
   6   2  10 21.0668 2.89613   4
  -7  -2 -10 9.41778 2.79466   2
  -7  -2 -10 10.0711 2.70348   7
   7   2  10 18.9452 2.76169   4
   7   2  10 13.4654 2.58808   8
   2  -3 -10 -0.8351 2.11732   9
  -2   3  10 0.75850 2.21829   4
  -2   3  10 0.25457 1.99805   6
  -2   3  10 -1.0034 1.72118  10
  -2   3  10 -4.2868 1.80569   3
   1  -3 -10 5.48715 2.28026   9
  -1   3  10 5.45523 2.00246  10
  -1   3  10 4.84304 1.94408   3
  -1   3  10 8.72506 2.58449   4
   0  -3 -10 13.9669 2.63081   9
   0  -3 -10 13.4562 2.57895   2
   0   3  10 14.0140 2.17472   3
   0   3  10 13.0874 2.76193   4
   0   3  10 11.0824 2.19130  10
  -1  -3 -10 5.40884 1.42449   5
  -1  -3 -10 3.31746 2.17704   7
  -1  -3 -10 6.07744 2.22424   9
  -1  -3 -10 5.21172 2.28297   2
   1   3  10 4.64756 1.76359  10
   1   3  10 5.18403 2.28640   4
   1   3  10 6.62912 1.73862   3
  -2  -3 -10 58.8432 4.33120   7
  -2  -3 -10 59.4147 4.21309   2
  -2  -3 -10 55.4831 4.14470   9
  -2  -3 -10 57.3467 2.91046   5
   2   3  10 61.3257 4.29159   4
   2   3  10 59.6642 3.10629   3
   2   3  10 54.5680 3.38259  10
  -3  -3 -10 3.10501 2.02533   7
  -3  -3 -10 4.59814 1.47098   5
  -3  -3 -10 5.31210 2.22729   2
   3   3  10 3.65228 1.35389   3
   3   3  10 0.83321 2.03747   4
  -4  -3 -10 9.20650 1.76198   5
  -4  -3 -10 10.0533 2.32455   7
  -4  -3 -10 4.82343 2.37914   2
   4   3  10 7.93337 2.37966   4
  -5  -3 -10 4.00234 1.56492   5
  -5  -3 -10 -0.4256 2.00775   7
  -5  -3 -10 2.18846 2.26707   2
   5   3  10 -0.4502 1.85648   4
   5   3  10 2.40058 1.80733   8
  -6  -3 -10 12.1408 2.88049   2
  -6  -3 -10 15.5417 2.90452   7
   6   3  10 19.0414 2.77334   4
   6   3  10 15.0521 2.53498   8
  -7  -3 -10 -0.8092 2.16585   7
  -7  -3 -10 -3.5070 2.39859   2
   7   3  10 -0.3005 2.16492   8
   2  -4 -10 31.7337 3.64094   9
  -2   4  10 30.5554 3.84075   4
  -2   4  10 30.2977 3.39596   6
  -2   4  10 28.4817 3.06510  10
  -2   4  10 31.0270 3.20590   3
   1  -4 -10 22.8145 3.05831   9
   1  -4 -10 39.4079 3.59845   2
  -1   4  10 28.6936 3.18039   6
  -1   4  10 30.7172 3.01629  10
  -1   4  10 29.5891 3.65903   4
  -1   4  10 32.0302 2.97567   3
   0  -4 -10 10.1144 1.72583   5
   0  -4 -10 10.5355 2.41741   2
   0  -4 -10 14.2219 2.56639   9
   0   4  10 9.00391 2.63695   4
   0   4  10 13.7770 2.15608  10
   0   4  10 9.29467 2.32232   6
   0   4  10 9.08739 2.04002   3
  -1  -4 -10 5.27754 1.60660   5
  -1  -4 -10 8.33322 2.49588   2
  -1  -4 -10 6.02027 2.28845   9
  -1  -4 -10 8.13148 2.33635   7
   1   4  10 8.45868 2.52464   4
   1   4  10 7.82334 1.66349   3
   1   4  10 8.37072 1.88127  10
  -2  -4 -10 39.9562 3.64161   2
  -2  -4 -10 41.7522 2.94108   5
  -2  -4 -10 49.2688 3.96636   7
  -2  -4 -10 41.2709 3.63702   9
   2   4  10 44.7119 3.06055  10
   2   4  10 38.6035 3.67312   4
  -3  -4 -10 3.24609 2.16899   7
  -3  -4 -10 4.54619 2.25279   2
  -3  -4 -10 1.73684 1.46609   5
  -3  -4 -10 2.61455 2.14615   9
   3   4  10 2.15651 2.00478   4
   3   4  10 -0.3387 1.33707  10
  -4  -4 -10 45.9377 3.82060   2
  -4  -4 -10 49.4498 3.85383   7
  -4  -4 -10 45.5959 3.17666   5
   4   4  10 47.7296 3.84433   4
  -5  -4 -10 -0.4107 2.16002   2
  -5  -4 -10 0.81428 2.01090   7
  -5  -4 -10 2.82694 1.61403   5
   5   4  10 2.32528 2.04770   4
  -6  -4 -10 3.43570 2.61924   2
  -6  -4 -10 5.97971 1.80119   5
  -6  -4 -10 8.42789 2.47194   7
   6   4  10 3.41771 2.02934   4
   6   4  10 2.70661 2.10852   8
  -7  -4 -10 1.65731 2.27303   7
  -7  -4 -10 -0.5816 2.57935   2
   7   4  10 2.43899 2.28470   8
   2  -5 -10 1.71101 2.17304   9
  -2   5  10 -1.5578 2.41942   4
  -2   5  10 -0.1600 1.97661   6
  -2   5  10 2.71763 1.98210  10
  -2   5  10 2.22006 1.99512   3
   1  -5 -10 24.9096 3.20279   2
   1  -5 -10 25.0403 3.27807   9
   1  -5 -10 26.7597 2.49535   5
  -1   5  10 32.6122 3.01094   3
  -1   5  10 25.0900 3.15142   6
  -1   5  10 26.0173 2.73784  10
  -1   5  10 27.5109 3.58763   4
   0  -5 -10 17.7480 2.84070   9
   0  -5 -10 27.0169 3.10001   2
   0  -5 -10 20.5596 2.27176   5
   0   5  10 25.7955 2.48039   3
   0   5  10 19.5683 2.91144   6
   0   5  10 22.4900 3.22242   4
   0   5  10 23.6247 2.54395  10
  -1  -5 -10 -0.6227 2.08733   2
  -1  -5 -10 -2.2559 1.85381   7
  -1  -5 -10 1.62297 1.99312   9
  -1  -5 -10 0.27063 1.54348   5
   1   5  10 -2.4430 1.73065   6
   1   5  10 -3.8331 2.00757   4
   1   5  10 1.21131 1.46398  10
  -2  -5 -10 1.24349 1.94392   7
  -2  -5 -10 0.36175 1.95992   9
  -2  -5 -10 -1.1483 2.02432   2
  -2  -5 -10 -0.4836 1.50869   5
   2   5  10 -0.2035 1.61558  10
   2   5  10 0.73097 2.03604   4
   2   5  10 2.90831 1.87758   6
  -3  -5 -10 2.56656 2.06370   7
  -3  -5 -10 1.81528 2.33292   2
  -3  -5 -10 -2.0655 1.46338   5
  -3  -5 -10 1.24821 2.05338   9
   3   5  10 -1.8344 1.58270   6
   3   5  10 -1.4430 1.84362   4
  -4  -5 -10 15.6758 2.99401   2
  -4  -5 -10 14.7097 2.70209   7
  -4  -5 -10 12.3790 2.16578   5
   4   5  10 14.8819 2.31448   6
   4   5  10 18.9041 2.78030   4
  -5  -5 -10 2.17704 2.43897   2
  -5  -5 -10 0.90795 2.22675   7
  -5  -5 -10 2.41242 1.75656   5
   5   5  10 -1.2680 1.88244   4
   5   5  10 -0.7108 1.53608   6
  -6  -5 -10 7.87168 2.08669   5
  -6  -5 -10 8.57354 2.96840   2
  -6  -5 -10 11.0138 2.70102   7
   6   5  10 13.8885 3.68442   4
  -7  -5 -10 1.86364 2.43487   7
  -7  -5 -10 3.55785 2.76641   2
   1  -6 -10 12.3742 2.75532   9
   1  -6 -10 13.5724 2.29695   5
   1  -6 -10 13.0719 2.74133   2
  -1   6  10 13.7852 2.99273   4
  -1   6  10 17.0267 2.83028   6
  -1   6  10 11.1338 3.54204  10
   0  -6 -10 7.98551 2.37861   2
   0  -6 -10 3.49258 1.88139   5
   0  -6 -10 7.56908 2.40373   9
   0   6  10 5.89910 2.59585   4
   0   6  10 4.32998 2.28729   6
  -1  -6 -10 -0.2459 1.99105   7
  -1  -6 -10 0.79753 2.05040   2
  -1  -6 -10 0.57884 1.68917   5
  -1  -6 -10 -4.0928 1.78745   9
   1   6  10 -0.1559 1.87701   6
   1   6  10 -1.6791 2.12862   4
  -2  -6 -10 14.9548 2.71544   9
  -2  -6 -10 19.5889 2.44328   5
  -2  -6 -10 17.8686 2.86720   2
  -2  -6 -10 19.7587 2.86688   7
   2   6  10 19.2030 2.75960   6
   2   6  10 23.0058 3.18292   4
  -3  -6 -10 0.48246 2.09220   9
  -3  -6 -10 -3.1506 1.98086   2
  -3  -6 -10 -1.7348 1.58563   5
  -3  -6 -10 -1.7704 2.03815   7
   3   6  10 2.24914 1.82063   6
   3   6  10 -2.0552 1.90439   4
  -4  -6 -10 12.0052 2.85175   2
  -4  -6 -10 6.59042 2.44375   7
  -4  -6 -10 6.06755 1.97896   5
   4   6  10 6.96204 2.08127   6
   4   6  10 6.89395 2.32291   4
  -5  -6 -10 0.33727 2.53134   2
  -5  -6 -10 1.21923 2.21114   7
  -5  -6 -10 5.90372 2.00618   5
   5   6  10 2.47435 2.10955   4
  -6  -6 -10 32.2495 3.64563   7
  -6  -6 -10 30.7471 3.82664   2
  -6  -6 -10 29.7823 3.10416   5
   0  -7 -10 0.22575 2.01046   2
   0  -7 -10 -0.2212 1.85029   5
   0  -7 -10 3.22431 2.23622   9
   0   7  10 4.74869 2.22648   6
   0   7  10 -0.6602 2.31556   4
  -1  -7 -10 18.6076 2.51047   5
  -1  -7 -10 16.4404 2.79448   7
  -1  -7 -10 19.7516 3.01078   9
  -1  -7 -10 16.1058 2.78117   2
   1   7  10 24.7176 3.29629   4
   1   7  10 14.3067 2.68863   6
  -2  -7 -10 16.5315 2.81722   7
  -2  -7 -10 16.7029 2.82098   2
  -2  -7 -10 15.9095 2.91393   9
  -2  -7 -10 14.9447 2.41865   5
   2   7  10 20.2031 2.83393   6
   2   7  10 9.22697 2.63424   4
  -3  -7 -10 19.3625 3.09946   2
  -3  -7 -10 8.72278 2.52978   7
  -3  -7 -10 7.33194 2.23474   5
  -3  -7 -10 11.6155 2.75593   9
   3   7  10 16.1924 2.51865   6
   3   7  10 13.0548 2.67323   4
  -4  -7 -10 14.0538 2.51596   5
  -4  -7 -10 19.8936 3.37785   2
  -4  -7 -10 18.5725 2.96522   7
   4   7  10 14.7204 2.40974   6
   4   7  10 18.3969 2.85632   4
  -5  -7 -10 11.3113 2.58542   5
  -5  -7 -10 9.34251 2.95528   2
  -5  -7 -10 9.23200 2.68973   7
   1  -4  11 8.12291 2.61048   3
   2  -4  11 1.88445 2.07390   1
   2  -4  11 0.64431 2.44925   4
  -3   4 -11 0.80100 1.86440   7
   3  -4  11 3.60766 2.55480   4
   3  -4  11 -1.2640 1.92051   1
   0   3 -11 22.2507 2.93050   9
   0  -3  11 20.5946 3.39436   4
   0  -3  11 17.2098 2.94136   3
  -1   3 -11 3.53317 2.11502   9
   1  -3  11 7.93014 2.43046   3
   1  -3  11 10.5859 2.85809   4
  -2   3 -11 50.1560 3.82218   9
   2  -3  11 46.8475 4.44078   4
   2  -3  11 51.4319 3.88271   1
  -3   3 -11 6.89576 2.20303   9
  -3   3 -11 5.39940 2.06413   7
  -3   3 -11 5.08008 2.01161   2
   3  -3  11 0.67998 2.46349   4
   3  -3  11 0.30803 2.03662   1
  -4   3 -11 19.9572 2.70859   7
  -4   3 -11 17.8548 2.74416   9
  -4   3 -11 20.2317 2.66485   2
   4  -3  11 18.5752 3.43176   4
   4  -3  11 15.5683 2.83436   1
  -5   3 -11 5.97695 2.13326   7
   5  -3  11 6.91511 2.44568   1
   5  -3  11 0.98300 2.67562   4
   1   2 -11 3.19093 2.29143   9
  -1  -2  11 -0.7700 2.18741  10
  -1  -2  11 0.21820 2.23843   4
  -1  -2  11 3.47773 2.14503   3
   0   2 -11 27.2467 3.24045   9
   0  -2  11 21.6229 3.01317   3
   0  -2  11 24.2744 3.52330   4
   0  -2  11 25.4670 3.47779  10
  -1   2 -11 2.03543 2.10769   9
   1  -2  11 3.62061 2.06670   3
   1  -2  11 -0.1044 2.24121   4
  -2   2 -11 -3.0427 1.88844   9
  -2   2 -11 4.18621 2.08407   2
  -2   2 -11 0.47392 1.82380   7
   2  -2  11 0.51499 2.16450   4
   2  -2  11 2.49871 1.92514   3
  -3   2 -11 5.17487 2.11172   7
  -3   2 -11 7.47759 2.22191   2
  -3   2 -11 6.70955 2.36502   9
   3  -2  11 5.53781 2.62133   4
   3  -2  11 14.6583 2.59092   1
  -4   2 -11 -1.5496 1.73123   2
  -4   2 -11 -1.2882 1.91221   9
  -4   2 -11 -3.9085 1.82006   7
   4  -2  11 -3.9464 1.80313   1
   4  -2  11 -0.5030 2.27098   4
  -5   2 -11 0.44226 1.98709   7
  -5   2 -11 -0.6595 1.87044   2
   5  -2  11 -0.7647 2.38464   4
   5  -2  11 2.75060 2.15746   1
  -6   2 -11 2.56374 2.20940   2
  -6   2 -11 5.37998 2.32345   7
   6  -2  11 2.70156 2.66095   4
   6  -2  11 5.64611 2.13012   8
   6  -2  11 1.47357 2.26122   1
   1   1 -11 16.5882 2.92085   9
  -1  -1  11 13.0338 2.62084   3
  -1  -1  11 15.9898 3.04244  10
  -1  -1  11 15.1552 3.02909   4
   0   1 -11 3.12462 2.19758   9
   0  -1  11 1.67260 2.20442  10
   0  -1  11 1.99882 2.40297   4
   0  -1  11 -0.7385 1.83664   3
  -1   1 -11 36.8079 3.54446   9
   1  -1  11 35.0501 3.27754   3
   1  -1  11 39.9876 4.00789   4
  -2   1 -11 -2.4859 1.82645   7
  -2   1 -11 1.88681 2.00317   2
  -2   1 -11 -0.3275 1.98761   9
   2  -1  11 -0.0216 1.85306   3
   2  -1  11 1.70008 2.38969   4
  -3   1 -11 5.24158 2.31475   9
  -3   1 -11 14.8739 2.59803   7
  -3   1 -11 7.21883 2.20129   2
   3  -1  11 6.87727 2.56243   4
  -4   1 -11 6.99835 2.23497   2
  -4   1 -11 10.4156 2.44954   7
  -4   1 -11 12.7528 2.66374   9
   4  -1  11 11.3533 2.51443   1
   4  -1  11 8.69299 2.74944   4
  -5   1 -11 13.0260 2.54379   2
  -5   1 -11 10.8060 2.50161   7
   5  -1  11 11.0452 2.65632   1
   5  -1  11 13.5813 2.97307   4
  -6   1 -11 -0.5312 2.04746   2
  -6   1 -11 -0.2197 2.11775   7
   6  -1  11 1.25435 2.42128   4
   6  -1  11 1.95814 2.28761   1
   6  -1  11 -0.2035 1.76849   8
   1   0 -11 62.0585 4.55426   9
  -1   0  11 55.1852 4.29628   3
  -1   0  11 62.7629 4.85302   4
  -1   0  11 60.9214 4.71354  10
   0   0 -11 7.83242 2.50878   9
   0   0  11 13.5039 2.43044   3
   0   0  11 14.6639 2.91425   4
   0   0  11 11.0112 2.58573  10
  -1   0 -11 0.00820 2.01786   9
  -1   0 -11 4.83233 2.22828   2
   1   0  11 1.69452 2.27509   4
   1   0  11 2.83761 1.89165   3
  -2   0 -11 8.04617 2.33550   7
  -2   0 -11 3.75403 2.15963   9
  -2   0 -11 6.25458 2.21743   2
   2   0  11 6.98542 2.60266   4
   2   0  11 6.27855 1.99545   3
  -3   0 -11 4.45171 2.26547   9
  -3   0 -11 3.64104 2.23636   2
  -3   0 -11 5.07314 2.21756   7
   3   0  11 4.34538 1.81258   3
   3   0  11 3.94192 2.32674   4
  -4   0 -11 10.4398 2.45608   7
  -4   0 -11 11.4376 2.52887   2
   4   0  11 11.0353 2.74377   4
  -5   0 -11 4.23227 2.20386   7
  -5   0 -11 3.00688 2.28943   2
   5   0  11 8.34335 1.92186   8
   5   0  11 8.78509 2.68476   4
  -6   0 -11 -1.3803 2.05174   7
  -6   0 -11 1.36244 2.31320   2
   6   0  11 2.71858 1.93773   8
   6   0  11 1.24288 2.29805   4
   1  -1 -11 5.72053 2.37126   9
  -1   1  11 11.5450 2.89041   4
  -1   1  11 6.90751 2.28182   3
  -1   1  11 10.2972 2.51734  10
   0  -1 -11 -2.3302 1.92435   9
   0   1  11 1.47233 1.87137   3
   0   1  11 -1.7309 2.15240   4
   0   1  11 -1.0808 1.97131  10
  -1  -1 -11 81.7934 4.88727   9
  -1  -1 -11 79.9020 4.96797   2
   1   1  11 90.6082 5.21070   4
   1   1  11 88.2953 4.39618   3
   1   1  11 82.2691 4.69272  10
  -2  -1 -11 6.51995 2.28785   7
  -2  -1 -11 11.8975 2.53370   2
  -2  -1 -11 6.87761 2.38020   9
   2   1  11 8.98289 2.00283   3
   2   1  11 4.59926 2.42778   4
  -3  -1 -11 68.9242 4.64375   7
  -3  -1 -11 69.6454 4.57092   9
  -3  -1 -11 68.1527 4.66980   2
   3   1  11 64.1443 3.64883   3
   3   1  11 73.9721 4.89130   4
  -4  -1 -11 3.19339 2.33206   2
  -4  -1 -11 -4.0462 1.90984   7
   4   1  11 1.34669 2.24565   4
   4   1  11 -2.7598 2.01006   8
   4   1  11 -0.8827 1.39888   3
  -5  -1 -11 6.98665 2.43406   7
  -5  -1 -11 0.69986 2.21025   2
   5   1  11 -0.4318 2.21058   4
   5   1  11 0.67174 1.77073   8
  -6  -1 -11 47.8199 4.06561   7
  -6  -1 -11 42.1497 3.85257   2
   6   1  11 35.2855 3.71176   4
  -7  -1 -11 -2.6236 2.08492   7
   1  -2 -11 40.3451 4.04351   9
  -1   2  11 30.9018 3.35705  10
  -1   2  11 36.2594 3.37895   3
  -1   2  11 32.3494 3.91225   4
   0  -2 -11 3.40159 2.27850   9
   0  -2 -11 4.28384 2.27137   2
   0   2  11 -2.7290 1.65285   3
   0   2  11 -0.5671 1.80419  10
   0   2  11 3.47349 2.41925   4
  -1  -2 -11 4.06885 2.26273   9
  -1  -2 -11 2.49750 2.16753   2
  -1  -2 -11 -1.6384 1.94115   7
   1   2  11 -0.8376 1.77432  10
   1   2  11 1.95952 2.33687   4
   1   2  11 -1.4002 1.49592   3
  -2  -2 -11 40.4926 3.69982   2
  -2  -2 -11 35.0929 3.54916   9
  -2  -2 -11 44.9474 3.71603   7
   2   2  11 36.9768 2.83343   3
   2   2  11 31.0736 3.53169   4
   2   2  11 37.9823 3.19963  10
  -3  -2 -11 68.2838 4.57954   7
  -3  -2 -11 58.4327 4.47900   9
  -3  -2 -11 65.4266 4.78732   2
   3   2  11 72.2309 4.77675   4
   3   2  11 67.1219 3.48538   3
  -4  -2 -11 6.16830 2.47923   2
  -4  -2 -11 10.4819 2.60198   7
   4   2  11 6.08838 2.49984   4
  -5  -2 -11 9.23599 1.73623   5
  -5  -2 -11 10.5057 2.76254   2
  -5  -2 -11 6.12638 2.38210   7
   5   2  11 12.2009 2.80882   4
   5   2  11 7.57701 2.04928   8
  -6  -2 -11 28.3367 3.44913   7
  -6  -2 -11 27.5192 3.48394   2
   6   2  11 28.3885 3.39332   4
   6   2  11 21.4090 2.78105   8
   1  -3 -11 1.56156 2.17539   9
  -1   3  11 5.04314 2.10946  10
  -1   3  11 2.48282 2.42154   4
  -1   3  11 0.82488 1.93408   3
   0  -3 -11 7.30229 2.49394   2
   0  -3 -11 1.25453 2.20850   9
   0   3  11 3.35224 2.51597   4
   0   3  11 3.42836 1.92171   3
   0   3  11 9.56527 2.22084  10
  -1  -3 -11 5.58368 2.39782   9
  -1  -3 -11 1.58756 2.29183   2
  -1  -3 -11 -0.9559 2.05272   7
   1   3  11 -1.2815 1.57345  10
   1   3  11 1.36561 2.30399   4
   1   3  11 -0.2312 1.64822   3
  -2  -3 -11 31.1197 3.39116   2
  -2  -3 -11 21.3639 2.97114   7
  -2  -3 -11 24.6949 3.24015   9
   2   3  11 24.3058 2.68936  10
   2   3  11 26.6116 2.62058   3
   2   3  11 26.6273 3.40139   4
  -3  -3 -11 13.1453 2.73359   9
  -3  -3 -11 13.2468 2.67134   2
  -3  -3 -11 12.9489 2.66891   7
   3   3  11 7.14262 2.58477   4
  -4  -3 -11 4.03343 1.62540   5
  -4  -3 -11 0.69351 2.26578   2
  -4  -3 -11 4.60773 2.41978   7
   4   3  11 3.97918 2.38232   4
  -5  -3 -11 1.47014 2.21892   7
  -5  -3 -11 1.48744 1.54874   5
  -5  -3 -11 0.80818 2.49661   2
   5   3  11 1.63726 2.14226   4
  -6  -3 -11 22.2178 2.43181   5
  -6  -3 -11 21.7036 3.47050   2
  -6  -3 -11 18.7986 3.24707   7
   6   3  11 23.4634 2.94541   8
   6   3  11 16.6690 2.91883   4
   1  -4 -11 5.44314 2.45477   9
  -1   4  11 4.92167 2.17272   3
  -1   4  11 3.40687 2.06142  10
  -1   4  11 4.57584 2.37645   6
  -1   4  11 2.28953 2.52358   4
   0  -4 -11 15.3266 2.92428   2
   0  -4 -11 11.6160 2.73955   9
   0   4  11 11.6188 2.67585   6
   0   4  11 14.1765 2.44196  10
   0   4  11 17.5423 2.47475   3
   0   4  11 15.5494 3.08455   4
  -1  -4 -11 4.09733 2.26422   7
  -1  -4 -11 1.99632 2.15948   2
  -1  -4 -11 3.69606 2.30173   9
   1   4  11 1.10562 1.69017  10
   1   4  11 -0.7820 2.17137   4
  -2  -4 -11 1.08683 2.29614   2
  -2  -4 -11 -1.6583 2.01949   7
  -2  -4 -11 3.58640 2.49008   5
  -2  -4 -11 1.39466 2.08878   9
   2   4  11 0.81675 1.60622  10
   2   4  11 -2.1164 2.04847   4
  -3  -4 -11 5.25436 2.40728   9
  -3  -4 -11 7.40752 2.49115   7
  -3  -4 -11 10.1195 2.73297   2
  -3  -4 -11 6.91110 1.78016   5
   3   4  11 10.4406 2.09794  10
   3   4  11 5.66533 2.50006   4
  -4  -4 -11 7.96645 2.47752   7
  -4  -4 -11 6.05213 1.81010   5
  -4  -4 -11 7.52068 2.70563   2
   4   4  11 6.50725 2.46531   4
  -5  -4 -11 11.0776 2.70126   7
  -5  -4 -11 15.1615 2.23105   5
  -5  -4 -11 15.0565 3.14522   2
   5   4  11 13.4114 2.74644   4
  -6  -4 -11 27.8010 3.50092   7
  -6  -4 -11 29.5915 2.86838   5
  -6  -4 -11 38.6489 4.08072   2
   6   4  11 28.2728 3.34891   4
   0  -5 -11 15.3190 2.90862   2
   0  -5 -11 21.4311 3.21483   9
   0   5  11 23.0596 3.48294   4
   0   5  11 21.3885 2.71691  10
   0   5  11 19.1780 3.08715   6
  -1  -5 -11 1.16116 2.20875   9
  -1  -5 -11 -0.7625 2.26717   2
  -1  -5 -11 1.44839 2.25361   7
   1   5  11 -3.6134 2.16065   4
   1   5  11 -0.2803 1.97473   6
  -2  -5 -11 14.3107 2.91067   2
  -2  -5 -11 9.79937 1.99139   5
  -2  -5 -11 11.4304 2.68122   7
  -2  -5 -11 7.41722 2.56018   9
   2   5  11 11.2698 2.45734   6
   2   5  11 13.9803 2.93669   4
  -3  -5 -11 26.6240 3.49632   9
  -3  -5 -11 37.3224 3.87401   2
  -3  -5 -11 27.8313 3.36166   7
  -3  -5 -11 30.8250 2.77937   5
   3   5  11 28.3565 3.44620   4
   3   5  11 25.0944 3.01033   6
  -4  -5 -11 0.70265 2.35043   7
  -4  -5 -11 -0.6665 1.60029   5
  -4  -5 -11 1.49784 2.44072   2
   4   5  11 2.53039 2.24226   4
   4   5  11 0.37444 1.82858   6
  -5  -5 -11 69.8564 5.28609   2
  -5  -5 -11 67.8213 4.01698   5
  -5  -5 -11 75.7175 5.26841   7
   5   5  11 71.7025 4.84684   4
   5   5  11 68.7919 4.13447   6
  -1  -6 -11 50.0587 4.38611   9
  -1  -6 -11 53.9817 4.39430   2
  -1  -6 -11 47.1775 3.39202   5
   1   6  11 52.0813 4.33988   6
   1   6  11 52.9570 4.56226   4
  -2  -6 -11 -2.0632 2.05819   9
  -2  -6 -11 -0.6577 1.77845   5
  -2  -6 -11 -1.4790 2.28975   2
  -2  -6 -11 -1.2826 2.09299   7
   2   6  11 0.56956 2.10507   6
   2   6  11 2.73402 2.41869   4
  -3  -6 -11 133.731 6.21720   9
  -3  -6 -11 137.527 6.58976   2
  -3  -6 -11 140.542 5.30397   5
  -3  -6 -11 131.665 6.04950   7
   3   6  11 138.014 6.28279   4
   3   6  11 130.023 5.76148   6
  -4  -6 -11 3.70693 2.38448   7
  -4  -6 -11 -0.3715 2.28944   9
  -4  -6 -11 6.26734 2.76128   2
  -4  -6 -11 0.78666 1.84512   5
   4   6  11 1.73699 2.02544   6
   4   6  11 2.28618 2.35586   4
  -2   1 -12 77.4086 4.88040   2
  -2   1 -12 79.4511 4.90139   9
   2  -1  12 70.5181 4.54258   3
   2  -1  12 76.8481 5.48356   4
  -3   1 -12 15.1428 2.93067   9
  -3   1 -12 16.3265 2.82205   2
  -3   1 -12 12.6240 2.67524   7
   3  -1  12 12.5168 2.54859   3
   3  -1  12 17.7056 3.32926   4
  -4   1 -12 33.3000 3.51302   7
  -4   1 -12 33.4975 3.47594   2
  -4   1 -12 36.7817 3.70388   9
   4  -1  12 35.9746 4.10984   4
  -1   0 -12 32.4158 3.65830   9
   1   0  12 27.0517 3.11762   3
   1   0  12 28.4176 3.65451   4
   1   0  12 24.9235 3.26853  10
  -2   0 -12 76.8144 5.11302   7
  -2   0 -12 93.9394 5.29773   2
  -2   0 -12 86.0859 5.16416   9
   2   0  12 86.2144 4.66633   3
   2   0  12 85.7006 5.51957   4
  -3   0 -12 8.99433 2.60184   2
  -3   0 -12 13.1595 2.91891   9
  -3   0 -12 10.9474 2.63403   7
   3   0  12 11.0608 2.29276   3
   3   0  12 8.52587 2.89379   4
  -4   0 -12 -1.5624 2.29417   9
  -4   0 -12 5.69904 2.46470   2
  -4   0 -12 7.62196 2.54200   7
   4   0  12 2.39184 2.52275   4
   4   0  12 4.14377 1.89768   3
  -5   0 -12 6.97046 2.53257   2
  -5   0 -12 -1.5590 2.19870   7
   5   0  12 1.22973 2.47439   4
  -1  -1 -12 20.6782 3.10739   2
  -1  -1 -12 25.7966 3.38408   9
   1   1  12 21.9193 2.88127   3
   1   1  12 23.0852 3.58296   4
   1   1  12 25.6595 3.15894  10
  -2  -1 -12 30.7949 3.61495   9
  -2  -1 -12 30.6661 3.43437   7
  -2  -1 -12 26.2545 3.35402   2
   2   1  12 36.6109 4.06077   4
   2   1  12 26.6691 2.87424   3
  -3  -1 -12 15.8341 3.02088   9
  -3  -1 -12 12.4114 2.71485   7
  -3  -1 -12 12.4013 2.87919   2
   3   1  12 13.5844 2.29132   3
   3   1  12 13.8231 3.05066   4
  -4  -1 -12 7.87535 2.70299   7
  -4  -1 -12 10.9095 2.76125   9
  -4  -1 -12 8.36000 2.64878   2
   4   1  12 13.3152 3.10506   4
  -5  -1 -12 9.00693 2.70969   7
  -5  -1 -12 9.60670 2.86320   2
   5   1  12 9.48993 2.97469   4
  -1  -2 -12 28.2462 3.57752   2
  -1  -2 -12 14.4770 2.97789   9
   1   2  12 21.7788 2.99659  10
   1   2  12 23.9484 2.80071   3
   1   2  12 21.7678 3.45135   4
  -2  -2 -12 32.2997 3.69374   9
  -2  -2 -12 25.5022 3.28575   7
  -2  -2 -12 30.4455 3.58154   2
   2   2  12 27.0174 2.77483   3
   2   2  12 28.1426 3.09565  10
   2   2  12 27.3286 3.67488   4
  -3  -2 -12 28.1377 3.48886   2
  -3  -2 -12 28.7065 3.56719   9
  -3  -2 -12 27.9032 3.54247   7
   3   2  12 25.5390 3.50464   4
  -4  -2 -12 2.76998 2.47929   2
  -4  -2 -12 4.14188 2.52607   7
  -4  -2 -12 2.85153 2.46553   9
   4   2  12 3.62173 2.56517   4
  -5  -2 -12 7.80396 2.73272   2
  -5  -2 -12 1.95375 2.54111   7
   5   2  12 0.31655 2.37386   4
  -1  -3 -12 7.22675 2.59994   9
  -1  -3 -12 10.2136 2.78434   2
   1   3  12 1.03853 2.59343   4
   1   3  12 7.05826 2.22402  10
  -2  -3 -12 90.8395 5.42171   9
  -2  -3 -12 94.5732 5.53489   7
  -2  -3 -12 105.132 5.85701   2
   2   3  12 95.9448 4.81120  10
   2   3  12 90.4581 5.85139   4
  -3  -3 -12 4.42542 2.52378   7
  -3  -3 -12 8.82069 2.69284   9
  -3  -3 -12 10.3705 2.89153   2
   3   3  12 6.03701 2.63415   4
   3   3  12 6.00903 2.07582  10
  -4  -3 -12 10.8517 2.86764   9
  -4  -3 -12 9.23642 2.76412   7
  -4  -3 -12 17.3916 3.34164   2
   4   3  12 10.5339 2.95199   4
  -2  -4 -12 14.2839 2.95034   7
  -2  -4 -12 27.2549 3.54009   2
   2   4  12 17.9260 3.29607   4
  -3  -4 -12 13.4814 2.91717   7
  -3  -4 -12 12.5075 3.03141   2
  -3  -4 -12 12.5200 2.82511   9
   3   4  12 16.2316 3.15551   4
  -4  -4 -12 -2.0648 2.36305   7
   0   0   0    0.00    0.00   0

 _exptl_absorpt_process_details 'SADABS 2014/4'
 _exptl_absorpt_correction_type   multiscan
 _exptl_absorpt_correction_T_max  0.7454
 _exptl_absorpt_correction_T_min  0.7151
 _exptl_special_details
)
 The following wavelength and cell were deduced by SADABS from the
 direction cosines etc. They are given here for emergency use only:
 CELL 0.71086    7.874    9.285    9.957   83.753   72.759   85.865
)

;
_shelx_hkl_checksum              13789
loop_
_space_group_symop_operation_xyz
'x, y, z'
'-x, -y, -z'
loop_
_atom_site_label
_atom_site_type_symbol
_atom_site_fract_x
_atom_site_fract_y
_atom_site_fract_z
_atom_site_U_iso_or_equiv
_atom_site_adp_type
_atom_site_occupancy
_atom_site_site_symmetry_order
_atom_site_calc_flag
_atom_site_refinement_flags_posn
_atom_site_refinement_flags_adp
O1 O 0.42670(11) 0.08944(10) 0.15808(9) 0.0209(2) Uani 1 1 d . .
N1 N 0.69489(16) 0.31050(13) -0.46216(12) 0.0288(3) Uani 1 1 d . .
C1 C 0.82388(17) 0.60309(14) -0.30179(13) 0.0208(3) Uani 1 1 d . .
H10 H 0.8136 0.5739 -0.3908 0.031 Uiso 1 1 calc R U
H9 H 0.9490 0.6197 -0.3120 0.031 Uiso 1 1 calc R U
H1 H 0.7518 0.6926 -0.2787 0.031 Uiso 1 1 calc R U
C2 C 0.75828(15) 0.48493(13) -0.18492(12) 0.0160(3) Uani 1 1 d . .
C3 C 0.69887(16) 0.35703(13) -0.21065(12) 0.0165(3) Uani 1 1 d . .
C4 C 0.63821(16) 0.24420(13) -0.10250(13) 0.0168(3) Uani 1 1 d . .
H11 H 0.5942 0.1594 -0.1236 0.020 Uiso 1 1 calc R U
C5 C 0.64252(15) 0.25646(13) 0.03245(12) 0.0146(3) Uani 1 1 d . .
C6 C 0.57707(15) 0.13014(13) 0.13958(12) 0.0152(3) Uani 1 1 d . .
C7 C 0.69646(16) 0.05297(13) 0.21812(12) 0.0156(3) Uani 1 1 d . .
C8 C 0.62241(17) -0.04300(13) 0.33592(13) 0.0189(3) Uani 1 1 d . .
H7 H 0.4984 -0.0593 0.3638 0.023 Uiso 1 1 calc R U
C9 C 0.72992(18) -0.11447(14) 0.41226(13) 0.0241(3) Uani 1 1 d . .
H6 H 0.6792 -0.1792 0.4930 0.029 Uiso 1 1 calc R U
C10 C 0.91098(18) -0.09190(15) 0.37126(14) 0.0255(3) Uani 1 1 d . .
H2 H 0.9838 -0.1402 0.4248 0.031 Uiso 1 1 calc R U
C11 C 0.80534(16) 0.64957(13) 0.12778(14) 0.0192(3) Uani 1 1 d . .
H3 H 0.8418 0.7376 0.1490 0.023 Uiso 1 1 calc R U
C12 C 0.74860(16) 0.53706(14) 0.23570(13) 0.0184(3) Uani 1 1 d . .
H13 H 0.7462 0.5498 0.3299 0.022 Uiso 1 1 calc R U
C13 C 0.69679(15) 0.40923(13) 0.20630(13) 0.0163(3) Uani 1 1 d . .
H12 H 0.6583 0.3344 0.2805 0.020 Uiso 1 1 calc R U
C14 C 0.69980(15) 0.38716(13) 0.06645(12) 0.0144(3) Uani 1 1 d . .
C15 C 0.98645(18) 0.00087(15) 0.25244(15) 0.0252(3) Uani 1 1 d . .
H4 H 1.1111 0.0148 0.2236 0.030 Uiso 1 1 calc R U
C16 C 0.87942(16) 0.07332(13) 0.17569(14) 0.0195(3) Uani 1 1 d . .
H5 H 0.9309 0.1369 0.0941 0.023 Uiso 1 1 calc R U
C17 C 0.69636(17) 0.33363(14) -0.35153(13) 0.0201(3) Uani 1 1 d . .
C18 C 0.75593(15) 0.50167(13) -0.04293(12) 0.0148(3) Uani 1 1 d . .
C19 C 0.80804(16) 0.63210(13) -0.00769(13) 0.0177(3) Uani 1 1 d . .
H8 H 0.8457 0.7091 -0.0798 0.021 Uiso 1 1 calc R U
loop_
_atom_site_aniso_label
_atom_site_aniso_U_11
_atom_site_aniso_U_22
_atom_site_aniso_U_33
_atom_site_aniso_U_23
_atom_site_aniso_U_13
_atom_site_aniso_U_12
O1 0.0175(5) 0.0200(5) 0.0250(5) 0.0019(4) -0.0065(4) -0.0040(3)
N1 0.0402(7) 0.0292(7) 0.0177(6) -0.0002(5) -0.0092(5) -0.0063(5)
C1 0.0241(7) 0.0200(7) 0.0172(6) 0.0023(5) -0.0058(5) -0.0011(5)
C2 0.0136(6) 0.0169(6) 0.0165(6) 0.0004(5) -0.0045(5) 0.0022(5)
C3 0.0161(6) 0.0188(6) 0.0145(6) -0.0013(5) -0.0049(5) 0.0016(5)
C4 0.0173(6) 0.0153(6) 0.0186(6) -0.0029(5) -0.0061(5) -0.0008(5)
C5 0.0131(6) 0.0146(6) 0.0156(6) 0.0003(5) -0.0042(5) 0.0008(4)
C6 0.0156(6) 0.0144(6) 0.0148(6) -0.0048(5) -0.0023(5) -0.0005(5)
C7 0.0190(6) 0.0129(6) 0.0150(6) -0.0034(5) -0.0044(5) 0.0000(5)
C8 0.0211(6) 0.0170(6) 0.0164(6) -0.0026(5) -0.0021(5) 0.0002(5)
C9 0.0339(8) 0.0199(7) 0.0163(6) -0.0005(5) -0.0057(5) 0.0044(5)
C10 0.0323(8) 0.0231(7) 0.0266(7) -0.0052(6) -0.0181(6) 0.0090(6)
C11 0.0205(6) 0.0140(6) 0.0256(7) -0.0040(5) -0.0099(5) -0.0002(5)
C12 0.0188(6) 0.0205(7) 0.0172(6) -0.0039(5) -0.0071(5) 0.0031(5)
C13 0.0158(6) 0.0160(6) 0.0163(6) 0.0001(5) -0.0047(5) 0.0013(5)
C14 0.0115(5) 0.0153(6) 0.0163(6) -0.0011(5) -0.0046(5) 0.0021(4)
C15 0.0206(7) 0.0213(7) 0.0365(8) -0.0054(6) -0.0125(6) 0.0019(5)
C16 0.0193(6) 0.0153(6) 0.0230(6) -0.0008(5) -0.0048(5) -0.0013(5)
C17 0.0223(6) 0.0182(6) 0.0190(6) 0.0014(5) -0.0056(5) -0.0023(5)
C18 0.0118(6) 0.0153(6) 0.0168(6) -0.0001(5) -0.0044(5) 0.0020(4)
C19 0.0172(6) 0.0145(6) 0.0209(6) 0.0022(5) -0.0063(5) -0.0003(5)
loop_
_atom_type_symbol
_atom_type_description
_atom_type_scat_dispersion_real
_atom_type_scat_dispersion_imag
_atom_type_scat_source
C C 0.0033 0.0016 'International Tables Vol C Tables 4.2.6.8 and 6.1.1.4'
H H 0.0000 0.0000 'International Tables Vol C Tables 4.2.6.8 and 6.1.1.4'
N N 0.0061 0.0033 'International Tables Vol C Tables 4.2.6.8 and 6.1.1.4'
O O 0.0106 0.0060 'International Tables Vol C Tables 4.2.6.8 and 6.1.1.4'
loop_
_geom_angle_atom_site_label_1
_geom_angle_atom_site_label_2
_geom_angle_atom_site_label_3
_geom_angle
C2 C1 H10 109.5
C2 C1 H9 109.5
H10 C1 H9 109.5
C2 C1 H1 109.5
H10 C1 H1 109.5
H9 C1 H1 109.5
C3 C2 C18 117.83(11)
C3 C2 C1 121.45(11)
C18 C2 C1 120.72(11)
C2 C3 C4 122.30(11)
C2 C3 C17 120.65(11)
C4 C3 C17 117.06(11)
C5 C4 C3 120.37(11)
C5 C4 H11 119.8
C3 C4 H11 119.8
C4 C5 C14 119.99(11)
C4 C5 C6 116.40(11)
C14 C5 C6 123.55(10)
O1 C6 C7 120.71(11)
O1 C6 C5 119.03(11)
C7 C6 C5 120.23(10)
C8 C7 C16 119.65(11)
C8 C7 C6 118.71(11)
C16 C7 C6 121.64(11)
C9 C8 C7 119.91(12)
C9 C8 H7 120.0
C7 C8 H7 120.0
C10 C9 C8 120.22(12)
C10 C9 H6 119.9
C8 C9 H6 119.9
C9 C10 C15 120.27(12)
C9 C10 H2 119.9
C15 C10 H2 119.9
C19 C11 C12 119.92(12)
C19 C11 H3 120.0
C12 C11 H3 120.0
C13 C12 C11 120.58(11)
C13 C12 H13 119.7
C11 C12 H13 119.7
C12 C13 C14 120.87(11)
C12 C13 H12 119.6
C14 C13 H12 119.6
C13 C14 C18 118.61(11)
C13 C14 C5 122.40(11)
C18 C14 C5 118.96(11)
C10 C15 C16 119.83(12)
C10 C15 H4 120.1
C16 C15 H4 120.1
C15 C16 C7 120.09(12)
C15 C16 H5 120.0
C7 C16 H5 120.0
N1 C17 C3 177.86(14)
C19 C18 C14 118.62(11)
C19 C18 C2 120.92(11)
C14 C18 C2 120.47(11)
C11 C19 C18 121.40(12)
C11 C19 H8 119.3
C18 C19 H8 119.3
loop_
_geom_bond_atom_site_label_1
_geom_bond_atom_site_label_2
_geom_bond_distance
O1 C6 1.2225(15)
N1 C17 1.1462(17)
C1 C2 1.5042(17)
C1 H10 0.9800
C1 H9 0.9800
C1 H1 0.9800
C2 C3 1.3826(18)
C2 C18 1.4306(17)
C3 C4 1.4138(18)
C3 C17 1.4458(17)
C4 C5 1.3684(17)
C4 H11 0.9500
C5 C14 1.4315(17)
C5 C6 1.5032(17)
C6 C7 1.4888(17)
C7 C8 1.3938(17)
C7 C16 1.3940(17)
C8 C9 1.3849(18)
C8 H7 0.9500
C9 C10 1.384(2)
C9 H6 0.9500
C10 C15 1.386(2)
C10 H2 0.9500
C11 C19 1.3669(18)
C11 C12 1.4056(18)
C11 H3 0.9500
C12 C13 1.3700(18)
C12 H13 0.9500
C13 C14 1.4195(17)
C13 H12 0.9500
C14 C18 1.4262(17)
C15 C16 1.3883(18)
C15 H4 0.9500
C16 H5 0.9500
C18 C19 1.4167(18)
C19 H8 0.9500
