#------------------------------------------------------------------------------
#$Date: 2019-11-12 03:58:08 +0200 (Tue, 12 Nov 2019) $
#$Revision: 227492 $
#$URL: file:///home/coder/svn-repositories/cod/cif/4/51/43/4514385.cif $
#------------------------------------------------------------------------------
#
# This file is available in the Crystallography Open Database (COD),
# http://www.crystallography.net/
#
# All data on this site have been placed in the public domain by the
# contributors.
#
data_4514385
loop_
_publ_author_name
'Liu, Wei'
'Dai, Xing'
'Xie, Jian'
'Silver, Mark A.'
'Zhang, Duo'
'Wang, Yanlong'
'Cai, Yawen'
'Diwu, Juan'
'Wang, Jian'
'Zhou, Ruhong'
'Chai, Zhifang'
'Wang, Shuao'
_publ_section_title
;
 Highly Sensitive Detection of UV Radiation Using a Uranium Coordination
 Polymer.
;
_journal_issue                   5
_journal_name_full               'ACS applied materials &amp; interfaces'
_journal_page_first              4844
_journal_page_last               4850
_journal_paper_doi               10.1021/acsami.7b17954
_journal_volume                  10
_journal_year                    2018
_chemical_formula_moiety         'C11 H10 N2 O9 U'
_chemical_formula_sum            'C11 H10 N2 O9 U'
_chemical_formula_weight         552.24
_chemical_melting_point          ?
_chemical_name_common            'Uranyl 3,5-pyridinedicarboxylate'
_space_group_crystal_system      triclinic
_space_group_IT_number           2
_space_group_name_Hall           '-P 1'
_space_group_name_H-M_alt        'P -1'
_symmetry_space_group_name_Hall  '-P 1'
_symmetry_space_group_name_H-M   'P -1'
_atom_sites_solution_hydrogens   geom
_audit_creation_method           SHELXL-2014
_cell_angle_alpha                94.759(11)
_cell_angle_beta                 103.001(11)
_cell_angle_gamma                106.776(10)
_cell_formula_units_Z            2
_cell_length_a                   6.5654(15)
_cell_length_b                   10.974(3)
_cell_length_c                   11.004(2)
_cell_measurement_reflns_used    1850
_cell_measurement_temperature    296(2)
_cell_measurement_theta_max      24.99
_cell_measurement_theta_min      3.04
_cell_volume                     730.3(3)
_computing_cell_refinement       'Bruker SAINT'
_computing_data_collection       'Bruker APEX2'
_computing_data_reduction        'Bruker SAINT'
_computing_molecular_graphics    'Bruker SHELXTL'
_computing_publication_material  'Bruker SHELXTL'
_computing_structure_refinement  'SHELXL-2014 (Sheldrick, 2014)'
_computing_structure_solution    'SHELXL-2014 (Sheldrick, 2014)'
_diffrn_ambient_temperature      296(2)
_diffrn_measured_fraction_theta_full 0.970
_diffrn_measured_fraction_theta_max 0.999
_diffrn_measurement_device_type  'Bruker APEX-II'
_diffrn_measurement_method       '0.5 wide w/ exposures'
_diffrn_radiation_type           MoK\a
_diffrn_radiation_wavelength     0.71073
_diffrn_reflns_av_R_equivalents  0.0422
_diffrn_reflns_av_unetI/netI     0.0284
_diffrn_reflns_Laue_measured_fraction_full 0.970
_diffrn_reflns_Laue_measured_fraction_max 0.999
_diffrn_reflns_limit_h_max       7
_diffrn_reflns_limit_h_min       -7
_diffrn_reflns_limit_k_max       13
_diffrn_reflns_limit_k_min       -13
_diffrn_reflns_limit_l_max       13
_diffrn_reflns_limit_l_min       -13
_diffrn_reflns_number            14880
_diffrn_reflns_point_group_measured_fraction_full 0.970
_diffrn_reflns_point_group_measured_fraction_max 0.999
_diffrn_reflns_theta_full        25.242
_diffrn_reflns_theta_max         24.997
_diffrn_reflns_theta_min         2.522
_exptl_absorpt_coefficient_mu    11.164
_exptl_absorpt_correction_T_max  0.677
_exptl_absorpt_correction_T_min  0.407
_exptl_absorpt_correction_type   multi-scan
_exptl_absorpt_process_details   SHELTXPREP
_exptl_crystal_colour            Yellow
_exptl_crystal_density_diffrn    2.511
_exptl_crystal_description       Blcok
_exptl_crystal_F_000             508
_exptl_crystal_size_max          0.140
_exptl_crystal_size_mid          0.070
_exptl_crystal_size_min          0.035
_refine_diff_density_max         4.494
_refine_diff_density_min         -0.841
_refine_diff_density_rms         0.186
_refine_ls_extinction_method     none
_refine_ls_goodness_of_fit_ref   0.906
_refine_ls_hydrogen_treatment    constr
_refine_ls_matrix_type           full
_refine_ls_number_parameters     208
_refine_ls_number_reflns         2563
_refine_ls_number_restraints     0
_refine_ls_restrained_S_all      0.906
_refine_ls_R_factor_all          0.0393
_refine_ls_R_factor_gt           0.0340
_refine_ls_shift/su_max          0.014
_refine_ls_shift/su_mean         0.001
_refine_ls_structure_factor_coef Fsqd
_refine_ls_weighting_details
'w=1/[\s^2^(Fo^2^)+(0.1000P)^2^] where P=(Fo^2^+2Fc^2^)/3'
_refine_ls_weighting_scheme      calc
_refine_ls_wR_factor_gt          0.0993
_refine_ls_wR_factor_ref         0.1048
_reflns_Friedel_coverage         0.000
_reflns_number_gt                2347
_reflns_number_total             2564
_reflns_threshold_expression     'I > 2\s(I)'
_cod_data_source_file            am7b17954_si_003.cif
_cod_data_source_block           irradiated
_cod_depositor_comments
;
The following automatic conversions were performed:

'_chemical_melting_point' value 'N/a' was changed to '?' - the value
is undefined or not given.

Automatic conversion script
Id: cif_fix_values 4973 2017-02-22 13:04:09Z antanas 

 Adding full bibliography for 4514385--4514386.cif.
;
_cod_database_code               4514385
_shelx_space_group_comment
;
The symmetry employed for this shelxl refinement is uniquely defined
by the following loop, which should always be used as a source of
symmetry information in preference to the above space-group names.
They are only intended as comments.
;
_shelx_estimated_absorpt_t_min   0.110
_shelx_estimated_absorpt_t_max   0.350
_shelxl_version_number           2014-3
_shelx_res_file
;
TITL B in P-1
CELL 0.71073   6.5654  10.9738  11.0041  94.759 103.001 106.776
ZERR    2.00   0.0015   0.0025   0.0024   0.011   0.011   0.010
LATT  1
SFAC C H N O U
UNIT 22 20 4 18 2
TEMP 23.000

L.S. 20
BOND
OMIT -2 11 8
OMIT 4 9 2
OMIT -5 50
ACTA
FMAP 2
PLAN 20

WGHT    0.100000
FVAR       0.12507
U1    5    0.789041    0.111427    0.361975    11.00000    0.03222    0.01707 =
         0.03318   -0.00072    0.01629   -0.00189
O5    4    0.439489    0.095185    0.626336    11.00000    0.04021    0.01693 =
         0.05215    0.00597    0.02281    0.00251
O3    4    0.880160   -0.036992    0.229959    11.00000    0.03975    0.02332 =
         0.05289   -0.00133    0.02471    0.00207
O6    4    1.032561    0.653114    0.604105    11.00000    0.04766    0.02191 =
         0.05443   -0.00090    0.02965    0.00331
O1    4    0.597667    0.117404    0.222962    11.00000    0.04846    0.03207 =
         0.05395    0.01278    0.01654    0.01308
O7    4    0.898261    0.773866    0.711277    11.00000    0.05036    0.02137 =
         0.08182   -0.01046    0.04235   -0.00485
O4    4    0.570164    0.177433    0.471751    11.00000    0.08474    0.02444 =
         0.07457    0.00064    0.06002    0.00780
O2    4    0.964321    0.116322    0.504029    11.00000    0.07876    0.02432 =
         0.08311    0.00910    0.02415    0.01223
N2    3    1.017599   -0.132550    0.094224    11.00000    0.05249    0.03613 =
         0.03559   -0.00093    0.01709    0.00433
O8    4    0.071705    0.385876    0.803035    11.00000    0.05003    0.04323 =
         0.09598    0.01017    0.04559    0.00892
C4    1    0.512013    0.186877    0.572710    11.00000    0.03279    0.01915 =
         0.05534    0.00353    0.03069    0.00238
C5    1    0.525412    0.319212    0.626516    11.00000    0.03071    0.01560 =
         0.03630    0.00033    0.01663    0.00065
C6    1    0.687364    0.426471    0.610011    11.00000    0.03141    0.02665 =
         0.03842    0.00139    0.01945    0.00120
AFIX  43
H6A   2    0.783247    0.415815    0.562419    11.00000   -1.20000
AFIX   0
N1    3    0.234141    0.478073    0.810603    11.00000    0.04445    0.03780 =
         0.06102    0.01091    0.03525    0.01369
O9    4    0.269682    0.581716    0.870654    11.00000    0.10385    0.04217 =
         0.10424   -0.00816    0.07470    0.01409
C1    1    1.044250   -0.057787    0.200231    11.00000    0.04196    0.02725 =
         0.03322   -0.00063    0.02011    0.00338
AFIX  43
H1B   2    1.184732   -0.019843    0.253854    11.00000   -1.20000
AFIX   0
C11   1    0.887045    0.664068    0.656564    11.00000    0.04387    0.01708 =
         0.04451   -0.00314    0.02065   -0.00239
C10   1    0.376256    0.334966    0.692337    11.00000    0.03660    0.02701 =
         0.04048    0.00884    0.01982    0.00648
AFIX  43
H10A  2    0.267280    0.264257    0.703624    11.00000   -1.20000
AFIX   0
C7    1    0.705192    0.548498    0.664407    11.00000    0.02830    0.01673 =
         0.03607   -0.00244    0.01342   -0.00350
C8    1    0.552580    0.566338    0.727209    11.00000    0.03653    0.02339 =
         0.03984   -0.00248    0.01507    0.00286
AFIX  43
H8A   2    0.557354    0.648558    0.759184    11.00000   -1.20000
AFIX   0
C9    1    0.393788    0.458614    0.740779    11.00000    0.03689    0.02589 =
         0.03272    0.00345    0.02320    0.00428
C3    1    1.204618   -0.161772    0.062041    11.00000    0.05406    0.07274 =
         0.06669   -0.02034    0.02830    0.02067
AFIX  33
H3A   2    1.154839   -0.217288   -0.018082    11.00000   -1.50000
H3B   2    1.312651   -0.083153    0.057205    11.00000   -1.50000
H3C   2    1.269095   -0.204051    0.125879    11.00000   -1.50000
AFIX   0
C2    1    0.800850   -0.193584    0.007886    11.00000    0.05535    0.06839 =
         0.05042   -0.01060    0.01486    0.00334
AFIX  33
H2B   2    0.813978   -0.244083   -0.063751    11.00000   -1.50000
H2C   2    0.707155   -0.248453    0.050356    11.00000   -1.50000
H2D   2    0.738244   -0.128530   -0.019978    11.00000   -1.50000

AFIX   0
HKLF 4

REM  B in P-1
REM R1 =  0.0340 for    2347 Fo > 4sig(Fo)  and  0.0393 for all    2563 data
REM    208 parameters refined using      0 restraints

END

WGHT      0.0463      3.7034

REM Highest difference peak  4.494,  deepest hole -0.841,  1-sigma level  0.186
Q1    1   0.8599  0.0668  0.4028  11.00000  0.05    4.49
Q2    1   0.7020  0.0858  0.2805  11.00000  0.05    1.58
Q3    1   0.6746  0.1594  0.2942  11.00000  0.05    1.54
Q4    1   1.0009  0.0558  0.5018  11.00000  0.05    1.03
Q5    1   1.0324  0.1195  0.4957  11.00000  0.05    0.95
Q6    1   0.7122  0.1758  0.5427  11.00000  0.05    0.91
Q7    1   0.9334  0.6819  0.5382  11.00000  0.05    0.72
Q8    1   0.5776  0.1585  0.2065  11.00000  0.05    0.56
Q9    1   0.5450 -0.2832 -0.0979  11.00000  0.05    0.51
Q10   1  -0.0325  0.5397  0.8216  11.00000  0.05    0.48
Q11   1   0.9652 -0.0223  0.2467  11.00000  0.05    0.46
Q12   1   1.2216 -0.1207 -0.0263  11.00000  0.05    0.46
Q13   1   0.3810  0.5019  0.6873  11.00000  0.05    0.46
Q14   1   1.1714 -0.2850  0.0595  11.00000  0.05    0.44
Q15   1   0.6847 -0.3434 -0.0994  11.00000  0.05    0.44
Q16   1   0.4372  0.3114  0.7514  11.00000  0.05    0.44
Q17   1   0.3266  0.5436  0.9348  11.00000  0.05    0.44
Q18   1   0.8268 -0.1444 -0.0717  11.00000  0.05    0.43
Q19   1   0.8960  0.5904  0.7694  11.00000  0.05    0.42
Q20   1   0.8878  0.7581  0.6662  11.00000  0.05    0.42
;
_shelx_res_checksum              14472
_shelx_hkl_file
;
   1   0   0   37.90    1.42
  -1   0   0   34.93    1.42
  -1   0   0   38.66    1.43
  -1   0   0   39.93    1.61
  -1   0   0   36.81    1.49
   2   0   0  102.08    3.73
   2   0   0   97.70    3.77
   2   0   0  102.46    4.05
  -2   0   0   96.39    3.84
  -2   0   0  105.79    4.10
  -2   0   0  105.98    3.76
  -2   0   0   96.92    3.71
   3   0   0   82.37    3.08
   3   0   0   73.42    3.27
   3   0   0   75.16    3.16
   3   0   0   78.40    3.58
  -3   0   0   76.70    3.04
  -3   0   0   78.85    3.09
  -3   0   0   79.91    3.58
  -3   0   0   74.45    3.24
  -3   0   0   79.40    3.12
   4   0   0   41.37    2.67
   4   0   0   46.57    2.35
   4   0   0   43.57    1.95
   4   0   0   41.09    2.08
  -4   0   0   38.37    2.16
  -4   0   0   38.43    1.98
  -4   0   0   38.65    2.12
  -4   0   0   39.81    2.78
  -4   0   0   42.71    1.96
   5   0   0   50.48    3.49
   5   0   0   65.80    3.36
   5   0   0   60.81    2.93
   5   0   0   60.97    2.72
  -5   0   0   66.56    3.20
  -5   0   0   64.61    2.93
  -5   0   0   61.68    2.81
  -5   0   0   55.72    4.05
   6   0   0    1.41    1.22
   6   0   0    2.99    1.90
   6   0   0    1.34    1.01
   6   0   0    0.01    1.01
  -6   0   0    0.10    2.66
  -6   0   0    0.80    1.07
  -6   0   0    0.87    1.28
  -6   0   0    0.98    0.95
   7   0   0   17.05    2.21
   7   0   0   21.43    2.34
  -7   0   0   17.59    2.22
  -7   0   0   20.53    2.84
  -8   0   1   10.46    2.44
  -8   0   1    5.61    2.46
   8   0  -1    9.20    2.43
  -7   0   1   13.06    2.03
  -7   0   1    7.71    1.81
   7   0  -1    8.61    2.83
   7   0  -1   10.79    1.46
   7   0  -1   11.28    1.94
  -6   0   1   32.08    2.04
  -6   0   1   37.09    4.36
  -6   0   1   39.16    2.82
  -6   0   1   36.68    2.46
   6   0  -1   39.08    2.79
   6   0  -1   33.00    3.23
   6   0  -1   30.41    2.07
  -5   0   1   44.43    2.10
  -5   0   1   44.70    2.36
  -5   0   1   43.90    2.56
  -5   0   1   44.55    3.63
   5   0  -1   46.72    2.69
   5   0  -1   37.15    2.95
   5   0  -1   43.81    2.15
   5   0  -1   37.97    2.10
  -4   0   1   17.92    1.24
  -4   0   1   16.92    1.35
  -4   0   1   19.54    1.99
  -4   0   1   19.86    1.49
   4   0  -1   17.75    1.19
   4   0  -1   19.04    1.48
   4   0  -1   17.63    1.27
   4   0  -1   19.20    2.22
  -3   0   1  161.05    5.87
  -3   0   1  158.07    5.94
  -3   0   1  154.38    5.66
  -3   0   1  152.98    5.81
  -3   0   1  159.20    6.26
   3   0  -1  152.49    5.74
   3   0  -1  159.21    5.80
   3   0  -1  155.09    6.00
   3   0  -1  157.76    6.20
  -2   0   1    0.75    0.32
  -2   0   1    0.27    0.22
  -2   0   1    0.59    0.42
  -2   0   1    0.56    0.35
  -2   0   1    0.07    0.36
   2   0  -1    0.16    0.41
   2   0  -1    0.58    0.23
   2   0  -1    0.48    0.34
   2   0  -1    0.71    0.28
  -1   0   1  282.34    9.87
  -1   0   1  264.84    9.75
   1   0  -1  288.41    9.87
   1   0  -1  279.58    9.77
   1   0   1  293.83   10.65
   1   0   1  321.18   10.83
   1   0   1  288.71   10.64
   1   0   1  309.08   10.56
  -1   0  -1  285.82   10.64
  -1   0  -1  304.74   10.56
  -1   0  -1  297.22   10.65
  -1   0  -1  325.94   10.85
   2   0   1   55.09    2.04
   2   0   1   54.30    2.25
   2   0   1   52.02    2.48
   2   0   1   50.42    2.21
  -2   0  -1   49.78    2.13
  -2   0  -1   50.64    2.20
  -2   0  -1   55.50    2.52
  -2   0  -1   45.75    2.03
  -2   0  -1   56.65    2.10
   3   0   1    0.96    0.47
   3   0   1    0.63    0.33
   3   0   1    0.42    0.87
   3   0   1    0.90    0.48
  -3   0  -1    0.05    0.44
  -3   0  -1    0.60    0.37
  -3   0  -1    0.90    0.85
  -3   0  -1    0.07    0.42
  -3   0  -1    0.43    0.42
   4   0   1  112.20    4.67
   4   0   1  115.11    5.17
   4   0   1  115.22    4.89
   4   0   1  118.19    4.45
  -4   0  -1  112.20    4.55
  -4   0  -1  114.44    4.77
  -4   0  -1  116.28    4.52
  -4   0  -1  113.79    5.42
  -4   0  -1  118.79    4.58
   5   0   1    3.43    0.69
   5   0   1    4.22    1.19
   5   0   1    3.47    1.54
   5   0   1    4.94    1.08
  -5   0  -1    5.10    0.96
  -5   0  -1    3.08    0.90
  -5   0  -1    3.68    1.11
  -5   0  -1    3.50    2.06
   6   0   1   29.69    3.48
   6   0   1   33.92    2.81
   6   0   1   24.73    2.01
   6   0   1   29.74    2.50
  -6   0  -1   27.40    2.20
  -6   0  -1   25.21    3.61
  -6   0  -1   31.92    2.31
  -6   0  -1   32.84    2.84
   7   0   1    3.34    1.77
   7   0   1    3.16    1.59
  -7   0  -1    2.04    2.04
  -7   0  -1    5.29    1.98
  -8   0   2   11.35    2.49
   8   0  -2   11.87    2.45
  -7   0   2    5.72    1.66
  -7   0   2    3.69    1.63
   7   0  -2    5.58    1.83
   7   0  -2    2.35    2.46
  -6   0   2   99.88    4.60
  -6   0   2   97.38    6.13
  -6   0   2  105.11    4.65
   6   0  -2  109.96    5.00
   6   0  -2   90.15    5.17
  -5   0   2    7.05    1.92
  -5   0   2    8.98    1.24
  -5   0   2    6.06    1.15
  -5   0   2    5.31    1.04
   5   0  -2    5.57    0.89
   5   0  -2    8.67    1.39
   5   0  -2    5.03    1.66
  -4   0   2   83.15    4.04
  -4   0   2   81.33    3.59
  -4   0   2   83.00    3.62
  -4   0   2   83.44    3.53
   4   0  -2   82.90    3.67
   4   0  -2   86.69    4.11
   4   0  -2   85.69    3.46
  -3   0   2   49.79    2.32
  -3   0   2   49.72    2.27
  -3   0   2   53.17    2.62
  -3   0   2   55.57    2.35
   3   0  -2   51.61    2.25
   3   0  -2   53.12    2.63
   3   0  -2   51.54    2.37
  -2   0   2   89.17    3.45
  -2   0   2   91.69    3.67
  -2   0   2   91.09    3.50
  -2   0   2   91.70    3.50
   2   0  -2   85.63    3.47
   2   0  -2   89.73    3.45
   2   0  -2   92.54    3.66
  -1   0   2  192.38    7.23
  -1   0   2  211.50    7.37
  -1   0   2  208.39    7.44
   1   0  -2  195.43    7.25
   1   0  -2  211.34    7.35
   1   0  -2  212.26    7.22
   1   0  -2  209.69    7.44
   0   0   2   60.32    2.32
   0   0  -2   59.62    2.20
   0   0  -2   58.69    2.31
   0   0  -2   62.54    2.57
   0   0  -2   63.45    2.40
   1   0   2  164.98    6.06
   1   0   2  147.79    5.75
  -1   0  -2  162.20    5.69
  -1   0  -2  158.36    5.78
  -1   0  -2  154.48    5.84
  -1   0  -2  166.63    5.92
  -1   0  -2  169.02    6.08
   2   0   2   21.37    1.25
   2   0   2   24.64    1.74
   2   0   2   22.29    1.00
   2   0   2   21.41    1.20
  -2   0  -2   20.67    1.02
  -2   0  -2   21.61    1.23
  -2   0  -2   24.88    1.65
  -2   0  -2   20.86    1.23
  -2   0  -2   22.44    1.08
   3   0   2   70.99    3.15
   3   0   2   73.81    2.87
   3   0   2   73.39    3.17
   3   0   2   70.49    3.55
  -3   0  -2   72.68    3.70
  -3   0  -2   75.30    2.92
  -3   0  -2   72.29    2.91
  -3   0  -2   71.23    3.14
  -3   0  -2   72.36    3.10
   4   0   2   95.96    4.18
   4   0   2   90.73    3.67
   4   0   2   91.22    4.52
   4   0   2   92.93    4.07
  -4   0  -2   88.81    4.86
  -4   0  -2   95.52    3.94
  -4   0  -2   95.31    3.81
  -4   0  -2   99.13    3.81
  -4   0  -2   89.20    4.05
   5   0   2   13.44    2.07
   5   0   2   12.69    1.60
   5   0   2    9.89    1.06
   5   0   2   10.04    1.87
  -5   0  -2   11.87    2.66
  -5   0  -2    9.90    1.28
  -5   0  -2   10.08    1.34
  -5   0  -2    9.80    1.45
   6   0   2   29.34    2.65
   6   0   2   22.09    3.11
   6   0   2   29.59    2.80
  -6   0  -2   18.11    3.57
  -6   0  -2   26.89    2.35
  -6   0  -2   22.67    2.32
  -6   0  -2   31.32    2.77
   7   0   2   -1.45    1.89
  -7   0  -2   -2.55    1.81
  -7   0  -2    1.98    2.16
  -8   0   3   -1.74    2.13
  -8   0   3    2.03    2.01
  -7   0   3   28.03    2.88
  -7   0   3   26.55    2.82
   7   0  -3   26.86    2.92
   7   0  -3   25.52    3.56
  -6   0   3   10.60    1.71
  -6   0   3    8.38    2.68
  -6   0   3    9.74    1.55
   6   0  -3   12.48    1.78
   6   0  -3   17.52    2.77
  -5   0   3   20.35    2.79
  -5   0   3   18.91    1.67
  -5   0   3   17.76    1.69
  -5   0   3   18.42    1.89
   5   0  -3   22.74    2.72
   5   0  -3   16.97    1.50
   5   0  -3   22.50    1.81
  -4   0   3   93.77    4.36
  -4   0   3   92.22    3.88
  -4   0   3   96.14    3.94
  -4   0   3   90.93    3.96
   4   0  -3   92.64    3.82
   4   0  -3   87.24    3.92
   4   0  -3   97.15    4.42
  -3   0   3   22.31    1.61
  -3   0   3   22.09    1.33
  -3   0   3   23.47    1.45
  -3   0   3   21.93    1.34
   3   0  -3   24.18    1.68
   3   0  -3   21.95    1.31
   3   0  -3   24.09    1.32
  -2   0   3  356.29   12.76
  -2   0   3  376.67   12.88
  -2   0   3  379.11   13.08
  -2   0   3  364.79   12.92
   2   0  -3  366.69   12.64
   2   0  -3  362.77   12.80
   2   0  -3  363.74   12.62
   2   0  -3  315.21   12.83
   2   0  -3  369.95   13.05
  -1   0   3   24.97    1.21
  -1   0   3   25.05    1.09
  -1   0   3   28.68    1.46
  -1   0   3   27.36    1.36
   1   0  -3   28.13    1.32
   1   0  -3   29.31    1.24
   1   0  -3   27.98    1.42
   1   0  -3   23.94    1.08
   0   0   3  261.72    9.52
   0   0   3  257.97    9.34
   0   0   3  261.28    9.20
   0   0  -3  245.86    9.00
   0   0  -3  265.37    9.29
   0   0  -3  254.82    9.20
   0   0  -3  271.76    9.55
   0   0  -3  243.21    9.00
   1   0   3   38.73    1.90
   1   0   3   35.93    1.55
   1   0   3   32.70    1.66
   1   0   3   37.35    2.11
  -1   0  -3   34.63    1.83
  -1   0  -3   39.52    1.53
  -1   0  -3   33.58    1.41
  -1   0  -3   35.08    1.54
  -1   0  -3   35.16    1.68
  -1   0  -3   37.48    2.03
   2   0   3   54.59    2.92
   2   0   3   56.70    2.55
   2   0   3   55.24    2.42
  -2   0  -3   58.31    2.67
  -2   0  -3   56.81    3.01
  -2   0  -3   55.74    2.26
  -2   0  -3   59.37    2.48
  -2   0  -3   60.81    2.57
  -2   0  -3   56.15    2.23
   3   0   3  124.51    5.64
   3   0   3  132.34    5.32
   3   0   3  133.18    4.93
   3   0   3  134.20    5.25
  -3   0  -3  136.97    5.94
  -3   0  -3  134.47    4.98
  -3   0  -3  129.32    4.94
  -3   0  -3  134.04    5.23
  -3   0  -3  131.44    5.25
   4   0   3   -0.48    0.43
   4   0   3    0.21    0.83
   4   0   3    0.67    1.13
   4   0   3   -0.17    0.81
  -4   0  -3    1.97    1.66
  -4   0  -3    0.28    0.76
  -4   0  -3    0.59    0.57
  -4   0  -3    0.07    0.72
  -4   0  -3    0.22    0.65
   5   0   3   40.13    3.07
   5   0   3   38.24    3.41
   5   0   3   38.15    2.72
   5   0   3   34.18    1.88
  -5   0  -3   41.03    2.29
  -5   0  -3   42.62    2.59
  -5   0  -3   38.30    4.55
  -5   0  -3   38.77    2.55
   6   0   3    3.89    2.28
   6   0   3    2.17    1.54
   6   0   3    1.31    1.76
  -6   0  -3    5.20    1.48
  -6   0  -3    2.63    1.51
   7   0   3    7.03    2.13
   7   0   3    3.40    2.35
  -7   0  -3    6.16    2.49
  -7   0  -3    6.00    2.15
  -8   0   4    5.98    2.14
   8   0  -4    6.25    0.94
   8   0  -4   10.21    2.28
  -7   0   4   21.77    2.67
  -7   0   4   16.08    2.07
   7   0  -4   20.82    2.91
   7   0  -4   20.06    1.47
  -6   0   4   11.38    1.79
  -6   0   4   11.11    1.60
  -6   0   4    8.03    2.73
   6   0  -4    9.47    2.41
   6   0  -4   15.78    2.25
  -5   0   4   56.54    2.82
  -5   0   4   50.80    3.63
  -5   0   4   50.43    2.85
  -5   0   4   47.77    2.71
   5   0  -4   51.19    3.68
   5   0  -4   51.03    2.66
   5   0  -4   54.87    2.89
  -4   0   4   30.30    1.98
  -4   0   4   32.32    1.86
  -4   0   4   32.77    2.37
  -4   0   4   33.32    1.83
   4   0  -4   31.83    2.35
   4   0  -4   30.33    1.86
   4   0  -4   32.98    1.80
  -3   0   4  173.31    6.35
  -3   0   4  171.83    6.79
  -3   0   4  169.84    6.53
   3   0  -4  172.01    6.46
   3   0  -4  168.71    6.40
   3   0  -4  167.35    6.14
   3   0  -4  168.08    6.71
  -2   0   4  226.49    8.53
  -2   0   4  226.86    8.09
  -2   0   4  225.22    8.14
  -2   0   4  228.01    8.41
   2   0  -4  220.68    8.05
   2   0  -4  230.72    8.09
   2   0  -4  226.21    8.35
   2   0  -4  233.62    8.53
  -1   0   4   15.86    1.21
  -1   0   4   16.15    1.07
  -1   0   4   14.56    0.94
   1   0  -4   16.11    0.94
   1   0  -4   15.54    0.77
   1   0  -4   15.80    1.17
   1   0  -4   16.47    1.06
   1   0  -4   15.10    0.80
   0   0   4  168.29    6.77
   0   0   4  181.59    7.22
   0   0   4  179.22    6.69
   0   0   4  193.28    7.05
   0   0  -4  197.06    6.96
   0   0  -4  185.25    6.58
   0   0  -4  193.40    6.84
   1   0   4    2.12    0.44
   1   0   4    1.81    0.75
   1   0   4    1.31    0.49
   1   0   4    2.72    0.93
  -1   0  -4    2.75    0.59
  -1   0  -4    2.08    0.32
  -1   0  -4    1.22    0.70
  -1   0  -4    1.49    0.39
  -1   0  -4    1.95    0.92
   2   0   4  102.20    4.01
   2   0   4  102.03    4.58
   2   0   4   99.93    4.19
  -2   0  -4  101.31    3.80
  -2   0  -4  101.39    4.38
  -2   0  -4  104.82    4.19
  -2   0  -4  103.14    4.71
  -2   0  -4   99.68    3.85
  -2   0  -4  102.47    4.06
   3   0   4    8.24    1.23
   3   0   4    9.27    1.18
   3   0   4    8.86    1.54
  -3   0  -4    8.74    0.87
  -3   0  -4    7.43    1.15
  -3   0  -4    7.89    1.23
  -3   0  -4    8.95    1.42
  -3   0  -4    8.41    0.90
  -3   0  -4    7.99    1.72
   4   0   4   49.34    2.83
   4   0   4   47.24    2.77
   4   0   4   44.04    3.26
  -4   0  -4   49.29    2.34
  -4   0  -4   45.90    2.73
  -4   0  -4   39.09    4.01
  -4   0  -4   44.75    2.64
  -4   0  -4   46.28    2.26
  -4   0  -4   37.77    3.18
   5   0   4   14.02    2.44
   5   0   4   17.21    2.47
   5   0   4   16.29    2.43
  -5   0  -4   18.09    1.77
  -5   0  -4   18.25    2.01
  -5   0  -4   15.64    2.62
  -5   0  -4   12.67    3.55
   6   0   4    3.72    2.66
   6   0   4    2.62    1.87
   6   0   4    3.00    2.17
  -6   0  -4    5.23    1.76
  -6   0  -4    2.86    1.47
   7   0   4    7.30    2.75
   7   0   4   10.40    2.51
  -8   0   5   23.20    3.26
   8   0  -5   22.02    3.79
   8   0  -5   27.36    1.81
  -7   0   5    0.94    1.49
   7   0  -5    5.15    1.64
   7   0  -5    2.35    0.64
  -6   0   5   51.08    3.22
  -6   0   5   49.09    4.42
   6   0  -5   50.41    2.31
   6   0  -5   50.39    3.43
   6   0  -5   50.82    4.01
  -5   0   5   47.99    2.69
  -5   0   5   44.26    2.56
  -5   0   5   46.01    3.57
   5   0  -5   45.06    3.34
   5   0  -5   48.53    2.72
   5   0  -5   50.39    2.15
  -4   0   5   36.98    2.61
  -4   0   5   37.26    1.99
  -4   0   5   38.98    2.20
   4   0  -5   41.10    1.77
   4   0  -5   38.43    2.51
   4   0  -5   36.60    2.03
   4   0  -5   36.98    2.06
  -3   0   5  249.28    9.56
  -3   0   5  260.79    8.89
  -3   0   5  250.70    9.04
  -3   0   5  247.50    9.34
   3   0  -5  240.94    9.10
   3   0  -5  245.53    8.84
   3   0  -5  241.68    8.88
   3   0  -5  246.07    9.24
   3   0  -5  254.95    9.55
  -2   0   5    8.47    0.78
  -2   0   5    7.14    0.63
  -2   0   5    6.02    0.84
  -2   0   5    7.36    1.17
   2   0  -5    6.44    0.83
   2   0  -5    8.83    0.75
   2   0  -5    7.86    0.59
   2   0  -5    8.09    1.01
   2   0  -5    7.52    0.91
  -1   0   5  183.53    7.06
  -1   0   5  185.51    7.29
  -1   0   5  200.16    7.49
   1   0  -5  189.67    7.22
   1   0  -5  194.84    7.46
   1   0  -5  202.52    7.11
   1   0  -5  189.59    6.88
   0   0   5   47.03    2.03
   0   0   5   48.27    2.64
   0   0   5   51.15    2.48
   0   0   5   44.55    2.17
   0   0   5   48.79    2.68
   0   0  -5   47.35    1.91
   0   0  -5   49.02    2.36
   0   0  -5   46.99    2.20
   1   0   5   91.95    3.76
   1   0   5   83.44    3.86
   1   0   5   86.67    3.41
   1   0   5   87.17    4.14
  -1   0  -5   89.62    3.93
  -1   0  -5   88.23    3.44
  -1   0  -5   87.91    3.33
  -1   0  -5   93.11    3.76
  -1   0  -5   90.04    4.33
   2   0   5   70.98    3.27
   2   0   5   72.50    3.76
   2   0   5   69.95    3.03
  -2   0  -5   69.42    3.54
  -2   0  -5   75.42    2.92
  -2   0  -5   73.09    4.00
  -2   0  -5   70.25    3.06
  -2   0  -5   73.21    3.29
  -2   0  -5   69.99    2.81
   3   0   5   11.74    1.95
   3   0   5   14.70    1.47
   3   0   5   13.97    1.57
  -3   0  -5   13.59    1.14
  -3   0  -5   12.92    1.08
  -3   0  -5   10.11    1.33
  -3   0  -5   12.68    1.72
  -3   0  -5   11.07    1.56
  -3   0  -5    9.61    2.11
   4   0   5   49.04    3.09
   4   0   5   53.95    3.05
   4   0   5   48.94    3.76
  -4   0  -5   49.66    2.43
  -4   0  -5   45.69    4.73
  -4   0  -5   49.70    2.47
  -4   0  -5   41.28    3.60
   5   0   5   -0.84    1.62
   5   0   5   -1.10    2.27
   5   0   5    1.29    1.48
  -5   0  -5    2.18    1.13
  -5   0  -5    2.21    2.30
  -5   0  -5    2.56    1.14
   6   0   5   14.35    3.64
   6   0   5   13.40    2.34
   6   0   5   10.66    2.47
  -6   0  -5   12.51    1.98
  -6   0  -5   12.88    2.06
  -8   0   6    8.40    2.21
   8   0  -6    7.88    2.39
   8   0  -6    6.87    1.01
  -7   0   6   10.34    1.87
   7   0  -6   10.12    1.21
   7   0  -6   12.23    1.94
  -6   0   6   50.48    3.14
  -6   0   6   47.97    4.67
   6   0  -6   41.57    3.19
   6   0  -6   47.83    4.54
   6   0  -6   53.21    2.31
  -5   0   6    0.10    0.82
  -5   0   6   -0.16    0.84
  -5   0   6    0.05    1.67
   5   0  -6    0.51    0.87
   5   0  -6   -0.05    0.42
   5   0  -6    0.85    1.47
  -4   0   6  119.57    4.63
  -4   0   6  115.93    4.99
  -4   0   6  115.26    5.37
   4   0  -6  115.68    4.75
   4   0  -6  117.26    4.41
   4   0  -6  108.11    4.77
   4   0  -6  113.48    5.22
  -3   0   6    5.44    1.16
  -3   0   6    5.00    0.93
  -3   0   6    5.04    0.65
  -3   0   6    5.11    0.89
   3   0  -6    4.97    0.71
   3   0  -6    3.81    0.64
   3   0  -6    3.85    0.52
   3   0  -6    4.69    0.78
   3   0  -6    6.00    1.16
  -2   0   6  217.67    7.80
  -2   0   6  217.59    8.54
  -2   0   6  217.78    8.38
  -2   0   6  214.74    7.98
   2   0  -6  218.36    8.24
   2   0  -6  210.29    8.42
   2   0  -6  224.35    7.97
   2   0  -6  224.87    8.03
  -1   0   6   85.66    3.78
  -1   0   6   87.47    4.03
  -1   0   6   81.80    4.13
  -1   0   6   82.50    3.50
   1   0  -6   82.94    3.25
   1   0  -6   89.02    3.56
   1   0  -6   88.12    3.69
   0   0   6   21.04    2.02
   0   0   6   23.53    1.50
   0   0   6   21.80    1.99
   0   0   6   25.42    1.33
   0   0   6   24.28    1.86
   0   0  -6   26.79    1.22
   0   0  -6   27.32    1.61
   0   0  -6   24.74    1.74
   1   0   6  123.15    5.40
   1   0   6  123.11    4.80
   1   0   6  133.53    5.78
   1   0   6  128.98    5.22
  -1   0  -6  130.54    4.77
  -1   0  -6  132.12    5.23
  -1   0  -6  127.11    5.89
  -1   0  -6  131.01    5.40
  -1   0  -6  126.76    4.87
   2   0   6    1.39    1.19
   2   0   6    0.05    0.58
   2   0   6   -0.63    0.63
  -2   0  -6    0.69    1.55
  -2   0  -6    0.85    0.59
  -2   0  -6    0.15    0.51
  -2   0  -6   -1.38    0.79
  -2   0  -6    1.07    1.20
  -2   0  -6    0.58    0.46
   3   0   6   39.90    3.28
   3   0   6   39.47    2.40
   3   0   6   40.63    2.60
  -3   0  -6   38.42    2.26
  -3   0  -6   33.40    3.18
  -3   0  -6   32.26    3.73
  -3   0  -6   38.46    1.99
  -3   0  -6   37.85    1.98
   4   0   6    3.20    2.09
   4   0   6    6.95    1.47
   4   0   6    8.51    1.68
  -4   0  -6    5.25    2.86
  -4   0  -6    6.76    1.13
  -4   0  -6    6.41    1.11
  -4   0  -6    5.83    2.26
   5   0   6   12.94    2.35
   5   0   6   10.77    3.07
   5   0   6   19.80    2.90
  -5   0  -6   14.86    2.11
  -5   0  -6   12.85    1.58
   6   0   6    6.34    2.52
   6   0   6    8.61    2.43
  -6   0  -6    6.79    2.09
  -7   0   7   23.83    2.98
   7   0  -7   24.30    1.68
   7   0  -7   28.56    2.98
  -6   0   7    7.57    1.61
   6   0  -7   -0.89    2.37
   6   0  -7    7.76    1.56
   6   0  -7    4.40    0.76
  -5   0   7   52.02    3.44
  -5   0   7   59.14    3.04
  -5   0   7   65.59    4.48
   5   0  -7   59.89    4.06
   5   0  -7   62.24    3.15
   5   0  -7   64.05    2.65
  -4   0   7   42.40    2.13
  -4   0   7   44.87    3.13
  -4   0   7   38.63    1.90
  -4   0   7   40.57    2.52
   4   0  -7   41.28    1.92
   4   0  -7   42.80    2.80
   4   0  -7   38.55    2.21
  -3   0   7   31.06    2.05
  -3   0   7   31.72    1.63
  -3   0   7   30.11    1.62
  -3   0   7   31.46    2.56
   3   0  -7   29.55    1.59
   3   0  -7   32.38    1.67
   3   0  -7   31.78    1.54
   3   0  -7   27.38    2.17
   3   0  -7   30.89    1.90
  -2   0   7  122.25    5.14
  -2   0   7  116.44    4.70
  -2   0   7  122.02    5.35
  -2   0   7  116.16    4.36
   2   0  -7  124.92    4.76
   2   0  -7  115.24    4.91
   2   0  -7  117.22    5.19
  -1   0   7    0.88    1.06
  -1   0   7    0.47    1.05
  -1   0   7    1.67    0.78
  -1   0   7    2.12    0.64
   1   0  -7    0.78    0.67
   1   0  -7    1.48    0.43
   1   0  -7    2.97    0.70
   0   0   7  151.74    6.05
   0   0   7  156.44    6.50
   0   0   7  147.99    6.72
   0   0   7  147.37    6.63
   0   0  -7  154.50    6.06
   0   0  -7  154.18    5.66
   0   0  -7  157.03    6.22
   1   0   7   26.54    2.65
   1   0   7   28.24    1.44
   1   0   7   29.07    1.89
   1   0   7   26.70    2.27
  -1   0  -7   28.24    2.25
  -1   0  -7   26.18    1.56
  -1   0  -7   26.14    1.90
  -1   0  -7   27.28    2.96
  -1   0  -7   28.14    1.45
   2   0   7   23.43    1.55
   2   0   7   20.06    2.64
   2   0   7   20.72    1.97
  -2   0  -7   22.48    1.50
  -2   0  -7   16.32    2.48
  -2   0  -7   18.17    1.35
  -2   0  -7   20.46    3.43
  -2   0  -7   22.82    1.58
   3   0   7   16.32    2.76
   3   0   7   18.64    2.33
   3   0   7   18.47    1.91
  -3   0  -7   10.57    2.90
  -3   0  -7   20.73    1.54
  -3   0  -7   15.06    2.31
  -3   0  -7   15.17    1.43
  -3   0  -7   15.59    1.76
   4   0   7    6.18    1.72
   4   0   7    6.51    1.75
   4   0   7    8.96    2.69
  -4   0  -7    5.08    1.12
  -4   0  -7    7.53    1.34
  -4   0  -7    4.93    2.39
   5   0   7   10.05    3.56
   5   0   7   11.50    2.20
   5   0   7   15.66    2.59
  -5   0  -7   13.98    1.86
  -5   0  -7   10.08    1.74
  -7   0   8    6.63    1.90
   7   0  -8   10.00    1.27
   7   0  -8    9.38    1.94
  -6   0   8    7.46    1.64
   6   0  -8    8.15    1.72
   6   0  -8    7.45    0.92
   6   0  -8    2.95    3.71
  -5   0   8   55.54    3.38
  -5   0   8   49.76    4.68
  -5   0   8   54.81    2.89
   5   0  -8   55.18    3.93
   5   0  -8   59.65    2.58
   5   0  -8   56.48    2.99
  -4   0   8    3.33    0.70
  -4   0   8    2.37    1.10
  -4   0   8    3.59    0.82
  -4   0   8    2.11    1.72
   4   0  -8    3.34    0.82
   4   0  -8    2.29    1.30
   4   0  -8    4.04    0.64
   4   0  -8    2.96    0.58
  -3   0   8   71.38    3.10
  -3   0   8   74.02    4.16
  -3   0   8   73.68    2.94
  -3   0   8   69.89    3.72
   3   0  -8   71.97    3.11
   3   0  -8   71.23    3.10
   3   0  -8   67.88    3.74
   3   0  -8   71.15    2.96
  -2   0   8   18.25    2.26
  -2   0   8   17.20    1.39
  -2   0   8   15.63    1.81
   2   0  -8   16.66    1.09
   2   0  -8   16.28    2.01
   2   0  -8   14.86    1.52
   2   0  -8   19.34    1.44
  -1   0   8   48.68    3.41
  -1   0   8   45.27    3.34
  -1   0   8   46.03    2.88
  -1   0   8   49.95    2.52
   1   0  -8   50.86    2.58
   1   0  -8   51.03    2.18
   1   0  -8   45.88    2.61
   0   0   8   71.00    4.22
   0   0   8   71.43    3.82
   0   0   8   71.15    3.39
   0   0   8   69.85    3.92
   0   0  -8   67.26    3.48
   0   0  -8   65.46    3.37
   0   0  -8   70.42    2.89
   1   0   8   12.26    2.29
   1   0   8   12.87    1.85
   1   0   8   11.57    1.08
   1   0   8   12.19    1.86
   1   0   8   13.86    1.69
  -1   0  -8   13.05    2.04
  -1   0  -8   11.93    2.42
  -1   0  -8   13.37    1.08
   2   0   8   30.21    3.59
   2   0   8   34.99    2.03
   2   0   8   25.70    2.57
  -2   0  -8   36.84    2.06
  -2   0  -8   31.11    1.74
  -2   0  -8   25.01    2.95
  -2   0  -8   28.85    4.41
  -2   0  -8   29.66    1.98
   3   0   8    0.83    1.46
   3   0   8    1.30    1.19
   3   0   8   -0.31    2.25
  -3   0  -8    2.11    1.02
  -3   0  -8   -0.58    2.10
  -3   0  -8   -2.29    1.17
  -3   0  -8    0.11    0.76
   4   0   8   22.48    3.10
   4   0   8   31.28    3.11
   4   0   8   21.42    3.76
  -4   0  -8   24.93    2.51
  -4   0  -8   22.39    2.11
   5   0   8    0.99    2.10
   5   0   8    5.49    2.32
   5   0   8   -0.03    4.33
  -5   0  -8    5.45    1.73
  -7   0   9   -0.03    1.84
   7   0  -9    0.58    0.81
   7   0  -9   -1.32    1.71
  -6   0   9   35.11    3.13
   6   0  -9   35.70    2.02
   6   0  -9   39.75    3.08
  -5   0   9   12.17    2.81
  -5   0   9   14.02    2.04
  -5   0   9   16.51    1.68
   5   0  -9   13.36    1.22
   5   0  -9   11.85    1.60
   5   0  -9   13.30    1.25
   5   0  -9   13.67    2.24
  -4   0   9   43.62    2.25
  -4   0   9   42.77    2.22
  -4   0   9   35.17    3.84
  -4   0   9   41.31    3.08
   4   0  -9   42.51    2.33
   4   0  -9   35.70    3.16
   4   0  -9   44.62    2.10
   4   0  -9   43.30    2.11
  -3   0   9   36.16    3.51
  -3   0   9   38.28    2.14
  -3   0   9   41.01    2.96
   3   0  -9   38.37    3.02
   3   0  -9   36.62    2.11
   3   0  -9   36.08    1.87
  -2   0   9   17.71    2.61
  -2   0   9   18.34    1.61
  -2   0   9   15.27    2.30
  -2   0   9   15.03    2.17
   2   0  -9   18.73    1.67
   2   0  -9   16.42    1.15
  -1   0   9   73.67    3.41
  -1   0   9   63.67    4.42
  -1   0   9   66.10    3.80
  -1   0   9   66.64    4.42
   1   0  -9   66.71    3.45
   1   0  -9   61.10    3.45
   1   0  -9   72.21    2.91
   0   0   9   -1.09    1.71
   0   0   9   -0.22    1.28
   0   0   9   -0.08    2.10
   0   0   9    1.85    0.97
   0   0  -9   -0.31    0.51
   0   0  -9   -0.65    1.23
   1   0   9   41.02    4.71
   1   0   9   42.28    3.99
   1   0   9   44.52    3.36
   1   0   9   40.05    2.90
   1   0   9   51.99    3.14
   1   0   9   46.40    2.15
  -1   0  -9   46.78    2.19
  -1   0  -9   41.09    3.25
   2   0   9    5.89    1.21
   2   0   9    7.79    2.65
   2   0   9    7.23    1.69
  -2   0  -9    6.80    0.92
  -2   0  -9    6.75    1.26
  -2   0  -9    6.11    1.24
  -2   0  -9    6.62    2.06
   3   0   9   10.48    2.03
   3   0   9   11.78    1.74
   3   0   9    9.93    3.50
  -3   0  -9   12.52    1.56
  -3   0  -9   11.35    1.64
  -3   0  -9    7.12    1.62
   4   0   9   12.98    2.38
   4   0   9   11.61    2.57
   4   0   9   12.71    4.53
  -4   0  -9   10.67    2.05
  -4   0  -9   13.07    1.52
  -7   0  10   14.37    2.70
   7   0 -10    8.91    2.22
   7   0 -10   15.34    1.89
  -6   0  10   19.86    3.17
   6   0 -10   24.19    1.62
   6   0 -10   20.73    2.73
  -5   0  10    5.31    1.05
  -5   0  10    7.61    1.81
   5   0 -10    4.64    1.30
   5   0 -10    3.73    0.76
  -4   0  10   45.49    2.36
  -4   0  10   44.86    3.52
  -4   0  10   43.92    4.77
  -4   0  10   45.65    2.60
   4   0 -10   58.25    3.84
   4   0 -10   49.47    2.37
   4   0 -10   45.15    2.45
   4   0 -10   50.31    2.64
  -3   0  10    0.13    2.24
  -3   0  10    1.28    0.91
  -3   0  10    1.10    1.40
   3   0 -10   -0.44    0.93
   3   0 -10    0.35    0.53
   3   0 -10    0.71    1.67
  -2   0  10   53.45    4.42
  -2   0  10   54.45    4.50
  -2   0  10   63.60    3.18
  -2   0  10   56.56    3.92
   2   0 -10   60.09    2.64
   2   0 -10   52.84    3.12
  -1   0  10   22.57    2.80
  -1   0  10   17.27    3.31
  -1   0  10   19.51    3.08
  -1   0  10   21.21    2.17
   1   0 -10   18.62    1.32
   0   0  10   16.38    2.23
   0   0  10   17.03    2.96
   0   0  10   15.23    2.42
   0   0  10   15.86    3.13
   0   0 -10   15.14    1.32
   1   0  10   12.09    3.19
   1   0  10   15.33    2.27
   1   0  10    9.15    3.08
   1   0  10   13.63    1.39
   1   0  10   12.02    2.37
  -1   0 -10   16.28    1.37
   2   0  10    5.48    1.82
   2   0  10    3.77    1.20
   2   0  10    5.55    3.30
  -2   0 -10    3.17    0.86
  -2   0 -10    5.28    1.45
   3   0  10   24.47    3.48
   3   0  10   25.89    4.91
   3   0  10   23.83    2.77
  -3   0 -10   24.78    2.13
  -3   0 -10   25.10    2.90
   4   0  10   -2.65    4.74
   4   0  10   -1.76    2.54
   4   0  10    1.79    2.43
  -4   0 -10   -0.26    1.54
  -6   0  11    4.04    2.22
   6   0 -11   -2.37    2.37
   6   0 -11   -0.16    0.82
  -5   0  11   31.37    3.48
  -5   0  11   29.68    2.34
   5   0 -11   33.34    2.01
   5   0 -11   31.87    2.61
  -4   0  11   20.83    3.01
  -4   0  11   15.89    2.05
   4   0 -11   17.88    1.94
   4   0 -11   14.91    1.38
  -3   0  11   22.40    3.24
  -3   0  11   33.37    2.50
   3   0 -11   30.80    1.80
  -2   0  11   25.83    2.59
  -2   0  11   20.99    3.74
  -2   0  11   27.41    4.45
  -2   0  11   22.31    3.21
   2   0 -11   25.74    1.66
  -1   0  11    1.29    2.79
  -1   0  11   -1.34    2.09
  -1   0  11    2.96    2.97
  -1   0  11    2.81    1.29
   1   0 -11    1.46    0.66
   0   0  11   39.54    3.07
   0   0  11   39.12    5.34
   0   0  11   39.56    4.12
   0   0 -11   35.43    2.06
   1   0  11    1.43    3.63
   1   0  11   -0.55    2.55
   1   0  11    1.83    1.45
  -1   0 -11    0.36    0.77
   2   0  11   12.81    4.57
   2   0  11   15.89    2.57
  -2   0 -11   12.62    1.42
  -2   0 -11   16.90    2.73
   3   0  11    2.83    4.75
   3   0  11    2.96    2.12
  -3   0 -11    3.63    1.31
  -3   0 -11    5.73    2.05
  -6   0  12    4.19    2.70
  -5   0  12   16.17    2.74
   5   0 -12   13.88    1.75
  -4   0  12    7.13    2.27
  -4   0  12    6.01    1.56
   4   0 -12    3.95    0.89
  -3   0  12   50.24    3.39
  -3   0  12   45.96    4.28
  -3   0  12   51.99    6.28
   3   0 -12   46.34    2.52
  -2   0  12   -1.72    3.47
  -2   0  12   -2.04    2.02
  -2   0  12    0.76    1.36
   2   0 -12    1.73    0.71
  -1   0  12   23.24    2.78
  -1   0  12   14.37    2.89
  -1   0  12   22.94    4.17
   1   0 -12   19.27    1.66
   0   0  12   12.59    4.24
   0   0  12   10.39    2.89
   0   0  12   10.09    2.10
   0   0 -12    7.78    1.20
   1   0  12   12.33    4.58
   1   0  12   12.15    3.16
   1   0  12   18.70    3.11
  -1   0 -12   10.86    1.27
   2   0  12    5.34    2.17
   2   0  12    5.03    4.89
  -2   0 -12    6.95    2.09
  -2   0 -12    8.05    1.38
  -5   0  13    5.35    2.81
  -4   0  13   20.61    3.32
  -4   0  13   19.96    2.99
  -4   0  13   26.64    5.60
   4   0 -13   20.38    2.00
  -3   0  13   12.63    2.85
  -3   0  13    6.91    1.76
  -3   0  13    9.86    4.38
   3   0 -13    6.54    1.19
  -2   0  13   11.99    2.02
  -2   0  13    6.80    3.03
  -2   0  13    5.43    4.16
   2   0 -13    8.97    1.19
  -1   0  13    7.15    4.48
  -1   0  13   12.42    3.18
  -1   0  13   14.60    2.35
   1   0 -13   13.57    1.69
   0   0  13   -4.74    3.07
   0   0  13    0.96    1.83
   0   0  13   -2.00    4.48
   0   0 -13    0.53    0.97
   1   0  13   21.60    5.74
   1   0  13   18.71    2.87
  -1   0 -13   17.75    2.46
  -1   0 -13   11.91    1.65
  -3   0  14    2.20    5.16
  -3   0  14    7.45    3.36
  -3   0  14    5.85    2.10
   3   0 -14    4.44    1.31
  -2   0  14   11.44    5.20
  -2   0  14   15.75    3.92
   2   0 -14   11.28    1.75
  -1   0  14    3.87    5.49
  -1   0  14    0.70    2.20
  -1   0  14    4.85    3.49
   1   0 -14    1.83    1.48
   1   1 -14    2.36    1.39
  -1  -1  14    4.57    2.35
  -1  -1  14    2.46    5.05
  -1  -1  14    5.56    3.54
   2   1 -14   11.70    1.61
  -2  -1  14   15.99    4.99
  -2  -1  14    6.18    3.74
  -2  -1  14   15.53    2.45
   3   1 -14   11.34    1.59
  -3  -1  14   11.29    5.34
  -3  -1  14    8.84    3.62
  -3  -1  14   11.81    2.39
  -1   1 -13    9.04    2.14
  -1   1 -13   10.00    1.38
   1  -1  13    5.07    5.17
   1  -1  13    5.57    2.35
   1  -1  13    8.04    3.45
   0   1 -13    7.63    1.26
   0  -1  13   10.85    4.42
   0  -1  13   10.43    2.18
   0  -1  13    9.90    3.48
   1   1 -13    6.04    1.16
  -1  -1  13    3.22    2.97
  -1  -1  13    9.99    4.33
  -1  -1  13    3.20    1.89
   2   1 -13   19.84    1.86
  -2  -1  13   24.56    4.61
  -2  -1  13   26.27    3.10
  -2  -1  13   19.07    3.61
   3   1 -13    0.17    0.82
  -3  -1  13    2.21    1.68
  -3  -1  13    2.09    2.84
  -3  -1  13    2.90    4.01
   4   1 -13   21.03    2.14
  -4  -1  13   22.11    3.32
  -4  -1  13   30.34    4.80
   5   1 -13    5.35    1.24
  -5  -1  13    4.32    3.09
  -2   1 -12    0.19    1.12
  -2   1 -12    2.13    1.87
   2  -1  12   -1.47    2.23
   2  -1  12    2.25    4.77
  -1   1 -12   24.04    1.81
   1  -1  12   15.34    3.35
   1  -1  12   21.58    3.04
   1  -1  12   18.23    4.72
   0   1 -12    1.39    0.74
   0  -1  12    0.92    2.62
   0  -1  12    0.71    1.55
   0  -1  12   -0.20    3.39
   1   1 -12   23.33    1.64
  -1  -1  12   25.38    4.29
  -1  -1  12   22.45    2.90
  -1  -1  12   20.87    3.20
   2   1 -12   13.53    1.39
  -2  -1  12   10.19    2.54
  -2  -1  12   12.61    1.92
  -2  -1  12    8.39    3.50
   3   1 -12   16.35    1.48
  -3  -1  12   15.43    2.52
  -3  -1  12   14.68    2.79
  -3  -1  12   22.19    4.20
   4   1 -12   30.99    1.98
  -4  -1  12   29.65    2.74
  -4  -1  12   33.85    4.16
   5   1 -12    2.04    0.94
  -5  -1  12    2.10    2.29
  -3   1 -11    0.80    1.99
  -3   1 -11   -1.55    1.14
   3  -1  11    1.43    2.26
   3  -1  11    6.50    4.80
  -2   1 -11   20.67    1.81
  -2   1 -11   17.12    2.54
   2  -1  11   19.93    2.68
   2  -1  11   13.86    4.04
  -1   1 -11    6.05    0.95
   1  -1  11    6.31    1.56
   1  -1  11    6.13    3.51
   1  -1  11    5.85    2.61
   0   1 -11   11.52    1.31
   0  -1  11   10.86    1.90
   0  -1  11    7.29    3.36
   0  -1  11   10.41    2.57
   1   1 -11   26.12    1.76
  -1  -1  11   27.95    3.75
  -1  -1  11   34.37    4.97
  -1  -1  11   32.76    2.79
  -1  -1  11   29.14    4.21
   2   1 -11    0.87    0.71
  -2  -1  11    0.57    1.85
  -2  -1  11    1.68    2.83
  -2  -1  11    1.66    1.10
   3   1 -11   39.62    2.78
   3   1 -11   43.28    2.24
  -3  -1  11   45.88    3.87
  -3  -1  11   44.70    2.76
   4   1 -11    0.25    0.60
  -4  -1  11    1.43    1.11
  -4  -1  11    0.25    1.71
   5   1 -11   34.31    2.71
   5   1 -11   31.53    1.98
  -5  -1  11   27.81    3.61
   6   1 -11   13.17    1.51
  -6  -1  11   16.52    2.55
  -4   1 -10    6.89    2.24
  -4   1 -10    3.48    1.54
   4  -1  10    4.23    2.47
   4  -1  10   -1.45    4.75
  -3   1 -10    6.53    1.15
  -3   1 -10    8.42    1.86
   3  -1  10    7.05    2.02
   3  -1  10   10.75    4.13
   3  -1  10    7.39    1.62
  -2   1 -10   27.59    1.73
  -2   1 -10   26.08    2.49
   2  -1  10   23.34    2.76
   2  -1  10   24.05    1.94
   2  -1  10   19.37    3.92
  -1   1 -10    1.00    0.63
   1  -1  10    0.46    2.03
   1  -1  10    2.77    3.12
   1  -1  10    2.69    1.27
   1  -1  10   -0.58    2.65
   0   1 -10   38.40    1.93
   0  -1  10   37.15    3.97
   0  -1  10   31.34    4.21
   0  -1  10   30.62    3.36
   0  -1  10   33.05    2.80
   1   1 -10    3.05    0.61
  -1  -1  10   -0.45    1.69
  -1  -1  10    1.86    2.13
  -1  -1  10    2.46    1.03
  -1  -1  10    2.11    2.05
   2   1 -10   42.90    2.09
   2   1 -10   45.77    2.67
  -2  -1  10   44.00    2.61
  -2  -1  10   45.84    4.29
  -2  -1  10   38.00    3.59
  -2  -1  10   38.28    3.70
   3   1 -10   30.37    1.76
   3   1 -10   30.57    2.04
  -3  -1  10   31.77    3.06
  -3  -1  10   32.90    2.14
  -3  -1  10   27.06    3.57
   4   1 -10   16.77    1.62
   4   1 -10   18.30    1.52
   4   1 -10   18.01    1.31
  -4  -1  10   16.20    1.71
  -4  -1  10   17.51    2.75
  -4  -1  10   13.30    2.37
   5   1 -10   26.25    2.15
   5   1 -10   25.49    1.69
  -5  -1  10   21.33    3.12
   6   1 -10   -2.60    1.44
   6   1 -10   -0.21    0.69
  -6  -1  10    0.69    1.98
   7   1 -10   38.83    3.78
  -7  -1  10   30.93    4.35
   5  -1   9   -0.63    5.10
   5  -1   9    5.26    2.86
  -4   1  -9    1.40    1.26
  -4   1  -9    1.48    1.81
   4  -1   9    5.54    1.99
   4  -1   9   -0.13    3.86
   4  -1   9    1.00    1.95
  -3   1  -9   22.94    1.69
  -3   1  -9   22.32    2.31
  -3   1  -9   15.34    2.14
   3  -1   9   20.69    3.98
   3  -1   9   19.08    2.71
   3  -1   9   24.19    2.27
  -2   1  -9   -0.12    0.92
  -2   1  -9    0.29    1.04
  -2   1  -9    0.73    0.66
   2  -1   9    0.15    0.80
   2  -1   9    0.07    1.27
   2  -1   9    2.28    2.41
  -1   1  -9   43.86    2.08
  -1   1  -9   34.78    3.35
   1  -1   9   38.42    3.35
   1  -1   9   49.76    4.19
   1  -1   9   49.64    3.15
   1  -1   9   45.43    3.94
   0   1  -9   31.21    2.82
   0   1  -9   37.19    1.77
   0  -1   9   31.29    3.42
   0  -1   9   32.32    2.97
   0  -1   9   37.43    2.44
   0  -1   9   29.17    3.40
   1   1  -9   48.47    2.18
   1   1  -9   45.36    2.71
   1   1  -9   42.33    2.99
  -1  -1   9   50.03    3.71
  -1  -1   9   49.10    2.66
  -1  -1   9   46.08    3.25
  -1  -1   9   50.65    3.63
   2   1  -9   70.17    3.28
   2   1  -9   67.66    2.93
  -2  -1   9   72.76    3.99
  -2  -1   9   71.11    3.28
  -2  -1   9   64.19    4.02
   3   1  -9    2.35    0.74
   3   1  -9   -0.47    1.34
   3   1  -9    2.03    0.57
  -3  -1   9    0.51    1.67
  -3  -1   9    0.82    1.36
  -3  -1   9    2.75    0.77
   4   1  -9   61.82    3.63
   4   1  -9   55.00    2.76
   4   1  -9   60.80    2.62
   4   1  -9   59.40    2.65
  -4  -1   9   56.79    4.08
  -4  -1   9   56.98    2.72
  -4  -1   9   56.93    2.70
  -4  -1   9   64.38    3.82
   5   1  -9    2.40    0.68
   5   1  -9    5.92    1.89
   5   1  -9    3.39    1.11
  -5  -1   9    1.97    1.45
  -5  -1   9    2.84    1.00
   6   1  -9   30.28    2.90
   6   1  -9   32.74    1.87
  -6  -1   9   30.63    3.27
   7   1  -9   23.80    1.96
   7   1  -9   19.16    3.25
  -7  -1   9   18.75    2.82
  -5   1  -8   -2.43    1.78
  -5   1  -8    1.12    1.58
   5  -1   8    1.24    4.15
   5  -1   8    2.98    2.02
   5  -1   8    0.12    2.15
  -4   1  -8   17.63    1.87
  -4   1  -8   14.51    2.30
   4  -1   8   18.39    2.66
   4  -1   8    9.53    3.56
   4  -1   8   12.47    2.33
  -3   1  -8    7.16    0.91
  -3   1  -8    7.54    2.42
  -3   1  -8    5.54    1.16
  -3   1  -8    9.95    1.39
   3  -1   8    8.05    1.32
   3  -1   8   10.03    1.87
   3  -1   8    8.50    2.63
  -2   1  -8   12.40    2.17
  -2   1  -8   13.43    1.38
  -2   1  -8   12.14    1.56
  -2   1  -8   11.47    1.15
  -2   1  -8    5.19    2.47
   2  -1   8   14.51    1.96
   2  -1   8   13.04    1.32
   2  -1   8   11.73    2.36
  -1   1  -8   39.44    1.86
  -1   1  -8   40.02    1.86
  -1   1  -8   35.65    2.82
   1  -1   8   42.51    2.54
   1  -1   8   32.08    3.18
   1  -1   8   35.83    2.85
   0   1  -8    4.52    0.63
   0   1  -8    5.32    1.04
   0   1  -8    4.40    1.20
   0  -1   8    7.32    1.68
   0  -1   8    7.54    1.61
   0  -1   8    6.09    1.67
   0  -1   8    4.75    1.03
   1   1  -8  171.75    6.33
   1   1  -8  176.61    6.73
   1   1  -8  166.82    6.96
  -1  -1   8  176.86    6.72
  -1  -1   8  163.17    7.26
  -1  -1   8  174.45    7.26
  -1  -1   8  166.31    7.45
   2   1  -8    9.13    0.84
   2   1  -8   10.86    1.19
   2   1  -8    7.71    1.19
   2   1  -8    6.74    1.38
  -2  -1   8    8.11    1.39
  -2  -1   8   10.02    1.14
  -2  -1   8    6.66    1.37
   3   1  -8   52.21    2.29
   3   1  -8   54.34    2.41
   3   1  -8   46.96    2.30
   3   1  -8   50.42    3.01
  -3  -1   8   55.31    3.17
  -3  -1   8   50.56    3.31
  -3  -1   8   50.02    2.38
  -3  -1   8   52.30    2.19
   4   1  -8   26.13    1.49
   4   1  -8   25.53    1.73
   4   1  -8   29.12    2.44
  -4  -1   8   25.98    2.91
  -4  -1   8   27.24    1.69
  -4  -1   8   27.69    2.54
   5   1  -8   16.16    1.24
   5   1  -8   14.50    1.76
   5   1  -8   18.87    2.57
  -5  -1   8   22.16    2.36
  -5  -1   8   20.37    3.31
  -5  -1   8   15.52    1.75
   6   1  -8   30.43    1.77
   6   1  -8   30.00    2.82
  -6  -1   8   27.68    2.91
   7   1  -8    3.70    1.80
   7   1  -8    1.59    0.79
  -7  -1   8    4.00    1.98
   6  -1   7    2.66    2.36
   6  -1   7    4.10    5.09
   6  -1   7    8.08    2.75
  -5   1  -7    9.67    1.62
  -5   1  -7    9.96    1.90
   5  -1   7    8.49    2.34
   5  -1   7    7.34    3.79
   5  -1   7   10.82    2.03
  -4   1  -7   23.23    2.09
  -4   1  -7   21.17    1.87
   4  -1   7   16.81    2.80
   4  -1   7   14.56    3.15
   4  -1   7   23.28    2.41
  -3   1  -7    2.28    0.87
  -3   1  -7    2.51    2.54
  -3   1  -7    0.59    0.87
  -3   1  -7    1.59    1.82
  -3   1  -7    0.84    0.59
   3  -1   7   -0.30    1.81
   3  -1   7   -0.39    1.27
   3  -1   7    0.63    0.91
  -2   1  -7   46.11    3.83
  -2   1  -7   41.83    3.15
  -2   1  -7   45.73    2.26
  -2   1  -7   53.84    2.43
  -2   1  -7   45.35    2.11
   2  -1   7   48.56    2.27
   2  -1   7   48.08    2.80
   2  -1   7   47.11    3.44
  -1   1  -7    1.59    1.55
  -1   1  -7    3.92    0.55
  -1   1  -7    1.55    1.17
  -1   1  -7    3.34    0.91
  -1   1  -7    3.34    0.56
   1  -1   7    2.00    1.34
   1  -1   7    3.95    1.16
   1  -1   7    3.37    0.67
   1  -1   7    3.45    0.85
   0   1  -7  116.59    5.12
   0   1  -7  121.29    4.89
   0   1  -7  121.74    4.45
   0  -1   7  117.01    5.46
   0  -1   7  119.88    4.86
   0  -1   7  118.76    5.37
   0  -1   7  111.31    5.30
   1   1  -7   69.99    3.37
   1   1  -7   72.08    2.86
   1   1  -7   76.97    3.19
  -1  -1   7   69.99    3.56
  -1  -1   7   76.06    3.19
  -1  -1   7   67.54    3.65
  -1  -1   7   65.65    3.79
   2   1  -7   44.01    2.48
   2   1  -7   39.55    2.28
   2   1  -7   40.01    2.03
   2   1  -7   42.41    1.86
  -2  -1   7   43.28    2.62
  -2  -1   7   40.13    2.01
  -2  -1   7   37.58    2.42
   3   1  -7   63.65    2.95
   3   1  -7   76.33    3.01
   3   1  -7   76.39    3.65
   3   1  -7   75.02    3.44
   3   1  -7   74.85    3.07
  -3  -1   7   76.24    3.68
  -3  -1   7   78.09    3.83
  -3  -1   7   79.76    3.04
  -3  -1   7   65.21    2.95
   4   1  -7   -0.28    0.41
   4   1  -7    0.57    0.65
   4   1  -7    0.88    1.12
  -4  -1   7    1.67    1.37
  -4  -1   7    0.44    0.67
  -4  -1   7    0.46    0.92
   5   1  -7   93.53    3.79
   5   1  -7   91.36    4.20
  -5  -1   7   94.46    4.68
  -5  -1   7   98.03    5.31
  -5  -1   7   90.59    4.14
   6   1  -7    9.96    3.08
   6   1  -7    9.16    1.11
   6   1  -7   10.06    1.76
  -6  -1   7    7.63    1.61
   7   1  -7   18.81    1.54
   7   1  -7   24.04    3.04
  -7  -1   7   19.87    3.00
  -6   1  -6    4.99    1.81
   6  -1   6    0.76    4.24
   6  -1   6    2.80    2.10
   6  -1   6    4.64    2.62
  -5   1  -6   26.17    2.37
  -5   1  -6   23.19    2.40
   5  -1   6   17.16    3.46
   5  -1   6   26.09    3.20
   5  -1   6   25.11    2.95
  -4   1  -6    1.78    0.98
  -4   1  -6    2.67    2.11
  -4   1  -6    0.77    0.87
  -4   1  -6    0.34    1.09
   4  -1   6    1.50    1.45
   4  -1   6    1.19    1.16
   4  -1   6    1.02    1.95
  -3   1  -6   26.99    1.63
  -3   1  -6   23.61    2.88
  -3   1  -6   24.41    1.73
  -3   1  -6   21.29    3.24
  -3   1  -6   26.36    1.47
   3  -1   6   26.03    2.19
   3  -1   6   27.99    1.88
   3  -1   6   23.55    2.83
  -2   1  -6   31.52    2.54
  -2   1  -6   32.99    1.56
  -2   1  -6   34.97    1.80
  -2   1  -6   32.53    1.77
  -2   1  -6   33.94    2.11
  -2   1  -6   32.03    3.04
   2  -1   6   33.98    2.17
   2  -1   6   34.22    2.62
   2  -1   6   34.70    1.77
  -1   1  -6   64.70    2.68
  -1   1  -6   75.98    3.82
  -1   1  -6   70.88    2.68
  -1   1  -6   71.88    3.48
  -1   1  -6   68.39    3.12
   1  -1   6   67.17    3.43
   1  -1   6   58.72    2.74
   1  -1   6   68.56    3.15
   1  -1   6   67.72    3.62
   0   1  -6   78.89    3.30
   0   1  -6   77.32    3.55
   0   1  -6   77.70    2.92
   0  -1   6   71.68    3.64
   0  -1   6   73.27    3.66
   0  -1   6   74.31    3.25
   0  -1   6   76.34    3.78
   1   1  -6   23.80    1.15
   1   1  -6   23.73    1.41
   1   1  -6   24.51    1.64
  -1  -1   6   24.56    1.73
  -1  -1   6   24.51    1.84
  -1  -1   6   21.63    1.38
   2   1  -6  119.34    4.97
   2   1  -6  116.71    4.53
   2   1  -6  116.30    4.54
   2   1  -6  123.79    5.06
   2   1  -6  131.40    4.71
  -2  -1   6  123.24    4.44
  -2  -1   6  122.39    5.14
  -2  -1   6  119.44    4.65
  -2  -1   6  127.45    5.18
   3   1  -6    4.34    0.99
   3   1  -6    5.03    0.57
   3   1  -6    4.48    0.82
   3   1  -6    3.46    0.53
  -3  -1   6    4.39    0.91
  -3  -1   6    4.94    0.80
  -3  -1   6    5.82    1.11
   4   1  -6   77.33    3.39
   4   1  -6   74.35    3.83
   4   1  -6   75.79    3.10
   4   1  -6   70.48    3.44
  -4  -1   6   77.70    3.72
  -4  -1   6   78.77    3.32
  -4  -1   6   79.11    4.04
   5   1  -6   81.37    3.43
   5   1  -6   91.95    4.03
  -5  -1   6   87.90    4.07
  -5  -1   6   83.22    3.86
  -5  -1   6   78.42    4.73
  -5  -1   6   84.32    4.20
   6   1  -6    6.67    1.57
   6   1  -6    3.07    1.84
   6   1  -6    3.80    0.70
  -6  -1   6    6.52    1.38
  -6  -1   6    5.38    1.50
   7   1  -6   27.49    1.74
   7   1  -6   21.94    3.26
  -7  -1   6   32.26    3.22
  -6   1  -5    9.51    2.06
   6  -1   5   14.85    2.42
   6  -1   5   10.92    2.53
   6  -1   5   14.80    3.54
  -5   1  -5    9.00    1.33
  -5   1  -5    5.95    2.67
  -5   1  -5    7.96    1.34
   5  -1   5    8.45    1.89
   5  -1   5    9.27    2.56
   5  -1   5    9.81    1.80
  -4   1  -5    8.12    0.98
  -4   1  -5    6.19    1.94
  -4   1  -5    6.08    2.46
  -4   1  -5    9.66    1.32
  -4   1  -5    4.96    1.15
   4  -1   5    8.15    1.36
   4  -1   5    8.63    1.94
   4  -1   5    7.29    1.49
  -3   1  -5   41.32    2.17
  -3   1  -5   42.10    2.01
  -3   1  -5   38.97    3.27
  -3   1  -5   40.07    2.40
  -3   1  -5   42.87    1.86
  -3   1  -5   36.71    2.89
   3  -1   5   40.81    2.93
   3  -1   5   42.88    2.27
   3  -1   5   40.86    2.47
  -2   1  -5    0.90    1.20
  -2   1  -5    0.57    0.41
  -2   1  -5   -0.13    0.63
  -2   1  -5   -0.16    0.44
  -2   1  -5    0.30    0.34
  -2   1  -5    0.59    1.01
   2  -1   5    0.67    0.67
   2  -1   5   -0.30    0.45
   2  -1   5    2.45    0.97
  -1   1  -5  282.59   10.45
  -1   1  -5  288.86   10.20
  -1   1  -5  282.63   10.60
  -1   1  -5  271.82    9.80
  -1   1  -5  282.95    9.75
   1  -1   5  268.86   10.17
   1  -1   5  268.64   10.54
   1  -1   5  270.06    9.81
   1  -1   5  268.78   10.43
   0   1  -5   16.80    1.44
   0   1  -5   17.69    0.84
   0   1  -5   18.03    1.19
   0  -1   5   15.07    1.53
   0  -1   5   14.11    1.41
   0  -1   5   16.44    1.11
   0  -1   5   16.17    1.44
   1   1  -5   51.80    2.14
   1   1  -5   52.59    2.32
   1   1  -5   58.69    2.60
   1   1  -5   56.84    2.62
  -1  -1   5   50.87    2.32
  -1  -1   5   57.02    2.68
  -1  -1   5   56.15    2.64
   2   1  -5  118.10    4.22
   2   1  -5  108.11    4.22
   2   1  -5  112.99    4.61
   2   1  -5  109.40    4.16
   2   1  -5  117.55    4.55
  -2  -1   5  110.67    4.61
  -2  -1   5  113.11    4.67
  -2  -1   5  109.04    4.13
   3   1  -5   42.85    2.38
   3   1  -5   42.44    1.87
   3   1  -5   42.51    2.01
  -3  -1   5   44.87    2.33
  -3  -1   5   45.44    2.50
  -3  -1   5   43.52    2.00
  -3  -1   5   43.43    2.32
   4   1  -5  140.03    5.76
   4   1  -5  147.17    5.78
  -4  -1   5  144.77    5.93
  -4  -1   5  145.33    5.97
  -4  -1   5  144.79    6.24
  -4  -1   5  150.39    5.70
   5   1  -5   -0.25    0.81
   5   1  -5   -0.68    1.22
  -5  -1   5    0.26    0.84
  -5  -1   5    0.93    0.88
  -5  -1   5   -1.06    1.48
  -5  -1   5    0.49    0.98
   6   1  -5   37.71    3.05
   6   1  -5   35.90    3.50
  -6  -1   5   37.26    2.80
  -6  -1   5   39.73    2.92
  -6  -1   5   37.57    4.51
   7   1  -5   14.78    2.19
  -7  -1   5   10.62    2.05
  -7  -1   5   10.95    1.96
  -7   1  -4    3.13    2.19
   7  -1   4    2.20    2.62
   7  -1   4    5.77    2.36
  -6   1  -4   19.87    2.48
  -6   1  -4   14.43    1.94
   6  -1   4   17.14    2.41
   6  -1   4   17.04    3.21
   6  -1   4   13.97    2.48
  -5   1  -4    1.99    1.05
  -5   1  -4    2.07    2.02
  -5   1  -4    3.98    1.10
  -5   1  -4    5.97    2.88
   5  -1   4    1.82    0.79
   5  -1   4    2.68    1.97
   5  -1   4    1.37    1.23
   5  -1   4    4.69    1.60
  -4   1  -4   44.75    2.18
  -4   1  -4   36.66    3.66
  -4   1  -4   39.36    2.39
  -4   1  -4   36.64    3.09
  -4   1  -4   40.35    2.58
  -4   1  -4   41.27    2.05
   4  -1   4   44.08    2.66
   4  -1   4   42.95    2.55
   4  -1   4   40.18    3.15
  -3   1  -4   13.66    1.23
  -3   1  -4   12.09    0.99
  -3   1  -4   13.87    1.39
  -3   1  -4   10.87    1.80
  -3   1  -4   13.58    0.93
  -3   1  -4   11.29    1.79
   3  -1   4   13.01    1.80
   3  -1   4   13.41    1.30
   3  -1   4   12.98    1.41
  -2   1  -4  125.59    4.86
  -2   1  -4  127.94    5.06
  -2   1  -4  127.14    5.48
  -2   1  -4  126.67    4.61
  -2   1  -4  128.73    4.81
  -2   1  -4  129.17    5.31
   2  -1   4  130.36    5.42
   2  -1   4  126.29    4.89
   2  -1   4  125.06    5.12
  -1   1  -4  216.58    7.59
  -1   1  -4  224.90    7.89
  -1   1  -4  193.10    8.08
  -1   1  -4  215.08    8.18
  -1   1  -4  214.45    7.50
   1  -1   4  217.85    7.90
   1  -1   4  211.41    7.60
   1  -1   4  211.57    8.10
   1  -1   4  207.71    8.14
   0   1  -4   19.73    0.89
   0   1  -4   19.45    1.16
   0   1  -4   20.78    1.40
   0  -1   4   22.62    1.51
   0  -1   4   17.19    1.10
   0  -1   4   20.67    1.54
   1   1  -4  162.85    6.07
   1   1  -4  164.95    6.31
   1   1  -4  182.73    6.37
   1   1  -4  157.76    5.97
  -1  -1   4  170.99    6.11
  -1  -1   4  166.76    6.39
   2   1  -4   12.98    0.91
   2   1  -4   12.18    0.97
   2   1  -4   12.63    0.68
   2   1  -4   11.16    0.69
   2   1  -4   11.62    1.06
  -2  -1   4   11.72    1.10
  -2  -1   4   11.63    0.64
  -2  -1   4   11.44    0.73
  -2  -1   4   11.73    1.09
  -2  -1   4    9.25    0.92
   3   1  -4  225.99    8.58
   3   1  -4  220.84    8.38
   3   1  -4  214.55    8.31
  -3  -1   4  231.19    8.28
  -3  -1   4  232.96    8.49
  -3  -1   4  228.21    8.67
  -3  -1   4  226.39    8.47
   4   1  -4    7.78    1.12
   4   1  -4    7.48    0.99
   4   1  -4    9.74    1.34
  -4  -1   4    9.01    1.29
  -4  -1   4   11.56    1.61
  -4  -1   4    8.68    1.10
  -4  -1   4    8.93    1.11
   5   1  -4  147.61    6.04
   5   1  -4  138.33    6.28
   5   1  -4  142.46    5.79
  -5  -1   4  143.88    6.59
  -5  -1   4  150.98    6.01
  -5  -1   4  146.77    6.07
  -5  -1   4  139.47    5.92
   6   1  -4   40.47    2.87
   6   1  -4   39.85    3.48
  -6  -1   4   34.90    2.71
  -6  -1   4   37.36    4.40
  -6  -1   4   31.56    2.73
   7   1  -4    0.63    1.57
  -7  -1   4    1.02    1.46
  -7  -1   4    2.47    1.69
   8   1  -4   23.81    4.20
  -8  -1   4   18.64    2.73
  -7   1  -3   14.72    2.32
   7  -1   3   16.57    6.08
   7  -1   3   11.99    2.38
   7  -1   3   11.03    2.58
  -6   1  -3    3.08    1.29
  -6   1  -3    5.25    1.65
   6  -1   3    4.71    1.62
   6  -1   3    0.77    2.22
   6  -1   3    4.12    1.73
  -5   1  -3   33.18    2.29
  -5   1  -3   33.92    2.04
  -5   1  -3   31.71    2.44
  -5   1  -3   34.74    4.05
   5  -1   3   35.37    2.65
   5  -1   3   36.51    2.68
   5  -1   3   28.84    1.73
   5  -1   3   30.83    3.15
  -4   1  -3   30.42    1.94
  -4   1  -3   25.06    2.83
  -4   1  -3   27.14    1.63
  -4   1  -3   26.62    1.82
  -4   1  -3   24.94    1.54
   4  -1   3   31.55    1.99
   4  -1   3   28.77    2.41
   4  -1   3   26.49    2.01
   4  -1   3   26.59    1.44
  -3   1  -3   28.86    1.41
  -3   1  -3   28.60    1.66
  -3   1  -3   29.81    1.50
  -3   1  -3   29.64    2.42
  -3   1  -3   30.35    1.76
   3  -1   3   27.59    1.41
   3  -1   3   28.27    1.71
   3  -1   3   29.07    1.83
   3  -1   3   30.66    2.13
  -2   1  -3  289.88   10.81
  -2   1  -3  299.99   10.67
  -2   1  -3  268.69   10.07
  -2   1  -3  287.58   10.36
  -2   1  -3  292.73   10.49
  -2   1  -3  276.47   10.24
   2  -1   3  295.21   10.56
   2  -1   3  281.01   10.77
   2  -1   3  300.58   10.40
  -1   1  -3   43.03    2.02
  -1   1  -3   50.05    2.29
  -1   1  -3   45.94    1.89
  -1   1  -3   43.93    1.83
  -1   1  -3   52.10    2.34
   1  -1   3   49.14    2.35
   1  -1   3   51.53    2.31
   1  -1   3   41.48    1.84
   1  -1   3   40.80    2.04
   0   1  -3  135.66    5.09
   0   1  -3  119.79    4.66
   0   1  -3  123.43    4.84
   0  -1   3  140.04    5.19
   0  -1   3  136.87    5.14
   0  -1   3  135.62    4.89
   1   1  -3   30.09    1.25
   1   1  -3   29.93    1.22
   1   1  -3   31.91    1.49
   1   1  -3   28.45    1.45
   1   1  -3   29.70    1.19
  -1  -1   3   29.12    1.24
  -1  -1   3   29.39    1.45
  -1  -1   3   29.72    1.18
  -1  -1   3   30.05    1.53
   2   1  -3  222.46    8.06
   2   1  -3  188.50    7.89
   2   1  -3  213.93    7.87
  -2  -1   3  221.63    7.99
  -2  -1   3  225.07    7.83
  -2  -1   3  223.19    8.02
  -2  -1   3  228.37    8.14
   3   1  -3  181.21    6.72
   3   1  -3  175.61    6.77
   3   1  -3  177.33    6.96
  -3  -1   3  180.10    7.03
  -3  -1   3  183.83    6.81
  -3  -1   3  179.47    6.83
  -3  -1   3  181.04    6.72
   4   1  -3   30.96    1.70
   4   1  -3   32.10    1.93
   4   1  -3   27.65    2.15
  -4  -1   3   34.48    2.24
  -4  -1   3   30.19    1.78
  -4  -1   3   30.02    2.00
  -4  -1   3   29.83    1.75
   5   1  -3   95.13    4.33
   5   1  -3   94.10    3.94
   5   1  -3   87.53    4.61
  -5  -1   3   92.81    4.11
  -5  -1   3   90.76    4.23
  -5  -1   3   93.85    4.95
   6   1  -3    0.82    1.18
   6   1  -3   -0.80    2.29
  -6  -1   3   -0.04    1.13
  -6  -1   3   -0.22    2.54
  -6  -1   3   -0.23    1.05
   7   1  -3   23.69    2.92
  -7  -1   3   24.91    2.97
  -7  -1   3   26.06    2.86
   8   1  -3    8.03    2.35
  -8  -1   3    4.91    2.31
  -7   1  -2    4.01    1.91
   7  -1   2    6.75    2.24
   7  -1   2    1.58    1.79
   7  -1   2    4.11    3.00
  -6   1  -2    8.11    1.60
  -6   1  -2    2.78    3.15
  -6   1  -2    2.91    1.28
  -6   1  -2    3.20    1.36
   6  -1   2    4.05    1.45
   6  -1   2    4.68    1.51
   6  -1   2    1.58    2.11
  -5   1  -2   56.59    2.91
  -5   1  -2   44.48    4.10
  -5   1  -2   54.65    2.82
  -5   1  -2   58.40    2.76
   5  -1   2   51.64    3.50
   5  -1   2   53.00    2.52
   5  -1   2   53.43    3.14
   5  -1   2   63.92    3.25
  -4   1  -2    1.26    0.62
  -4   1  -2    4.11    1.48
  -4   1  -2    2.84    0.65
  -4   1  -2    2.11    0.65
  -4   1  -2    1.94    0.73
   4  -1   2    2.16    1.07
   4  -1   2    3.14    0.61
   4  -1   2    1.69    0.80
   4  -1   2    0.85    0.67
  -3   1  -2   90.62    3.52
  -3   1  -2   95.67    4.33
  -3   1  -2   95.50    3.65
  -3   1  -2   92.16    3.84
  -3   1  -2   89.97    3.80
   3  -1   2   94.79    3.87
   3  -1   2   93.91    4.19
   3  -1   2   92.79    3.92
   3  -1   2   93.38    3.60
  -2   1  -2   22.13    1.27
  -2   1  -2   20.24    1.13
  -2   1  -2   19.87    1.02
  -2   1  -2   20.65    1.51
   2  -1   2   18.79    1.50
   2  -1   2   20.61    1.17
   2  -1   2   20.96    1.00
   2  -1   2   19.88    1.26
  -1   1  -2 1000.00   32.97
  -1   1  -2  882.67   32.81
  -1   1  -2  905.23   32.69
  -1   1  -2  980.29   32.94
   1  -1   2  953.28   32.94
   0   1  -2  123.18    4.57
   0   1  -2  133.52    4.77
   0  -1   2  123.58    4.77
   0  -1   2  125.07    4.59
   1   1  -2   59.00    2.27
   1   1  -2   54.63    2.13
  -1  -1   2   55.39    2.13
  -1  -1   2   55.21    2.28
  -1  -1   2   59.03    2.31
   2   1  -2  279.50   10.17
   2   1  -2  289.68   10.34
   2   1  -2  285.85   10.17
  -2  -1   2  284.13   10.23
  -2  -1   2  283.71   10.15
  -2  -1   2  288.34   10.35
  -2  -1   2  281.61   10.19
   3   1  -2    5.18    0.86
   3   1  -2    4.52    0.75
   3   1  -2    4.90    0.69
  -3  -1   2    4.79    0.75
  -3  -1   2    4.16    0.66
  -3  -1   2    4.23    0.72
  -3  -1   2    5.36    0.91
   4   1  -2   77.17    3.52
   4   1  -2   75.69    3.73
   4   1  -2   80.97    3.26
  -4  -1   2   75.16    3.39
  -4  -1   2   77.54    3.86
  -4  -1   2   77.79    3.51
  -4  -1   2   76.29    3.32
   5   1  -2    7.12    1.12
   5   1  -2    9.25    1.61
   5   1  -2    7.62    1.78
  -5  -1   2    7.91    2.06
  -5  -1   2    6.96    1.26
  -5  -1   2    7.44    1.17
   6   1  -2   17.77    2.69
   6   1  -2   18.60    2.30
  -6  -1   2   16.72    1.96
  -6  -1   2   14.76    3.17
  -6  -1   2   15.20    2.08
   7   1  -2   23.92    2.98
  -7  -1   2   22.39    2.80
  -7  -1   2   20.02    2.22
  -7   1  -1    1.33    1.90
  -7   1  -1    2.74    1.69
   7  -1   1    4.59    2.79
   7  -1   1    1.25    1.61
   7  -1   1    0.05    1.44
  -6   1  -1   18.61    1.84
  -6   1  -1   20.68    2.05
  -6   1  -1   11.58    3.10
  -6   1  -1   17.59    2.15
   6  -1   1   17.39    2.57
   6  -1   1   20.34    2.19
   6  -1   1   20.41    2.43
  -5   1  -1    5.55    1.03
  -5   1  -1    3.95    1.97
  -5   1  -1    5.88    1.06
  -5   1  -1    6.11    1.05
   5  -1   1    5.33    1.16
   5  -1   1    6.34    1.23
   5  -1   1    5.79    1.44
   5  -1   1    5.83    0.84
  -4   1  -1  105.61    4.56
  -4   1  -1  112.21    4.40
  -4   1  -1  107.66    5.12
  -4   1  -1  112.79    4.34
  -4   1  -1  111.45    4.48
   4  -1   1  112.83    4.97
   4  -1   1  110.49    4.30
   4  -1   1  108.88    4.61
   4  -1   1  113.33    4.67
  -3   1  -1   50.24    2.17
  -3   1  -1   51.44    2.30
  -3   1  -1   54.23    2.76
  -3   1  -1   49.54    2.32
  -3   1  -1   48.95    2.12
   3  -1   1   49.71    2.35
   3  -1   1   50.82    2.68
   3  -1   1   49.75    2.13
   3  -1   1   51.93    2.37
  -2   1  -1   17.99    1.28
  -2   1  -1   17.18    0.92
  -2   1  -1   16.92    1.00
  -2   1  -1   16.26    1.03
   2  -1   1   15.69    1.09
   2  -1   1   18.43    0.88
   2  -1   1   15.59    1.01
   2  -1   1   20.14    1.39
  -1   1  -1  484.07   15.71
  -1   1  -1  426.25   15.57
  -1   1  -1  438.68   15.65
  -1   1  -1  438.29   15.53
   1  -1   1  464.09   15.70
   1  -1   1  442.17   15.58
   1  -1   1  451.14   15.53
   1  -1   1  429.49   15.65
   0   1  -1    0.36    0.26
   0   1  -1    0.07    0.13
   0   1  -1    0.00    0.15
   0  -1   1   -0.02    0.10
   0  -1   1   -0.01    0.09
   0  -1   1   -0.26    0.15
   1   1  -1  266.63    8.99
   1   1  -1  252.65    8.90
   1   1  -1  240.10    8.91
  -1  -1   1  251.10    8.91
  -1  -1   1  254.70    8.91
   2   1  -1   60.55    2.39
   2   1  -1   57.91    2.50
   2   1  -1   63.30    2.64
  -2  -1   1   61.04    2.67
  -2  -1   1   63.67    2.52
  -2  -1   1   60.86    2.50
   3   1  -1   85.70    3.33
   3   1  -1   83.60    3.52
   3   1  -1   85.18    3.70
  -3  -1   1   84.25    3.51
  -3  -1   1   85.87    3.48
  -3  -1   1   88.81    3.81
  -3  -1   1   80.19    3.34
   4   1  -1   94.56    3.73
   4   1  -1   88.01    4.31
   4   1  -1   96.60    4.10
  -4  -1   1   96.04    4.55
  -4  -1   1   90.71    3.80
  -4  -1   1   95.86    4.03
  -4  -1   1   91.20    3.98
   5   1  -1    9.97    1.72
   5   1  -1    9.08    1.10
   5   1  -1   12.14    2.32
  -5  -1   1    9.01    1.36
  -5  -1   1    8.66    1.28
  -5  -1   1    9.83    2.33
   6   1  -1   22.47    1.93
   6   1  -1   23.44    2.61
   6   1  -1   24.56    3.17
  -6  -1   1   23.59    2.17
  -6  -1   1   25.86    2.56
  -6  -1   1   20.56    3.37
   7   1  -1    3.23    1.66
  -7  -1   1   -1.69    1.80
  -7  -1   1    0.47    1.77
  -8   1   0   -0.08    2.29
   8  -1   0    0.06    2.31
  -7   1   0   18.04    2.12
  -7   1   0   20.94    2.56
   7  -1   0   17.95    2.81
   7  -1   0   20.14    3.22
   7  -1   0   18.79    2.33
  -6   1   0   19.26    2.00
  -6   1   0   13.67    3.00
  -6   1   0   20.32    2.39
  -6   1   0   21.66    1.92
   6  -1   0   16.31    1.94
   6  -1   0   21.00    3.04
   6  -1   0   21.73    2.47
  -5   1   0   17.99    1.52
  -5   1   0   15.43    2.47
  -5   1   0   13.96    1.69
  -5   1   0   19.39    1.53
   5  -1   0   14.32    2.13
   5  -1   0   16.49    1.79
   5  -1   0   16.94    1.55
   5  -1   0   16.98    1.25
  -4   1   0  100.54    4.73
  -4   1   0   98.83    4.15
  -4   1   0   97.22    4.02
  -4   1   0   99.09    4.02
  -4   1   0   99.30    3.98
   4  -1   0  100.59    4.52
   4  -1   0   98.58    3.96
   4  -1   0  100.72    4.12
   4  -1   0  102.43    4.24
  -3   1   0    2.64    0.50
  -3   1   0    2.33    0.85
  -3   1   0    2.45    0.57
  -3   1   0    1.85    0.54
  -3   1   0    1.47    0.48
   3  -1   0    2.47    0.47
   3  -1   0    2.28    0.85
   3  -1   0    1.98    0.49
   3  -1   0    2.75    0.64
  -2   1   0   88.68    3.29
  -2   1   0   92.06    3.58
  -2   1   0   85.23    3.39
  -2   1   0   84.05    3.33
   2  -1   0   89.40    3.57
   2  -1   0   91.58    3.28
   2  -1   0   80.26    3.35
   2  -1   0   85.21    3.38
   1   1   0  297.04   11.04
   1   1   0  341.60   11.27
   1   1   0  321.19   11.03
   1   1   0  319.08   11.17
  -1  -1   0  317.67   11.17
  -1  -1   0  308.33   11.04
   2   1   0   20.27    0.93
   2   1   0   20.15    1.27
   2   1   0   19.86    0.97
   2   1   0   19.69    1.10
  -2  -1   0   20.90    1.06
  -2  -1   0   20.23    0.96
  -2  -1   0   19.77    0.94
  -2  -1   0   21.97    1.35
  -2  -1   0   16.62    1.10
   3   1   0  249.79    8.60
   3   1   0  239.70    8.67
   3   1   0  242.72    9.11
  -3  -1   0  233.09    8.54
  -3  -1   0  231.76    8.61
  -3  -1   0  244.11    9.19
  -3  -1   0  239.25    8.86
  -3  -1   0  233.04    8.72
   4   1   0    4.55    0.74
   4   1   0    4.43    0.67
   4   1   0    5.60    1.01
   4   1   0    6.41    1.47
  -4  -1   0    3.18    0.77
  -4  -1   0    4.78    0.76
  -4  -1   0    3.04    0.69
  -4  -1   0    3.57    0.84
  -4  -1   0    5.70    1.47
   5   1   0   83.68    3.55
   5   1   0   79.71    3.68
   5   1   0   89.70    4.31
   5   1   0   86.45    4.63
  -5  -1   0   93.10    4.12
  -5  -1   0   90.03    3.76
  -5  -1   0   84.06    5.04
   6   1   0   16.70    1.82
   6   1   0   13.63    2.31
   6   1   0   16.88    1.71
   6   1   0   18.08    2.38
  -6  -1   0   16.39    1.91
  -6  -1   0   14.41    1.69
  -6  -1   0   15.41    3.46
  -6  -1   0   18.99    2.01
   7   1   0    5.96    1.75
  -7  -1   0    5.93    1.98
  -7  -1   0    5.29    2.00
  -8   1   1    3.05    2.58
  -8   1   1    3.70    2.13
   8  -1  -1    2.96    2.30
  -7   1   1   22.32    2.63
  -7   1   1   23.67    2.84
   7  -1  -1   24.26    2.81
   7  -1  -1   23.63    3.16
   7  -1  -1   21.93    2.18
  -6   1   1    3.90    1.02
  -6   1   1    5.10    1.25
  -6   1   1    4.19    2.55
  -6   1   1    7.24    1.39
   6  -1  -1    3.89    1.24
   6  -1  -1    4.93    1.07
   6  -1  -1    4.26    1.69
  -5   1   1   49.40    3.59
  -5   1   1   51.86    2.55
  -5   1   1   51.73    2.43
  -5   1   1   45.45    2.69
  -5   1   1   49.08    2.59
   5  -1  -1   52.41    2.79
   5  -1  -1   47.58    3.10
   5  -1  -1   49.62    2.46
   5  -1  -1   48.54    2.38
  -4   1   1    8.19    1.51
  -4   1   1    7.26    1.06
  -4   1   1    7.07    0.93
  -4   1   1    5.51    0.85
  -4   1   1    8.44    0.92
   4  -1  -1    7.90    1.30
   4  -1  -1    6.63    0.81
   4  -1  -1    7.30    0.96
   4  -1  -1    6.30    0.97
  -3   1   1  138.95    5.28
  -3   1   1  138.49    5.17
  -3   1   1  135.74    5.12
  -3   1   1  139.06    5.57
  -3   1   1  136.34    5.12
   3  -1  -1  141.85    5.16
   3  -1  -1  131.04    5.28
  -2   1   1  218.45    7.86
  -2   1   1  215.58    7.93
  -2   1   1  223.49    8.09
  -2   1   1  225.70    7.88
   2  -1  -1  205.49    7.85
   2  -1  -1  227.71    8.10
   2  -1  -1  222.41    7.85
   2  -1  -1  218.98    7.95
  -1   1   1   61.15    2.34
  -1   1   1   65.84    2.43
  -1   1   1   56.42    2.25
   1  -1  -1   59.12    2.26
   1  -1  -1   64.11    2.29
   0   1   1  346.59   11.44
   0   1   1  276.39   11.39
   0   1   1  341.15   11.47
   0  -1  -1  341.36   11.47
   0  -1  -1  324.59   11.21
   0  -1  -1  313.01   11.30
   1   1   1    4.07    0.53
   1   1   1    4.72    0.66
   1   1   1    3.79    0.49
   1   1   1    3.98    0.26
  -1  -1  -1    4.83    0.70
  -1  -1  -1    5.73    0.57
  -1  -1  -1    3.84    0.52
   2   1   1  182.69    6.77
   2   1   1  167.49    6.40
   2   1   1  178.31    6.24
   2   1   1  165.31    6.48
  -2  -1  -1  176.00    6.52
  -2  -1  -1  178.92    6.27
  -2  -1  -1  182.60    6.82
  -2  -1  -1  175.54    6.35
  -2  -1  -1  173.93    6.38
   3   1   1   67.67    3.37
   3   1   1   67.12    2.98
   3   1   1   67.51    2.66
   3   1   1   66.03    2.86
  -3  -1  -1   70.13    3.47
  -3  -1  -1   66.96    2.98
  -3  -1  -1   71.16    2.85
  -3  -1  -1   68.06    2.73
   4   1   1   49.26    2.57
   4   1   1   45.03    3.01
   4   1   1   50.40    2.39
   4   1   1   48.56    2.11
  -4  -1  -1   46.82    2.30
  -4  -1  -1   45.04    2.19
  -4  -1  -1   51.17    3.45
  -4  -1  -1   47.67    2.45
  -4  -1  -1   47.08    2.53
   5   1   1   50.97    2.35
   5   1   1   55.48    3.33
   5   1   1   49.85    2.76
   5   1   1   44.60    3.38
  -5  -1  -1   47.77    4.26
  -5  -1  -1   57.48    2.97
  -5  -1  -1   55.24    2.65
   6   1   1    0.41    0.95
   6   1   1   -0.95    1.95
   6   1   1    2.63    1.34
   6   1   1   -0.49    1.17
  -6  -1  -1   -3.01    2.64
  -6  -1  -1   -0.53    1.42
  -6  -1  -1    1.06    1.15
  -6  -1  -1   -0.07    0.98
   7   1   1   13.16    2.08
  -7  -1  -1   10.12    2.27
  -7  -1  -1    9.28    2.31
  -8   1   2   12.05    2.38
  -8   1   2   12.48    2.38
   8  -1  -2   12.52    1.45
   8  -1  -2   13.97    2.45
  -7   1   2    3.35    1.52
  -7   1   2    2.30    1.49
   7  -1  -2    2.79    2.39
   7  -1  -2    3.98    1.68
  -6   1   2   23.29    1.44
  -6   1   2   21.16    1.73
  -6   1   2   21.73    2.11
  -6   1   2   21.59    2.20
  -6   1   2   20.95    3.18
   6  -1  -2   17.27    2.85
   6  -1  -2   23.26    2.44
  -5   1   2   68.91    3.43
  -5   1   2   72.73    3.34
  -5   1   2   76.74    3.40
  -5   1   2   76.19    2.96
  -5   1   2   70.32    4.21
   5  -1  -2   71.56    3.23
   5  -1  -2   74.80    3.93
   5  -1  -2   74.24    3.60
  -4   1   2   23.37    2.02
  -4   1   2   21.45    1.49
  -4   1   2   21.62    1.29
  -4   1   2   20.77    1.13
  -4   1   2   21.12    1.39
  -4   1   2   20.66    1.47
   4  -1  -2   23.74    2.04
   4  -1  -2   21.44    1.32
   4  -1  -2   21.01    1.52
  -3   1   2  298.26   10.99
  -3   1   2  301.83   10.43
  -3   1   2  293.03   10.66
  -3   1   2  296.81   10.59
  -3   1   2  288.76   10.70
  -3   1   2  291.67   10.54
   3  -1  -2  299.29   10.99
   3  -1  -2  286.26   10.73
   3  -1  -2  303.30   10.64
  -2   1   2    3.68    0.53
  -2   1   2    3.01    0.49
  -2   1   2    3.52    0.68
  -2   1   2    3.33    0.37
   2  -1  -2    3.55    0.34
   2  -1  -2    3.42    0.36
   2  -1  -2    4.22    0.61
   2  -1  -2    3.48    0.51
   2  -1  -2    4.79    0.77
  -1   1   2  728.60   25.60
  -1   1   2  748.31   25.73
  -1   1   2  725.32   25.59
   1  -1  -2  729.82   25.62
   1  -1  -2  735.19   25.58
   1  -1  -2  752.54   25.75
   0   1   2  280.81    9.60
   0   1   2  261.22    9.47
   0   1   2  261.69    9.28
   0   1   2  268.81    9.57
   0   1   2  258.97    9.33
   0   1   2  244.75    9.27
   0  -1  -2  263.70    9.25
   0  -1  -2  254.75    9.33
   0  -1  -2  278.05    9.62
   1   1   2   70.14    2.87
   1   1   2   71.06    2.90
   1   1   2   72.60    3.14
  -1  -1  -2   70.63    2.74
  -1  -1  -2   79.14    2.88
  -1  -1  -2   76.58    3.21
  -1  -1  -2   74.30    2.92
  -1  -1  -2   79.63    2.91
   2   1   2   96.32    4.27
   2   1   2   95.69    3.91
   2   1   2  100.66    3.66
   2   1   2   99.95    3.96
  -2  -1  -2   99.64    3.98
  -2  -1  -2  105.50    3.71
  -2  -1  -2   99.70    3.76
  -2  -1  -2  106.66    4.40
   3   1   2   43.29    2.85
   3   1   2   43.95    2.21
   3   1   2   46.91    2.19
   3   1   2   42.65    1.84
  -3  -1  -2   43.30    1.90
  -3  -1  -2   45.00    2.17
  -3  -1  -2   45.92    2.06
  -3  -1  -2   45.54    2.27
  -3  -1  -2   43.90    2.81
   4   1   2   96.02    3.71
   4   1   2   95.27    4.13
   4   1   2   96.10    4.23
   4   1   2   96.55    4.70
  -4  -1  -2   94.64    5.10
  -4  -1  -2   98.54    4.00
  -4  -1  -2   98.86    3.82
  -4  -1  -2   89.57    4.19
  -4  -1  -2   91.41    3.97
   5   1   2    1.88    1.33
   5   1   2    2.29    1.52
   5   1   2    3.71    1.10
   5   1   2    2.68    0.66
  -5  -1  -2    0.73    0.93
  -5  -1  -2    1.88    1.06
  -5  -1  -2    1.76    2.47
  -5  -1  -2    1.97    0.86
   6   1   2   19.72    2.58
   6   1   2   16.34    1.60
   6   1   2   14.82    2.61
  -6  -1  -2   19.75    2.16
  -6  -1  -2   21.03    2.71
   7   1   2    8.47    2.07
  -7  -1  -2   11.77    2.56
  -8   1   3   11.90    2.22
   8  -1  -3    8.93    1.07
   8  -1  -3   11.58    2.37
  -7   1   3   11.14    1.97
  -7   1   3   12.10    1.62
   7  -1  -3   12.00    1.22
   7  -1  -3   14.42    2.11
   7  -1  -3    7.45    2.44
  -6   1   3   65.71    3.42
  -6   1   3   60.55    4.65
  -6   1   3   59.08    3.24
   6  -1  -3   60.05    3.91
   6  -1  -3   62.08    3.70
  -5   1   3    0.82    0.82
  -5   1   3   -0.39    0.69
  -5   1   3    0.82    0.77
  -5   1   3   -0.04    1.46
  -5   1   3   -0.09    0.45
   5  -1  -3   -1.14    1.12
   5  -1  -3   -0.44    0.65
   5  -1  -3    0.07    0.71
  -4   1   3  151.78    5.90
  -4   1   3  156.53    6.17
  -4   1   3  164.81    6.67
  -4   1   3  162.40    6.12
  -4   1   3  164.65    5.80
  -4   1   3  159.38    6.18
   4  -1  -3  161.55    6.12
   4  -1  -3  154.88    5.76
   4  -1  -3  155.34    6.26
   4  -1  -3  160.17    6.63
  -3   1   3   27.51    1.37
  -3   1   3   27.23    1.50
  -3   1   3   28.24    1.24
  -3   1   3   24.85    1.43
  -3   1   3   25.86    1.77
   3  -1  -3   26.69    1.46
   3  -1  -3   26.52    1.90
   3  -1  -3   26.77    1.44
   3  -1  -3   27.83    1.18
  -2   1   3  207.18    7.23
  -2   1   3  202.53    7.39
  -2   1   3  200.91    7.58
  -2   1   3  196.56    7.29
   2  -1  -3  193.89    7.18
   2  -1  -3  202.46    7.13
   2  -1  -3  209.71    7.61
   2  -1  -3  200.27    7.37
  -1   1   3  218.19    7.35
  -1   1   3  213.72    7.31
  -1   1   3  202.86    7.24
  -1   1   3  200.37    7.50
   1  -1  -3  191.05    7.30
   1  -1  -3  191.35    7.12
   1  -1  -3  200.89    7.29
   1  -1  -3  200.75    7.52
   1  -1  -3  201.70    7.26
   0   1   3   26.87    1.67
   0   1   3   28.27    1.39
   0   1   3   27.16    1.23
   0   1   3   27.88    1.47
   0   1   3   28.96    1.40
   0   1   3   27.87    1.70
   0  -1  -3   30.78    1.81
   0  -1  -3   29.16    1.30
   0  -1  -3   28.83    1.38
   0  -1  -3   27.62    1.16
   1   1   3   98.44    3.90
   1   1   3   98.10    3.99
   1   1   3  111.31    4.40
  -1  -1  -3   99.06    3.93
  -1  -1  -3  101.62    3.77
  -1  -1  -3  101.79    3.98
  -1  -1  -3  103.66    4.01
  -1  -1  -3  104.67    4.39
  -1  -1  -3  108.91    3.75
   2   1   3    0.73    0.41
   2   1   3    0.89    1.08
   2   1   3   -0.06    0.38
  -2  -1  -3    0.17    0.84
  -2  -1  -3    0.40    0.45
  -2  -1  -3    0.03    0.52
  -2  -1  -3    1.00    0.35
  -2  -1  -3    0.64    0.58
  -2  -1  -3    0.92    0.40
   3   1   3  168.80    7.08
   3   1   3  170.48    6.59
   3   1   3  170.21    6.59
  -3  -1  -3  170.78    6.54
  -3  -1  -3  172.08    6.33
  -3  -1  -3  163.83    6.59
  -3  -1  -3  171.99    7.31
  -3  -1  -3  171.56    6.24
   4   1   3   14.93    1.62
   4   1   3   12.10    2.07
   4   1   3   18.04    1.76
   4   1   3   15.55    1.00
  -4  -1  -3   14.53    2.65
  -4  -1  -3   16.24    1.25
  -4  -1  -3   11.84    1.75
  -4  -1  -3   16.22    1.56
  -4  -1  -3   16.81    1.50
   5   1   3   13.10    2.04
   5   1   3   14.19    2.27
   5   1   3   13.26    1.11
   5   1   3   13.78    2.33
  -5  -1  -3   16.35    1.64
  -5  -1  -3   11.44    1.85
  -5  -1  -3   16.87    1.93
  -5  -1  -3   10.63    3.25
   6   1   3   18.35    2.73
   6   1   3   18.98    3.00
   6   1   3   12.33    2.80
  -6  -1  -3   19.14    2.37
  -6  -1  -3   17.09    1.93
   7   1   3   -0.06    2.22
  -7  -1  -3   -1.30    2.66
  -8   1   4   -3.90    1.84
   8  -1  -4    1.37    0.83
   8  -1  -4   -2.76    2.08
  -7   1   4   35.25    3.08
   7  -1  -4   36.20    3.95
   7  -1  -4   34.36    1.86
   7  -1  -4   33.67    3.02
  -6   1   4   10.80    2.65
  -6   1   4   16.05    1.99
   6  -1  -4   11.82    2.12
   6  -1  -4   18.11    2.22
   6  -1  -4   14.13    1.13
  -5   1   4   54.63    2.80
  -5   1   4   51.45    2.75
  -5   1   4   48.96    3.61
   5  -1  -4   54.95    2.86
   5  -1  -4   55.81    2.29
   5  -1  -4   50.72    3.35
   5  -1  -4   49.45    2.66
  -4   1   4   83.57    3.32
  -4   1   4   89.68    3.77
  -4   1   4   85.40    3.65
  -4   1   4   84.16    3.45
  -4   1   4   85.82    4.17
   4  -1  -4   86.85    3.75
   4  -1  -4   86.93    3.65
   4  -1  -4   87.83    4.31
   4  -1  -4   86.12    3.30
  -3   1   4   59.99    2.44
  -3   1   4   59.66    2.70
  -3   1   4   60.91    3.01
  -3   1   4   61.17    2.62
   3  -1  -4   57.72    2.33
   3  -1  -4   58.82    2.63
   3  -1  -4   61.05    3.04
   3  -1  -4   64.37    2.68
   3  -1  -4   56.46    2.37
  -2   1   4  196.54    7.35
  -2   1   4  183.32    6.93
  -2   1   4  199.82    6.99
   2  -1  -4  190.07    7.32
   2  -1  -4  196.54    7.10
   2  -1  -4  189.87    6.92
   2  -1  -4  189.83    7.06
   2  -1  -4  184.97    6.81
  -1   1   4   21.42    1.41
  -1   1   4   17.80    1.11
  -1   1   4   18.01    0.97
  -1   1   4   18.05    1.10
   1  -1  -4   18.39    1.09
   1  -1  -4   17.60    0.86
   1  -1  -4   18.35    1.16
   1  -1  -4   19.71    1.09
   1  -1  -4   18.26    1.28
   0   1   4  113.47    4.88
   0   1   4  109.29    4.49
   0   1   4  112.55    4.31
   0   1   4  114.41    4.58
   0   1   4  119.50    5.01
   0   1   4  123.84    4.65
   0  -1  -4  123.14    5.06
   0  -1  -4  119.78    4.47
   0  -1  -4  117.74    4.53
   0  -1  -4  120.38    4.27
   1   1   4   60.68    3.16
   1   1   4   54.28    2.41
   1   1   4   60.63    2.71
   1   1   4   56.58    2.57
  -1  -1  -4   58.93    2.63
  -1  -1  -4   58.36    2.50
  -1  -1  -4   61.70    3.17
  -1  -1  -4   59.34    2.31
  -1  -1  -4   62.14    2.64
   2   1   4   37.01    2.49
   2   1   4   37.91    2.00
   2   1   4   36.97    1.87
  -2  -1  -4   34.62    2.16
  -2  -1  -4   37.96    1.64
  -2  -1  -4   40.13    1.97
  -2  -1  -4   35.51    2.76
  -2  -1  -4   41.79    2.06
  -2  -1  -4   39.58    1.71
   3   1   4   87.62    3.93
   3   1   4   97.12    3.93
   3   1   4   88.26    4.41
  -3  -1  -4   85.72    4.07
  -3  -1  -4   91.73    3.63
  -3  -1  -4   90.17    4.95
  -3  -1  -4   86.17    3.88
  -3  -1  -4   88.18    3.91
  -3  -1  -4   91.92    3.52
   4   1   4    2.90    1.05
   4   1   4    1.94    1.01
   4   1   4   -0.73    1.33
  -4  -1  -4    0.81    0.96
  -4  -1  -4    1.80    0.86
  -4  -1  -4    3.30    2.22
  -4  -1  -4    0.96    0.70
  -4  -1  -4   -0.22    1.40
   5   1   4   18.28    2.77
   5   1   4   21.38    2.66
   5   1   4   20.06    2.64
  -5  -1  -4   22.65    2.12
  -5  -1  -4   19.45    1.85
  -5  -1  -4   21.54    3.67
  -5  -1  -4   25.71    3.56
   6   1   4   -0.81    1.89
   6   1   4    0.57    1.78
  -6  -1  -4    1.17    1.58
  -6  -1  -4   -2.49    1.64
  -8   1   5    7.02    2.03
   8  -1  -5    6.24    0.98
   8  -1  -5    7.96    2.29
  -7   1   5   15.63    2.13
   7  -1  -5   20.59    2.69
   7  -1  -5   14.70    1.30
   7  -1  -5   10.88    2.71
  -6   1   5   10.09    2.66
  -6   1   5   14.83    2.06
   6  -1  -5   11.60    1.81
   6  -1  -5   15.25    2.30
   6  -1  -5   12.52    1.07
  -5   1   5   81.97    3.86
  -5   1   5   84.93    4.70
  -5   1   5   78.53    3.72
   5  -1  -5   79.68    3.82
   5  -1  -5   82.73    3.26
   5  -1  -5   79.81    4.37
  -4   1   5   -0.02    0.55
  -4   1   5   -0.54    0.51
  -4   1   5    0.28    0.57
  -4   1   5    0.01    0.50
  -4   1   5    1.66    1.19
   4  -1  -5    1.28    0.63
   4  -1  -5    0.37    1.41
   4  -1  -5   -0.20    0.58
   4  -1  -5    0.22    0.32
  -3   1   5  234.40    9.12
  -3   1   5  228.90    8.61
  -3   1   5  226.76    8.84
  -3   1   5  246.29    8.54
   3  -1  -5  245.36    9.20
   3  -1  -5  231.93    8.41
   3  -1  -5  235.09    8.76
   3  -1  -5  235.83    8.47
   3  -1  -5  231.94    8.71
  -2   1   5  121.64    4.49
  -2   1   5  112.89    4.37
  -2   1   5  117.83    4.92
  -2   1   5  113.23    4.68
   2  -1  -5  113.85    4.91
   2  -1  -5  113.86    4.58
   2  -1  -5  118.02    4.46
   2  -1  -5  117.89    4.55
   2  -1  -5  117.32    4.30
  -1   1   5   77.01    3.25
  -1   1   5   85.78    3.71
  -1   1   5   77.35    3.08
  -1   1   5   75.85    3.87
  -1   1   5   79.17    3.35
   1  -1  -5   80.72    3.71
   1  -1  -5   79.23    3.26
   1  -1  -5   79.31    3.01
   1  -1  -5   82.14    3.28
   1  -1  -5   76.84    3.26
   0   1   5  138.72    5.97
   0   1   5  144.96    6.11
   0   1   5  141.87    5.54
   0   1   5  146.15    5.52
   0   1   5  148.68    5.68
   0  -1  -5  142.80    5.23
   0  -1  -5  149.72    5.56
   0  -1  -5  135.62    5.47
   1   1   5    9.69    1.03
   1   1   5    8.80    1.13
   1   1   5   11.43    1.56
   1   1   5    9.50    0.79
  -1  -1  -5   10.12    0.96
  -1  -1  -5    8.54    1.20
  -1  -1  -5    9.30    0.76
  -1  -1  -5   11.69    1.82
  -1  -1  -5    9.69    1.10
   2   1   5  125.40    5.00
   2   1   5  126.44    5.71
   2   1   5  125.51    5.21
  -2  -1  -5  128.00    4.81
  -2  -1  -5  127.96    6.00
  -2  -1  -5  130.33    4.77
  -2  -1  -5  123.56    5.28
  -2  -1  -5  128.83    5.21
  -2  -1  -5  131.44    5.11
   3   1   5    3.85    0.97
   3   1   5    4.71    1.00
   3   1   5    2.98    1.41
  -3  -1  -5    2.83    0.87
  -3  -1  -5    3.70    0.67
  -3  -1  -5    4.70    1.14
  -3  -1  -5    4.69    1.50
  -3  -1  -5    3.90    0.74
  -3  -1  -5    2.92    2.03
   4   1   5   30.08    2.51
   4   1   5   24.93    2.43
   4   1   5   24.65    3.13
  -4  -1  -5   24.05    3.59
  -4  -1  -5   25.94    3.08
  -4  -1  -5   25.38    1.69
  -4  -1  -5   26.90    1.88
   5   1   5    5.17    2.34
   5   1   5   11.39    2.00
   5   1   5   10.96    2.03
  -5  -1  -5    3.36    3.49
  -5  -1  -5    5.90    1.27
  -5  -1  -5    8.34    1.36
   6   1   5    1.51    2.18
   6   1   5    2.85    2.04
  -6  -1  -5    5.05    1.96
  -8   1   6    8.97    2.20
   8  -1  -6   12.59    2.42
   8  -1  -6   10.38    1.19
  -7   1   6   -0.25    1.54
   7  -1  -6    1.38    1.57
   7  -1  -6    0.95    0.61
  -6   1   6   39.56    2.83
  -6   1   6   41.79    4.23
   6  -1  -6   41.17    1.99
   6  -1  -6   40.11    3.06
   6  -1  -6   42.05    3.50
  -5   1   6   16.73    2.83
  -5   1   6   15.00    1.77
  -5   1   6   16.22    1.76
   5  -1  -6   16.63    1.10
   5  -1  -6   15.69    1.65
   5  -1  -6   20.13    2.59
  -4   1   6   68.53    2.83
  -4   1   6   65.26    3.06
  -4   1   6   68.51    3.28
  -4   1   6   68.18    3.83
   4  -1  -6   66.67    3.12
   4  -1  -6   70.55    2.80
   4  -1  -6   71.27    4.11
   4  -1  -6   67.21    2.77
   4  -1  -6   65.20    3.15
  -3   1   6   88.81    4.18
  -3   1   6   87.57    3.50
  -3   1   6   87.92    3.87
  -3   1   6   85.29    3.50
   3  -1  -6   88.58    3.62
   3  -1  -6   85.10    3.43
   3  -1  -6   85.91    4.15
   3  -1  -6   84.73    3.69
   3  -1  -6   83.39    3.34
  -2   1   6    0.42    0.86
  -2   1   6    0.11    0.38
  -2   1   6    1.12    0.55
  -2   1   6    0.40    0.53
   2  -1  -6    0.50    0.49
   2  -1  -6    1.31    0.56
   2  -1  -6   -0.17    0.81
   2  -1  -6    1.21    0.55
   2  -1  -6    0.10    0.32
  -1   1   6  185.07    6.77
  -1   1   6  191.18    7.26
  -1   1   6  188.42    7.60
  -1   1   6  180.80    6.80
  -1   1   6  184.74    7.73
  -1   1   6  181.44    7.04
   1  -1  -6  193.67    7.10
   1  -1  -6  187.16    7.10
   1  -1  -6  192.09    6.79
   0   1   6    4.04    0.87
   0   1   6    2.18    0.47
   0   1   6    3.02    1.15
   0   1   6    4.77    1.24
   0   1   6    2.34    0.64
   0   1   6    2.36    0.82
   0  -1  -6    2.43    0.45
   0  -1  -6    3.08    0.78
   0  -1  -6    2.76    0.72
   1   1   6   69.53    3.42
   1   1   6   72.53    3.86
   1   1   6   71.08    2.98
   1   1   6   74.37    3.34
  -1  -1  -6   73.43    3.35
  -1  -1  -6   71.66    4.24
  -1  -1  -6   74.72    2.93
  -1  -1  -6   74.78    3.36
  -1  -1  -6   74.17    3.15
   2   1   6   28.14    1.96
   2   1   6   30.01    1.72
   2   1   6   33.31    2.78
  -2  -1  -6   25.50    2.32
  -2  -1  -6   27.40    3.09
  -2  -1  -6   28.64    1.60
  -2  -1  -6   27.44    2.01
  -2  -1  -6   31.19    1.53
  -2  -1  -6   29.09    1.83
   3   1   6   18.21    1.93
   3   1   6   18.27    1.83
   3   1   6   17.20    2.77
  -3  -1  -6   19.29    1.33
  -3  -1  -6   20.27    1.48
  -3  -1  -6   16.83    2.54
  -3  -1  -6   14.26    2.88
  -3  -1  -6   16.74    1.85
   4   1   6   29.54    2.82
   4   1   6   24.56    3.69
   4   1   6   31.66    2.96
  -4  -1  -6   25.63    1.87
  -4  -1  -6   27.22    2.02
  -4  -1  -6   23.14    3.51
   5   1   6    0.09    1.81
   5   1   6    2.42    1.75
  -5  -1  -6    0.71    1.29
  -5  -1  -6    0.39    1.29
   6   1   6   15.24    2.72
   6   1   6    8.47    2.70
  -6  -1  -6    9.70    2.23
  -8   1   7    6.39    2.14
   8  -1  -7    5.48    2.27
  -7   1   7    9.00    1.75
   7  -1  -7   10.59    1.27
   7  -1  -7   11.78    2.05
  -6   1   7   43.94    3.03
  -6   1   7   45.81    4.53
   6  -1  -7   43.43    2.13
   6  -1  -7   40.31    3.81
   6  -1  -7   42.67    3.16
  -5   1   7    9.06    1.70
  -5   1   7    9.64    1.69
  -5   1   7   13.76    2.58
  -5   1   7    8.88    1.10
   5  -1  -7   10.20    1.54
   5  -1  -7    9.38    0.93
   5  -1  -7   11.88    2.18
  -4   1   7  104.32    4.07
  -4   1   7   84.86    5.16
  -4   1   7  107.24    4.24
  -4   1   7  103.02    4.68
   4  -1  -7  102.33    4.37
   4  -1  -7  104.76    4.05
   4  -1  -7  103.36    4.00
   4  -1  -7  102.25    5.22
  -3   1   7   -0.01    0.54
  -3   1   7   -0.76    1.23
  -3   1   7    0.71    0.51
  -3   1   7   -0.39    0.64
   3  -1  -7    1.14    1.17
   3  -1  -7    0.90    0.43
   3  -1  -7    0.66    0.60
   3  -1  -7    0.52    0.67
   3  -1  -7    0.17    0.46
  -2   1   7   73.99    3.97
  -2   1   7   75.55    3.57
  -2   1   7   73.70    3.01
  -2   1   7   77.89    3.33
   2  -1  -7   76.42    3.34
   2  -1  -7   71.92    3.36
   2  -1  -7   79.96    4.04
   2  -1  -7   80.90    3.34
   2  -1  -7   79.72    3.07
  -1   1   7   83.43    3.42
  -1   1   7   88.66    4.03
  -1   1   7   88.71    4.55
  -1   1   7   83.50    3.37
  -1   1   7   91.75    3.80
  -1   1   7   89.75    4.50
   1  -1  -7   90.16    3.46
   1  -1  -7   89.78    3.82
   1  -1  -7   88.45    3.79
   0   1   7   64.69    3.06
   0   1   7   60.85    3.77
   0   1   7   65.47    3.98
   0   1   7   65.14    2.67
   0   1   7   64.21    3.38
   0   1   7   69.69    3.14
   0  -1  -7   68.27    2.75
   0  -1  -7   67.20    3.11
   0  -1  -7   69.77    3.16
   1   1   7   77.62    3.63
   1   1   7   78.07    4.32
   1   1   7   76.68    3.77
   1   1   7   75.99    3.20
  -1  -1  -7   74.08    3.64
  -1  -1  -7   78.06    3.39
  -1  -1  -7   80.72    3.19
  -1  -1  -7   79.72    3.68
  -1  -1  -7   80.75    4.78
   2   1   7   -0.67    1.44
   2   1   7   -0.31    0.89
   2   1   7    0.20    0.70
  -2  -1  -7   -0.95    0.80
  -2  -1  -7    0.18    0.64
  -2  -1  -7    0.08    1.28
  -2  -1  -7    2.54    2.34
  -2  -1  -7   -0.35    0.50
   3   1   7   36.13    2.43
   3   1   7   37.33    2.77
   3   1   7   25.63    3.58
  -3  -1  -7   28.57    2.47
  -3  -1  -7   32.63    1.91
  -3  -1  -7   32.70    1.94
  -3  -1  -7   28.26    3.27
  -3  -1  -7   26.53    4.51
   4   1   7    3.25    1.67
   4   1   7    3.85    1.74
   4   1   7    3.30    2.64
  -4  -1  -7    1.97    1.09
  -4  -1  -7    2.62    1.11
   5   1   7   12.86    2.36
   5   1   7   10.96    3.74
   5   1   7   15.77    2.50
  -5  -1  -7   13.36    1.85
  -7   1   8   30.79    3.22
   7  -1  -8   31.90    3.24
   7  -1  -8   36.38    2.02
  -6   1   8    0.30    1.27
   6  -1  -8    2.35    1.39
   6  -1  -8    2.57    0.72
   6  -1  -8    2.80    2.25
  -5   1   8   51.28    2.84
  -5   1   8   49.28    2.42
  -5   1   8   54.07    3.25
  -5   1   8   55.58    4.67
   5  -1  -8   52.10    2.38
   5  -1  -8   51.96    2.38
   5  -1  -8   50.10    2.91
   5  -1  -8   52.14    3.97
  -4   1   8   10.93    2.31
  -4   1   8   11.25    1.61
  -4   1   8    8.73    1.16
  -4   1   8    9.38    1.35
   4  -1  -8    8.45    1.42
   4  -1  -8   11.95    2.28
   4  -1  -8    9.50    1.03
   4  -1  -8    8.32    0.92
  -3   1   8   49.74    3.69
  -3   1   8   50.50    2.92
  -3   1   8   54.13    2.51
  -3   1   8   52.09    2.31
   3  -1  -8   45.12    2.64
   3  -1  -8   48.63    2.39
   3  -1  -8   48.65    2.22
   3  -1  -8   50.89    2.50
   3  -1  -8   46.33    3.65
  -2   1   8   91.12    3.68
  -2   1   8   95.73    4.46
  -2   1   8   91.23    4.96
  -2   1   8  101.20    4.12
   2  -1  -8  101.51    3.82
   2  -1  -8   86.41    5.06
   2  -1  -8  104.34    4.06
   2  -1  -8   91.54    4.16
   2  -1  -8   99.24    4.12
  -1   1   8    0.67    1.38
  -1   1   8    1.49    1.67
  -1   1   8    1.86    0.74
  -1   1   8    1.07    0.94
  -1   1   8    1.17    0.54
   1  -1  -8    1.22    0.82
   1  -1  -8    1.90    0.90
   1  -1  -8    0.98    0.47
   0   1   8   79.42    4.94
   0   1   8   82.77    3.71
   0   1   8   82.49    4.80
   0   1   8   91.28    4.36
   0   1   8   90.48    3.97
   0   1   8   86.22    3.35
   0  -1  -8   85.66    3.92
   0  -1  -8   88.44    3.45
   0  -1  -8   78.34    3.96
   1   1   8    0.76    0.91
   1   1   8    0.88    1.29
   1   1   8    2.20    0.62
   1   1   8    2.97    1.34
   1   1   8   -2.28    2.13
   1   1   8    2.05    1.65
  -1  -1  -8    1.68    2.13
  -1  -1  -8    2.40    1.25
  -1  -1  -8    1.71    0.54
   2   1   8   40.45    2.77
   2   1   8   40.30    2.25
   2   1   8   34.19    3.83
  -2  -1  -8   36.92    4.90
  -2  -1  -8   40.47    2.03
  -2  -1  -8   33.48    3.00
  -2  -1  -8   37.73    2.44
  -2  -1  -8   41.34    2.17
   3   1   8   16.21    2.20
   3   1   8   16.73    3.02
   3   1   8   15.42    2.48
  -3  -1  -8   15.48    1.60
  -3  -1  -8   15.38    2.28
  -3  -1  -8   16.20    1.70
   4   1   8    4.61    1.89
   4   1   8    9.43    3.26
   4   1   8    9.24    2.05
  -4  -1  -8    6.56    1.46
  -4  -1  -8    5.13    1.30
   5   1   8   11.85    2.47
   5   1   8   10.67    2.78
  -5  -1  -8   10.10    1.88
  -7   1   9   10.07    2.16
   7  -1  -9   10.33    1.38
   7  -1  -9    9.75    2.18
  -6   1   9   16.36    2.50
   6  -1  -9   12.75    2.00
   6  -1  -9   13.87    1.27
  -5   1   9   58.85    3.00
  -5   1   9   57.91    4.95
  -5   1   9   55.43    2.73
  -5   1   9   50.72    3.50
   5  -1  -9   57.76    2.60
   5  -1  -9   51.85    4.24
   5  -1  -9   59.04    3.16
   5  -1  -9   54.01    2.66
  -4   1   9    1.85    2.32
  -4   1   9    3.94    1.37
  -4   1   9    4.34    0.93
  -4   1   9    2.31    0.90
   4  -1  -9    4.84    1.02
   4  -1  -9    2.73    0.64
   4  -1  -9    4.22    0.82
   4  -1  -9    3.93    1.89
  -3   1   9   50.66    2.33
  -3   1   9   49.61    2.62
  -3   1   9   50.20    3.27
  -3   1   9   46.37    4.11
   3  -1  -9   57.42    4.22
   3  -1  -9   47.41    2.56
   3  -1  -9   50.53    2.58
   3  -1  -9   48.95    2.27
  -2   1   9    8.13    2.14
  -2   1   9    8.26    2.03
  -2   1   9    9.44    1.64
  -2   1   9    9.17    1.38
   2  -1  -9    8.26    0.96
   2  -1  -9    6.93    1.28
   2  -1  -9    7.28    1.15
  -1   1   9   58.91    4.24
  -1   1   9   64.53    3.19
  -1   1   9   60.48    4.59
  -1   1   9   60.67    3.52
   1  -1  -9   58.72    3.16
   1  -1  -9   59.72    2.66
   0   1   9   22.00    2.52
   0   1   9   21.47    1.89
   0   1   9   21.55    3.14
   0   1   9   24.90    1.42
   0   1   9   26.26    3.47
   0   1   9   24.98    2.11
   0  -1  -9   26.40    1.48
   0  -1  -9   24.90    2.29
   1   1   9   12.21    1.37
   1   1   9   13.36    3.15
   1   1   9   10.43    2.52
   1   1   9   10.92    1.87
   1   1   9   10.67    1.99
   1   1   9   15.25    2.03
  -1  -1  -9   12.42    1.22
  -1  -1  -9   11.07    1.79
   2   1   9   26.28    3.57
   2   1   9   27.13    2.15
   2   1   9   26.97    2.75
  -2  -1  -9   29.74    2.10
  -2  -1  -9   26.30    3.03
  -2  -1  -9   27.43    1.79
  -2  -1  -9   30.65    2.32
   3   1   9    0.86    1.68
   3   1   9    5.05    3.12
   3   1   9    1.97    1.54
  -3  -1  -9    0.52    0.91
  -3  -1  -9    0.68    1.18
   4   1   9    9.83    4.42
   4   1   9   16.07    2.66
   4   1   9   23.87    3.67
  -4  -1  -9   25.42    2.47
  -7   1  10   -0.72    2.00
   7  -1 -10    3.83    1.02
   7  -1 -10    3.76    2.13
  -6   1  10   29.20    3.25
   6  -1 -10   31.07    1.89
   6  -1 -10   27.25    3.08
  -5   1  10    2.82    1.01
  -5   1  10    4.93    1.72
   5  -1 -10    3.33    0.76
   5  -1 -10    3.40    2.31
   5  -1 -10    5.96    1.39
  -4   1  10   58.70    2.98
  -4   1  10   56.80    5.19
  -4   1  10   59.25    2.82
  -4   1  10   61.95    3.92
   4  -1 -10   52.16    4.56
   4  -1 -10   58.16    3.15
   4  -1 -10   61.31    2.72
   4  -1 -10   57.86    2.93
  -3   1  10   31.49    2.11
  -3   1  10   25.52    4.22
  -3   1  10   29.38    2.87
   3  -1 -10   25.53    1.94
   3  -1 -10   25.84    2.22
   3  -1 -10   27.40    1.63
   3  -1 -10   25.47    3.61
  -2   1  10   20.84    2.00
  -2   1  10   17.64    2.60
  -2   1  10   15.20    2.92
   2  -1 -10   19.42    1.35
  -1   1  10   45.47    4.25
  -1   1  10   44.81    5.04
  -1   1  10   46.57    3.53
  -1   1  10   54.29    3.17
   1  -1 -10   50.04    2.39
   0   1  10   -0.17    2.26
   0   1  10   -2.15    1.00
   0   1  10    0.48    0.62
   0   1  10    0.18    2.56
   0   1  10   -1.89    1.76
   0  -1 -10    0.54    0.61
   0  -1 -10    0.20    1.27
   1   1  10   24.12    3.98
   1   1  10   26.75    2.47
   1   1  10   27.37    1.87
   1   1  10   27.75    4.56
   1   1  10   22.43    2.77
   1   1  10   28.43    3.29
  -1  -1 -10   19.04    2.46
  -1  -1 -10   27.16    1.73
   2   1  10   -0.44    3.25
   2   1  10    0.29    1.61
   2   1  10    1.68    1.24
  -2  -1 -10    0.70    0.79
  -2  -1 -10    1.21    1.35
   3   1  10    4.85    4.38
   3   1  10   19.63    3.21
   3   1  10   12.60    2.46
  -3  -1 -10   15.85    2.02
  -3  -1 -10   17.97    2.52
  -6   1  11    6.29    2.18
   6  -1 -11    8.54    2.06
   6  -1 -11    7.77    1.16
  -5   1  11   20.59    3.30
  -5   1  11   17.54    2.09
   5  -1 -11   17.85    2.57
   5  -1 -11   18.87    1.50
  -4   1  11   51.41    3.85
  -4   1  11   55.12    3.02
   4  -1 -11   49.87    2.49
   4  -1 -11   44.20    2.94
   4  -1 -11   46.83    4.77
  -3   1  11   -1.98    2.86
  -3   1  11    1.69    4.38
  -3   1  11   -0.78    1.61
  -3   1  11   -0.35    1.09
   3  -1 -11   -0.05    0.60
  -2   1  11   36.63    4.86
  -2   1  11   40.75    2.90
  -2   1  11   35.62    3.51
  -2   1  11   33.71    4.35
   2  -1 -11   34.58    1.98
  -1   1  11    4.22    2.44
  -1   1  11    1.31    2.74
  -1   1  11    2.59    3.04
  -1   1  11    2.86    1.32
   1  -1 -11    2.41    0.70
   0   1  11   20.21    3.07
   0   1  11   24.37    3.86
   0   1  11   25.28    2.60
   0  -1 -11   20.41    1.59
   1   1  11   13.16    2.25
   1   1  11   13.66    2.97
   1   1  11   13.76    1.72
   1   1  11    5.92    3.68
  -1  -1 -11   13.13    1.52
   2   1  11    5.78    2.10
   2   1  11    3.85    4.38
  -2  -1 -11    7.63    1.24
  -2  -1 -11    8.69    1.93
   3   1  11   14.56    5.06
   3   1  11   10.92    2.68
  -3  -1 -11    9.31    1.65
  -6   1  12    0.60    2.34
   6  -1 -12   -1.11    0.99
  -5   1  12   22.91    3.68
  -5   1  12   31.58    2.88
   5  -1 -12   26.59    2.10
  -4   1  12    4.65    2.15
  -4   1  12    1.94    1.56
   4  -1 -12    0.35    0.73
  -3   1  12   26.58    3.58
  -3   1  12   28.64    2.70
  -3   1  12   29.04    4.92
   3  -1 -12   25.06    1.78
  -2   1  12   19.50    2.57
  -2   1  12   16.01    2.75
  -2   1  12   22.48    4.41
   2  -1 -12   17.69    1.56
  -1   1  12    2.27    2.53
  -1   1  12    4.73    1.63
  -1   1  12    7.68    3.97
   1  -1 -12    2.51    0.79
   0   1  12   22.92    2.96
   0   1  12   18.92    3.40
   0   1  12   18.64    4.67
   0  -1 -12   24.97    1.78
   1   1  12   -1.64    2.90
   1   1  12   -0.20    1.68
   1   1  12    3.97    4.38
  -1  -1 -12    0.62    1.78
  -1  -1 -12    1.76    1.07
   2   1  12    4.52    5.20
   2   1  12   12.75    2.39
  -2  -1 -12   13.00    1.64
  -5   1  13   12.76    3.15
   5  -1 -13    8.27    1.42
  -4   1  13   15.55    2.23
  -4   1  13    8.18    2.74
  -4   1  13    9.95    4.85
   4  -1 -13   12.47    1.52
  -3   1  13   22.28    3.00
  -3   1  13   21.67    3.37
  -3   1  13   26.32    5.12
   3  -1 -13   21.02    1.94
  -2   1  13    0.59    1.65
  -2   1  13    1.67    4.27
  -2   1  13    3.71    2.68
   2  -1 -13   -0.91    0.81
  -1   1  13   18.91    3.51
  -1   1  13   19.90    5.20
  -1   1  13   23.86    3.13
   1  -1 -13   16.69    1.82
   0   1  13    1.29    4.65
   0   1  13    2.90    1.86
   0   1  13   -0.58    3.18
   0  -1 -13    0.94    1.15
   1   1  13    7.47    2.52
   1   1  13    2.91    5.26
  -3   1  14   -3.77    3.25
  -3   1  14   -4.26    5.46
  -3   1  14    4.61    2.07
   3  -1 -14    2.06    1.25
  -2   1  14   12.22    2.24
  -2   1  14    9.58    5.43
  -2   1  14    5.14    3.69
   2  -1 -14   10.50    1.59
  -1   1  14    9.54    2.37
  -1   1  14   12.85    5.70
  -1   1  14    7.58    3.68
  -1  -2  14    3.55    3.67
  -1  -2  14   10.29    2.44
  -1  -2  14   -0.83    4.85
   2   2 -14   -0.15    1.21
  -2  -2  14   -0.60    2.04
  -2  -2  14    2.45    3.30
  -2  -2  14    3.08    4.55
   3   2 -14   17.23    2.12
  -3  -2  14   17.99    2.76
  -3  -2  14   16.78    5.27
  -3  -2  14   17.64    3.96
  -1   2 -13    0.86    1.02
  -1   2 -13    1.50    1.86
   1  -2  13    3.79    2.32
   1  -2  13   -5.49    4.62
   1  -2  13   -2.90    3.41
   0   2 -13   20.49    1.91
   0  -2  13   20.70    4.56
   0  -2  13   23.84    4.04
   0  -2  13   24.65    3.38
   1   2 -13    2.19    0.90
  -1  -2  13    5.58    2.04
  -1  -2  13    3.90    4.09
  -1  -2  13   -2.45    3.09
   2   2 -13    9.13    1.29
  -2  -2  13   15.48    3.35
  -2  -2  13   13.83    2.18
  -2  -2  13   18.00    4.21
   3   2 -13    9.75    1.33
  -3  -2  13    9.24    2.97
  -3  -2  13    8.64    2.18
  -3  -2  13    6.96    4.19
   4   2 -13    8.51    1.52
  -4  -2  13    8.46    2.93
  -2   2 -12    1.86    1.81
  -2   2 -12    1.89    1.08
   2  -2  12    2.91    2.04
   2  -2  12   -4.11    4.44
  -1   2 -12   17.02    1.61
   1  -2  12   11.49    4.03
   1  -2  12   10.99    3.12
   1  -2  12   11.74    2.26
   0   2 -12   11.24    1.43
   0  -2  12   12.21    2.16
   0  -2  12    9.95    2.68
   0  -2  12    6.11    3.63
   1   2 -12    4.05    0.83
  -1  -2  12    4.55    1.65
  -1  -2  12    6.37    2.39
  -1  -2  12    6.79    3.28
   2   2 -12   27.09    1.82
  -2  -2  12   30.40    4.17
  -2  -2  12   36.46    5.59
  -2  -2  12   29.90    3.06
   3   2 -12    0.12    0.69
  -3  -2  12   -2.60    3.29
  -3  -2  12   -1.20    1.35
  -3  -2  12    0.71    2.24
   4   2 -12   29.98    1.98
  -4  -2  12   31.12    4.37
  -4  -2  12   26.84    2.76
   5   2 -12    6.43    1.30
  -5  -2  12    4.01    2.45
  -3   2 -11    4.92    1.94
  -3   2 -11    4.70    1.20
   3  -2  11    4.57    2.16
   3  -2  11   12.92    4.75
  -2   2 -11    6.81    1.79
  -2   2 -11    6.41    1.04
   2  -2  11    4.23    2.07
   2  -2  11    2.80    3.63
  -1   2 -11   29.90    1.77
   1  -2  11   33.11    5.44
   1  -2  11   25.40    3.98
   1  -2  11   21.52    2.88
   0   2 -11    2.11    0.68
   0  -2  11    3.25    2.30
   0  -2  11    0.91    1.37
   0  -2  11   -4.55    2.59
   1   2 -11   28.04    1.73
  -1  -2  11   28.13    3.59
  -1  -2  11   25.13    2.85
  -1  -2  11   32.01    4.64
  -1  -2  11   26.80    3.75
   2   2 -11    6.56    0.96
  -2  -2  11    9.83    1.61
  -2  -2  11    7.54    2.31
  -2  -2  11    5.22    2.03
  -2  -2  11    6.38    2.76
   3   2 -11   24.06    1.58
   3   2 -11   21.84    2.14
  -3  -2  11   22.48    2.29
  -3  -2  11   20.95    3.40
   4   2 -11   21.22    1.54
  -4  -2  11   20.94    2.88
  -4  -2  11   19.66    2.20
   5   2 -11    6.02    1.02
  -5  -2  11    8.43    2.28
   6   2 -11   24.84    2.37
  -6  -2  11   28.12    4.20
  -4   2 -10   10.06    1.55
  -4   2 -10    9.70    2.24
   4  -2  10   11.66    2.71
   4  -2  10    4.39    4.62
  -3   2 -10   -1.15    0.92
  -3   2 -10    0.18    1.54
   3  -2  10    5.93    3.86
   3  -2  10   -0.18    1.33
   3  -2  10    0.77    1.83
  -2   2 -10   29.49    2.63
  -2   2 -10   27.74    1.75
   2  -2  10   24.58    2.88
   2  -2  10   26.53    4.02
  -1   2 -10    7.15    0.89
   1  -2  10    7.23    1.61
   1  -2  10    5.20    2.18
   1  -2  10    7.45    2.92
   1  -2  10    4.14    2.58
   0   2 -10   31.64    1.72
   0  -2  10   30.65    4.03
   0  -2  10   30.33    2.69
   0  -2  10   36.61    3.48
   0  -2  10   28.51    3.63
   1   2 -10   30.19    1.66
  -1  -2  10   28.11    3.59
  -1  -2  10   30.38    2.38
  -1  -2  10   30.62    3.86
  -1  -2  10   25.95    3.43
   2   2 -10   11.00    1.11
   2   2 -10   11.75    1.78
  -2  -2  10   15.06    1.72
  -2  -2  10   17.11    2.51
  -2  -2  10   10.56    2.02
  -2  -2  10   12.96    2.80
   3   2 -10   58.37    2.63
   3   2 -10   55.80    2.87
  -3  -2  10   48.53    3.94
  -3  -2  10   62.20    3.03
  -3  -2  10   58.00    4.11
   4   2 -10    1.50    0.78
   4   2 -10    2.34    1.94
   4   2 -10    0.47    0.52
  -4  -2  10    3.01    1.00
  -4  -2  10    0.03    1.46
   5   2 -10   24.54    1.65
   5   2 -10   23.46    2.10
  -5  -2  10   19.92    3.21
   6   2 -10    4.58    1.75
   6   2 -10    1.90    0.91
  -6  -2  10    5.12    2.17
  -5   2  -9   11.04    2.55
   5  -2   9    5.43    2.63
   5  -2   9    0.79    4.86
   5  -2   9   10.55    2.60
  -4   2  -9    2.82    1.66
  -4   2  -9    3.14    1.26
   4  -2   9    4.91    1.80
   4  -2   9    3.87    3.85
   4  -2   9    4.03    2.10
  -3   2  -9   12.88    1.46
  -3   2  -9   11.59    1.85
  -3   2  -9    9.55    1.32
   3  -2   9    8.13    3.51
   3  -2   9   12.54    1.98
   3  -2   9   12.26    1.98
  -2   2  -9   14.49    1.30
  -2   2  -9   15.55    1.97
  -2   2  -9   15.71    1.42
   2  -2   9   13.04    3.03
   2  -2   9   15.33    1.46
   2  -2   9   15.10    2.35
  -1   2  -9   10.10    1.09
   1  -2   9    9.54    2.18
   1  -2   9   10.05    2.31
   1  -2   9   11.27    1.75
   1  -2   9    8.93    2.28
   0   2  -9   57.14    2.44
   0  -2   9   49.54    3.75
   0  -2   9   54.27    4.03
   0  -2   9   50.25    3.69
   0  -2   9   60.93    3.18
   1   2  -9    2.00    0.98
   1   2  -9    0.89    0.48
  -1  -2   9    2.19    0.93
  -1  -2   9    2.86    1.55
  -1  -2   9   -0.65    1.27
  -1  -2   9    0.55    1.58
   2   2  -9   62.98    2.96
   2   2  -9   60.59    2.63
  -2  -2   9   60.00    3.82
  -2  -2   9   61.54    3.02
  -2  -2   9   58.17    3.67
   3   2  -9   13.77    1.80
   3   2  -9   12.68    1.34
   3   2  -9   10.94    1.04
  -3  -2   9   13.30    2.11
  -3  -2   9   12.87    2.19
  -3  -2   9   13.59    1.44
   4   2  -9   41.94    2.25
   4   2  -9   43.99    2.16
   4   2  -9   43.39    3.08
  -4  -2   9   42.78    3.46
  -4  -2   9   48.03    3.46
  -4  -2   9   43.07    2.26
   5   2  -9   41.62    2.57
   5   2  -9   43.52    2.19
  -5  -2   9   41.93    3.51
  -5  -2   9   40.38    2.41
   6   2  -9    4.75    1.63
  -6  -2   9    7.66    2.06
   7   2  -9   21.96    2.29
   7   2  -9   22.85    3.31
  -7  -2   9   20.47    3.17
  -5   2  -8    8.62    2.09
   5  -2   8   12.14    4.67
   5  -2   8    7.98    2.19
   5  -2   8    6.72    2.54
  -4   2  -8    5.11    1.63
  -4   2  -8    3.03    1.11
   4  -2   8    3.64    1.75
   4  -2   8    3.80    3.32
   4  -2   8    2.21    1.44
  -3   2  -8   33.00    2.15
  -3   2  -8   31.30    1.86
  -3   2  -8   33.83    2.36
   3  -2   8   35.89    3.03
   3  -2   8   40.70    4.56
   3  -2   8   34.80    2.24
  -2   2  -8   -0.05    0.88
  -2   2  -8   -0.40    0.52
  -2   2  -8    1.46    1.84
  -2   2  -8    0.55    0.66
   2  -2   8    0.73    1.79
   2  -2   8    0.47    1.06
   2  -2   8    0.35    0.65
  -1   2  -8   43.62    1.91
  -1   2  -8   34.66    2.52
  -1   2  -8   37.85    3.01
   1  -2   8   37.35    3.06
   1  -2   8   41.58    3.31
   1  -2   8   37.07    2.51
   0   2  -8   12.80    0.99
   0   2  -8   12.75    1.48
   0   2  -8    8.50    1.41
   0  -2   8   10.88    1.73
   0  -2   8   11.69    1.77
   0  -2   8   14.46    1.50
   0  -2   8   11.02    1.88
   1   2  -8   45.24    2.82
   1   2  -8   46.06    2.04
   1   2  -8   43.19    2.40
  -1  -2   8   49.69    3.25
  -1  -2   8   48.37    3.10
  -1  -2   8   45.12    2.99
  -1  -2   8   45.13    2.45
   2   2  -8   56.90    3.24
   2   2  -8   65.54    2.71
   2   2  -8   68.85    2.97
  -2  -2   8   64.76    3.53
  -2  -2   8   64.60    2.97
  -2  -2   8   66.94    3.67
   3   2  -8   11.73    1.59
   3   2  -8    9.59    0.92
   3   2  -8    9.34    0.99
   3   2  -8    9.93    1.09
  -3  -2   8   13.67    1.87
  -3  -2   8   10.54    0.91
  -3  -2   8   11.21    1.77
  -3  -2   8    9.85    1.14
   4   2  -8  102.15    4.11
   4   2  -8   98.67    4.23
   4   2  -8  103.55    4.90
  -4  -2   8  101.52    4.20
  -4  -2   8  102.43    5.17
  -4  -2   8  108.88    5.25
   5   2  -8    7.84    1.05
   5   2  -8    8.58    1.73
   5   2  -8   11.19    1.65
  -5  -2   8    9.28    1.79
  -5  -2   8    9.41    2.05
  -5  -2   8    9.65    1.40
   6   2  -8   43.88    3.32
   6   2  -8   41.76    2.20
  -6  -2   8   42.22    3.55
   7   2  -8    9.29    1.28
   7   2  -8    8.27    2.01
  -7  -2   8   11.38    2.38
  -6   2  -7   11.90    2.25
   6  -2   7    8.73    2.84
   6  -2   7   11.67    2.59
   6  -2   7   15.97    4.72
  -5   2  -7    0.19    1.57
   5  -2   7   -1.21    3.48
   5  -2   7   -0.03    1.72
   5  -2   7    0.17    1.97
  -4   2  -7   19.27    2.05
  -4   2  -7   19.49    1.77
  -4   2  -7   13.69    2.08
   4  -2   7   19.98    2.78
   4  -2   7   15.57    3.00
   4  -2   7   17.02    2.18
  -3   2  -7   11.04    1.17
  -3   2  -7    6.55    2.17
  -3   2  -7   10.85    1.39
  -3   2  -7   13.80    1.52
   3  -2   7   11.03    1.50
   3  -2   7    9.55    2.38
   3  -2   7    9.34    1.70
  -2   2  -7   60.63    2.69
  -2   2  -7   57.85    3.73
  -2   2  -7   55.72    4.14
  -2   2  -7   67.82    3.00
  -2   2  -7   63.62    2.56
   2  -2   7   63.64    2.71
   2  -2   7   65.12    3.37
   2  -2   7   60.04    3.78
  -1   2  -7   51.27    3.25
  -1   2  -7   56.93    2.88
  -1   2  -7   58.19    2.33
   1  -2   7   53.49    3.40
   1  -2   7   59.36    2.98
   1  -2   7   57.69    3.33
   0   2  -7   18.67    1.45
   0   2  -7   16.56    1.01
   0   2  -7   17.46    1.78
   0  -2   7   20.30    2.09
   0  -2   7   18.51    1.53
   0  -2   7   19.48    1.97
   0  -2   7   17.48    1.88
   1   2  -7  159.38    5.94
   1   2  -7  148.78    6.25
   1   2  -7  149.30    5.62
  -1  -2   7  150.96    5.94
  -1  -2   7  151.63    6.48
   2   2  -7    2.30    0.46
   2   2  -7    2.27    0.77
   2   2  -7    1.41    0.90
   2   2  -7    4.24    0.74
  -2  -2   7    4.14    0.71
  -2  -2   7    3.39    1.03
   3   2  -7  132.91    5.58
   3   2  -7  128.14    5.02
   3   2  -7  120.22    5.43
   3   2  -7  130.94    4.99
   3   2  -7  138.45    4.94
  -3  -2   7  132.24    5.74
  -3  -2   7  136.00    4.99
  -3  -2   7  131.44    5.75
   4   2  -7   22.02    1.30
   4   2  -7   22.26    1.60
   4   2  -7   19.37    2.02
  -4  -2   7   18.05    2.01
  -4  -2   7   19.03    2.36
  -4  -2   7   20.79    1.60
   5   2  -7   23.66    2.00
   5   2  -7   19.26    1.34
   5   2  -7   25.82    2.75
  -5  -2   7   20.65    1.92
  -5  -2   7   22.40    2.49
  -5  -2   7   17.99    2.82
   6   2  -7   55.66    2.59
   6   2  -7   56.55    3.56
  -6  -2   7   51.06    3.66
   7   2  -7    2.27    0.82
   7   2  -7    2.36    1.88
  -7  -2   7    3.85    2.04
   6  -2   6    4.99    2.13
   6  -2   6    5.41    4.02
   6  -2   6    5.37    2.30
  -5   2  -6    8.16    1.59
  -5   2  -6    9.64    1.37
   5  -2   6   10.66    2.00
   5  -2   6    6.80    2.04
   5  -2   6   11.90    3.11
  -4   2  -6   12.49    2.60
  -4   2  -6   22.01    1.84
  -4   2  -6   15.97    1.89
  -4   2  -6   19.27    1.60
   4  -2   6   18.01    2.66
   4  -2   6   15.36    2.57
   4  -2   6   20.89    2.06
  -3   2  -6    6.65    0.86
  -3   2  -6    5.54    1.02
  -3   2  -6    6.18    1.74
  -3   2  -6    6.01    0.95
  -3   2  -6    6.70    2.05
   3  -2   6    3.11    1.61
   3  -2   6    8.18    1.47
   3  -2   6    5.82    1.00
  -2   2  -6   97.73    3.90
  -2   2  -6  104.35    4.07
  -2   2  -6   90.79    4.77
  -2   2  -6   98.66    3.69
  -2   2  -6   92.50    4.83
  -2   2  -6   99.29    4.32
   2  -2   6   97.50    4.74
   2  -2   6  103.66    4.49
   2  -2   6   99.89    3.91
  -1   2  -6    1.40    0.67
  -1   2  -6    1.16    0.32
  -1   2  -6    1.44    0.37
  -1   2  -6    0.95    1.20
  -1   2  -6    0.47    0.94
   1  -2   6    0.20    1.02
   1  -2   6    1.50    0.36
   1  -2   6    0.43    0.96
   1  -2   6    1.22    0.64
   0   2  -6  107.44    4.91
   0   2  -6  117.56    4.64
   0   2  -6  116.58    4.26
   0  -2   6  118.38    4.68
   0  -2   6  118.21    5.16
   0  -2   6  110.29    5.01
   1   2  -6   45.37    2.44
   1   2  -6   46.47    2.13
   1   2  -6   45.10    1.86
  -1  -2   6   46.58    2.14
  -1  -2   6   37.35    2.64
  -1  -2   6   42.42    2.54
   2   2  -6   67.43    2.66
   2   2  -6   68.80    3.05
   2   2  -6   64.13    2.57
   2   2  -6   60.69    2.58
   2   2  -6   64.21    3.02
  -2  -2   6   60.98    2.48
  -2  -2   6   68.88    3.25
  -2  -2   6   61.91    2.70
   3   2  -6   81.31    3.72
   3   2  -6   82.27    3.32
   3   2  -6   81.94    3.25
   3   2  -6   79.91    3.62
  -3  -2   6   81.68    3.31
  -3  -2   6   80.17    3.91
  -3  -2   6   83.12    3.75
  -3  -2   6   82.09    3.87
   4   2  -6   77.96    3.42
   4   2  -6   76.76    3.87
   4   2  -6   72.48    3.53
  -4  -2   6   80.56    4.05
  -4  -2   6   81.30    3.79
  -4  -2   6   76.73    3.81
  -4  -2   6   75.99    3.37
   5   2  -6   56.43    2.97
  -5  -2   6   51.27    3.67
  -5  -2   6   51.36    3.21
  -5  -2   6   52.28    3.11
  -5  -2   6   52.17    2.91
   6   2  -6    5.08    1.54
  -6  -2   6    6.38    1.53
  -6  -2   6    3.89    1.34
   7   2  -6   26.83    1.85
   7   2  -6   32.44    3.44
  -7  -2   6   30.82    3.27
  -7  -2   6   32.67    3.32
   7  -2   5    6.24    2.96
  -6   2  -5    3.98    1.63
   6  -2   5    5.99    3.65
   6  -2   5    4.13    1.85
   6  -2   5    5.01    2.20
  -5   2  -5   25.33    2.02
  -5   2  -5   27.42    2.20
   5  -2   5   23.79    3.14
   5  -2   5   20.48    2.92
   5  -2   5   22.33    3.80
  -4   2  -5    0.06    0.69
  -4   2  -5    0.55    0.93
  -4   2  -5    2.40    2.16
  -4   2  -5    1.79    1.77
  -4   2  -5    2.23    0.88
   4  -2   5    1.30    0.99
   4  -2   5    1.10    1.11
   4  -2   5    2.55    1.53
  -3   2  -5   82.85    4.47
  -3   2  -5   80.59    3.50
  -3   2  -5   83.61    3.16
  -3   2  -5   75.73    3.75
  -3   2  -5   85.86    3.50
  -3   2  -5   75.65    4.19
   3  -2   5   85.22    4.31
   3  -2   5   88.14    3.63
   3  -2   5   84.79    3.98
  -2   2  -5   19.64    1.00
  -2   2  -5   21.70    1.57
  -2   2  -5   17.54    1.98
  -2   2  -5   20.78    1.23
  -2   2  -5   19.65    2.20
  -2   2  -5   22.03    1.32
   2  -2   5   21.14    1.27
   2  -2   5   22.91    1.64
   2  -2   5   19.53    1.95
  -1   2  -5   43.68    1.77
  -1   2  -5   43.80    2.21
  -1   2  -5   47.96    2.66
  -1   2  -5   43.04    1.79
  -1   2  -5   44.78    2.65
   1  -2   5   47.71    1.85
   1  -2   5   43.78    2.54
   1  -2   5   42.37    2.26
   1  -2   5   43.10    2.53
   0   2  -5   71.01    3.04
   0   2  -5   72.19    2.73
   0   2  -5   70.55    3.38
   0  -2   5   72.40    3.10
   0  -2   5   67.32    3.34
   0  -2   5   68.54    3.45
   0  -2   5   85.88    3.81
   1   2  -5    8.43    0.80
   1   2  -5    9.04    0.63
   1   2  -5   10.37    1.15
  -1  -2   5    8.16    1.13
  -1  -2   5    9.38    1.00
  -1  -2   5    8.59    0.89
   2   2  -5  203.74    7.20
   2   2  -5  195.18    7.50
   2   2  -5  201.09    7.09
   2   2  -5  200.61    7.50
  -2  -2   5  190.22    7.48
  -2  -2   5  193.24    7.10
  -2  -2   5  200.94    7.67
  -2  -2   5  197.43    7.14
  -2  -2   5  195.52    7.66
   3   2  -5    3.82    0.77
   3   2  -5    3.99    0.70
   3   2  -5    4.00    0.92
  -3  -2   5    4.36    0.77
  -3  -2   5    3.81    0.90
  -3  -2   5    4.95    1.48
  -3  -2   5    3.94    0.80
   4   2  -5  154.48    6.01
   4   2  -5  143.65    5.91
  -4  -2   5  149.99    6.20
  -4  -2   5  146.91    5.86
  -4  -2   5  156.40    6.19
  -4  -2   5  146.15    6.33
   5   2  -5   28.90    2.53
   5   2  -5   23.43    2.11
  -5  -2   5   26.20    2.25
  -5  -2   5   22.82    2.76
  -5  -2   5   27.79    2.23
   6   2  -5    8.41    1.54
   6   2  -5    9.25    1.87
  -6  -2   5    9.62    1.64
  -6  -2   5    8.28    1.86
   7   2  -5   30.40    3.36
  -7  -2   5   28.46    3.24
  -7  -2   5   29.11    3.06
  -7   2  -4    2.35    1.99
   7  -2   4   -3.20    3.83
   7  -2   4    0.10    2.61
   7  -2   4    0.72    2.37
  -6   2  -4   20.65    2.61
   6  -2   4   15.77    3.32
   6  -2   4   23.51    3.10
   6  -2   4   15.80    2.69
  -5   2  -4    3.17    1.03
  -5   2  -4    2.26    1.06
   5  -2   4    4.37    1.50
   5  -2   4    2.66    0.93
   5  -2   4    5.43    1.46
   5  -2   4    3.08    1.95
  -4   2  -4   25.42    3.11
  -4   2  -4   25.42    2.71
  -4   2  -4   28.24    1.75
  -4   2  -4   23.96    2.07
  -4   2  -4   21.17    1.75
  -4   2  -4   25.61    1.50
   4  -2   4   25.54    2.54
   4  -2   4   26.50    1.96
   4  -2   4   21.84    1.42
   4  -2   4   26.67    2.18
  -3   2  -4   79.63    2.99
  -3   2  -4   75.54    4.04
  -3   2  -4   80.08    3.38
  -3   2  -4   77.31    3.91
  -3   2  -4   78.57    3.56
  -3   2  -4   78.79    3.26
   3  -2   4   79.48    3.96
   3  -2   4   81.62    3.73
   3  -2   4   75.44    3.38
  -2   2  -4   91.12    3.54
  -2   2  -4   87.73    3.77
  -2   2  -4   91.66    4.10
  -2   2  -4   86.84    4.04
  -2   2  -4   84.39    3.24
  -2   2  -4   89.19    3.51
   2  -2   4   87.23    3.54
   2  -2   4   90.03    3.87
   2  -2   4   93.40    4.07
  -1   2  -4  130.34    5.16
  -1   2  -4  128.06    4.60
  -1   2  -4  126.23    4.52
  -1   2  -4  124.96    4.93
  -1   2  -4  126.01    5.28
   1  -2   4  126.06    5.22
   1  -2   4  127.83    5.00
   1  -2   4  127.22    4.64
   1  -2   4  121.62    5.09
   0   2  -4    0.03    0.59
   0   2  -4    0.09    0.36
   0   2  -4    0.24    0.19
   0  -2   4    0.60    0.60
   0  -2   4   -0.33    0.56
   0  -2   4    0.25    0.44
   1   2  -4  121.48    4.63
   1   2  -4  117.46    4.46
   1   2  -4  110.98    4.27
   1   2  -4  112.54    4.12
  -1  -2   4  121.19    4.70
  -1  -2   4  120.67    4.52
  -1  -2   4  108.48    4.32
  -1  -2   4  107.91    4.45
  -1  -2   4  114.13    4.13
   2   2  -4  128.02    4.87
   2   2  -4  123.08    4.64
   2   2  -4  126.54    4.88
  -2  -2   4  123.27    4.91
  -2  -2   4  121.38    4.93
  -2  -2   4  121.24    4.60
  -2  -2   4  121.43    4.89
   3   2  -4   79.65    3.55
   3   2  -4   81.12    3.35
   3   2  -4   80.58    3.37
  -3  -2   4   79.15    3.68
  -3  -2   4   79.98    3.30
  -3  -2   4   78.91    3.57
  -3  -2   4   79.30    3.49
   4   2  -4   85.11    3.90
   4   2  -4   84.34    3.54
   4   2  -4   82.22    3.72
  -4  -2   4   80.62    4.03
  -4  -2   4   81.45    3.73
  -4  -2   4   80.03    3.56
  -4  -2   4   81.83    3.81
   5   2  -4    1.14    0.84
   5   2  -4    0.64    1.22
  -5  -2   4    0.49    1.55
  -5  -2   4    0.81    0.93
  -5  -2   4    0.02    0.88
   6   2  -4   41.34    3.43
   6   2  -4   43.63    3.09
  -6  -2   4   47.78    3.09
  -6  -2   4   47.19    3.19
   7   2  -4    2.30    1.61
  -7  -2   4    3.78    1.78
  -7  -2   4    1.89    1.77
  -7   2  -3    2.41    1.74
   7  -2   3    4.86    2.20
   7  -2   3   -1.74    3.48
   7  -2   3    1.59    2.50
  -6   2  -3    9.95    1.74
   6  -2   3   12.19    2.60
   6  -2   3   10.16    2.13
   6  -2   3   15.92    2.74
  -5   2  -3    5.23    1.35
  -5   2  -3    5.05    1.06
  -5   2  -3    5.49    2.33
  -5   2  -3    5.09    1.04
   5  -2   3    7.25    1.48
   5  -2   3    5.55    0.89
   5  -2   3    8.15    2.00
   5  -2   3    6.83    1.51
  -4   2  -3   58.01    2.59
  -4   2  -3   51.55    2.32
  -4   2  -3   54.72    2.84
  -4   2  -3   50.73    3.48
  -4   2  -3   54.76    2.68
   4  -2   3   52.67    3.20
   4  -2   3   53.62    2.95
   4  -2   3   59.42    2.85
   4  -2   3   50.92    2.39
  -3   2  -3    3.76    0.52
  -3   2  -3    4.98    0.87
  -3   2  -3    4.15    0.79
  -3   2  -3    3.20    1.21
  -3   2  -3    3.28    0.60
   3  -2   3    2.57    0.94
   3  -2   3    4.66    0.93
   3  -2   3    3.72    0.73
   3  -2   3    2.83    0.54
  -2   2  -3  190.20    7.38
  -2   2  -3  191.01    7.16
  -2   2  -3  204.00    7.62
  -2   2  -3  202.05    7.23
  -2   2  -3  206.41    7.64
   2  -2   3  194.16    7.57
   2  -2   3  196.67    7.48
   2  -2   3  191.88    7.23
  -1   2  -3  182.00    6.56
  -1   2  -3  179.19    6.47
  -1   2  -3  181.05    6.72
  -1   2  -3  185.12    6.95
  -1   2  -3  184.73    6.80
   1  -2   3  183.51    6.50
   1  -2   3  181.70    6.93
   1  -2   3  176.53    6.79
   1  -2   3  172.24    6.74
   0   2  -3    4.88    0.61
   0   2  -3    6.11    0.94
   0   2  -3    5.18    0.39
   0  -2   3    3.32    0.60
   0  -2   3    6.13    0.70
   0  -2   3    7.15    0.97
   1   2  -3  118.98    4.42
   1   2  -3  122.80    4.56
   1   2  -3  117.39    4.42
   1   2  -3  126.68    4.72
  -1  -2   3  122.04    4.65
  -1  -2   3  127.31    4.79
  -1  -2   3  122.19    4.42
  -1  -2   3  121.08    4.47
   2   2  -3   14.14    1.10
   2   2  -3   13.02    0.96
   2   2  -3   13.96    0.89
  -2  -2   3   11.38    1.12
  -2  -2   3   14.13    1.03
  -2  -2   3   16.37    1.12
  -2  -2   3   13.86    0.89
   3   2  -3  273.22    9.91
   3   2  -3  269.62    9.83
   3   2  -3  269.07   10.07
  -3  -2   3  272.92    9.96
  -3  -2   3  267.45    9.85
  -3  -2   3  273.86   10.19
  -3  -2   3  262.36    9.99
   4   2  -3    5.98    1.25
   4   2  -3    7.36    1.04
   4   2  -3    6.78    0.95
  -4  -2   3    7.05    1.11
  -4  -2   3    6.49    1.04
  -4  -2   3    5.38    1.30
  -4  -2   3    8.56    1.24
   5   2  -3   19.53    2.31
   5   2  -3   22.27    1.62
   5   2  -3   23.76    2.09
  -5  -2   3   23.96    1.84
  -5  -2   3   21.46    2.77
  -5  -2   3   21.28    2.15
   6   2  -3   24.75    3.06
   6   2  -3   27.81    2.52
  -6  -2   3   20.15    2.59
  -6  -2   3   24.56    2.28
   7   2  -3    9.88    1.83
  -7  -2   3   11.42    2.08
  -7  -2   3    9.49    1.99
  -7   2  -2   15.06    2.07
   7  -2   2   19.76    3.33
   7  -2   2   10.52    3.33
   7  -2   2   13.41    2.63
  -6   2  -2   -0.78    1.26
  -6   2  -2    0.77    1.16
  -6   2  -2    0.60    1.43
   6  -2   2    2.23    1.40
   6  -2   2    2.64    1.47
   6  -2   2    1.51    2.03
  -5   2  -2   49.17    2.76
  -5   2  -2   45.18    3.74
  -5   2  -2   47.10    2.48
  -5   2  -2   52.73    2.55
   5  -2   2   49.51    2.91
   5  -2   2   49.10    2.99
   5  -2   2   46.59    2.36
   5  -2   2   44.55    3.30
  -4   2  -2   28.14    1.80
  -4   2  -2   30.45    1.91
  -4   2  -2   29.25    1.66
  -4   2  -2   26.45    1.59
  -4   2  -2   27.98    2.55
   4  -2   2   29.54    2.29
   4  -2   2   27.94    1.55
   4  -2   2   30.52    2.03
   4  -2   2   29.83    1.88
  -3   2  -2   58.78    2.99
  -3   2  -2   53.30    2.36
  -3   2  -2   56.15    2.51
  -3   2  -2   54.53    2.58
   3  -2   2   54.58    2.52
   3  -2   2   53.92    2.66
   3  -2   2   52.50    2.30
   3  -2   2   54.81    2.79
  -2   2  -2  134.35    5.21
  -2   2  -2  140.24    5.34
  -2   2  -2  136.02    5.10
   2  -2   2  144.72    5.24
   2  -2   2  137.71    5.38
   2  -2   2  138.48    5.44
  -1   2  -2    3.76    0.46
  -1   2  -2    3.54    0.68
  -1   2  -2    3.47    0.61
  -1   2  -2    4.10    0.60
  -1   2  -2    4.50    0.47
   1  -2   2    3.86    0.48
   1  -2   2    3.28    0.61
   1  -2   2    4.21    0.63
   0   2  -2  565.08   20.62
   0   2  -2  586.34   20.60
   0  -2   2  589.61   20.65
   0  -2   2  624.12   20.90
   1   2  -2   55.18    2.26
   1   2  -2   54.01    2.16
  -1  -2   2   54.80    2.35
  -1  -2   2   56.69    2.16
  -1  -2   2   53.83    2.28
   2   2  -2  437.16   14.99
   2   2  -2  430.76   14.85
   2   2  -2  405.92   14.88
  -2  -2   2  391.41   14.84
  -2  -2   2  424.73   14.96
  -2  -2   2  429.81   14.91
   3   2  -2  106.02    4.35
   3   2  -2  110.22    4.53
   3   2  -2  111.59    4.21
  -3  -2   2  109.37    4.42
  -3  -2   2  108.69    4.60
  -3  -2   2  106.90    4.33
  -3  -2   2  105.34    4.26
   4   2  -2   65.03    3.24
   4   2  -2   64.03    2.73
   4   2  -2   61.82    3.04
  -4  -2   2   64.23    3.42
  -4  -2   2   59.87    2.96
  -4  -2   2   61.80    3.12
  -4  -2   2   62.57    2.84
   5   2  -2   82.90    4.43
   5   2  -2   84.29    3.68
   5   2  -2   91.34    4.35
  -5  -2   2   88.78    4.19
  -5  -2   2   90.67    3.92
  -5  -2   2   89.21    4.93
   6   2  -2   -0.72    1.02
   6   2  -2   -0.92    1.25
   6   2  -2   -0.83    1.99
  -6  -2   2   -0.13    1.17
  -6  -2   2    0.98    1.25
   7   2  -2   27.11    3.08
  -7  -2   2   23.82    3.02
  -7  -2   2   26.76    2.85
  -8   2  -1    4.96    2.18
   8  -2   1   11.14    2.52
  -7   2  -1   13.57    2.01
   7  -2   1   11.65    2.11
   7  -2   1   14.29    3.10
   7  -2   1   21.30    3.20
  -6   2  -1    8.68    1.29
  -6   2  -1   10.05    1.56
  -6   2  -1    8.40    2.93
  -6   2  -1    9.85    1.49
   6  -2   1    8.91    1.54
   6  -2   1   10.30    2.23
   6  -2   1   10.92    1.73
  -5   2  -1   35.86    3.38
  -5   2  -1   35.60    2.11
  -5   2  -1   37.37    2.33
  -5   2  -1   36.82    2.12
   5  -2   1   35.28    1.97
   5  -2   1   42.33    2.52
   5  -2   1   36.29    2.92
   5  -2   1   39.55    2.46
  -4   2  -1   25.73    1.48
  -4   2  -1   23.57    1.45
  -4   2  -1   24.99    1.65
  -4   2  -1   25.63    2.26
  -4   2  -1   23.45    1.66
   4  -2   1   23.77    1.40
   4  -2   1   24.27    1.70
   4  -2   1   25.95    2.04
   4  -2   1   23.83    1.74
  -3   2  -1  141.21    5.60
  -3   2  -1  135.34    5.29
  -3   2  -1  135.09    5.12
  -3   2  -1  132.28    5.25
   3  -2   1  131.41    5.26
   3  -2   1  135.82    5.50
   3  -2   1  138.33    5.08
   3  -2   1  132.86    5.34
  -2   2  -1    1.10    0.47
  -2   2  -1    1.17    0.37
  -2   2  -1    1.32    0.36
  -2   2  -1    1.52    0.61
   2  -2   1    1.33    0.52
   2  -2   1    1.57    0.44
   2  -2   1    1.16    0.31
   2  -2   1    1.39    0.59
  -1   2  -1  254.81    9.34
  -1   2  -1  260.73    9.27
  -1   2  -1  279.94    9.26
  -1   2  -1  252.75    9.18
   1  -2   1  250.57    9.16
   1  -2   1  265.45    9.29
   1  -2   1  250.79    9.35
   1  -2   1  271.79    9.27
   0   2  -1  166.56    5.83
   0   2  -1  147.13    5.68
   0   2  -1  161.20    5.81
   0  -2   1  153.90    5.82
   0  -2   1  162.71    5.80
   1   2  -1  335.23   11.70
   1   2  -1  339.30   11.73
   1   2  -1  327.07   11.65
  -1  -2   1  333.18   11.70
  -1  -2   1  323.75   11.72
  -1  -2   1  332.85   11.72
   2   2  -1  255.56    9.80
   2   2  -1  277.13    9.92
   2   2  -1  267.51    9.64
  -2  -2   1  284.63    9.72
  -2  -2   1  269.95    9.82
  -2  -2   1  277.80    9.82
   3   2  -1    1.07    0.49
   3   2  -1    0.59    0.57
   3   2  -1    0.82    0.39
  -3  -2   1    1.22    0.46
  -3  -2   1    1.42    0.59
  -3  -2   1    1.44    0.55
  -3  -2   1    0.55    0.75
   4   2  -1  103.84    4.49
   4   2  -1  101.82    4.67
   4   2  -1  106.29    4.12
  -4  -2   1  107.99    4.24
  -4  -2   1  106.48    4.51
  -4  -2   1  100.64    4.44
  -4  -2   1  104.00    4.92
   5   2  -1   14.89    2.31
   5   2  -1   10.99    1.18
   5   2  -1   14.35    1.98
  -5  -2   1   12.55    1.48
  -5  -2   1   14.72    2.53
  -5  -2   1   13.09    1.55
   6   2  -1   23.86    2.64
   6   2  -1   22.98    1.88
   6   2  -1   25.22    3.47
  -6  -2   1   30.50    2.39
  -6  -2   1   25.64    2.69
   7   2  -1   10.86    1.94
  -7  -2   1   12.98    2.16
  -7  -2   1    6.02    2.05
  -8   2   0    2.76    1.90
   8  -2   0    8.32    2.38
  -7   2   0   -1.09    1.56
  -7   2   0    3.14    1.51
   7  -2   0    1.60    2.40
   7  -2   0    0.12    1.45
   7  -2   0    0.57    1.58
  -6   2   0   57.68    3.17
  -6   2   0   56.43    3.16
  -6   2   0   52.17    4.54
  -6   2   0   53.16    2.96
   6  -2   0   54.88    3.12
   6  -2   0   62.53    3.59
   6  -2   0   57.62    3.84
  -5   2   0    3.71    0.82
  -5   2   0    1.66    1.57
  -5   2   0    3.26    0.81
  -5   2   0    3.10    0.83
  -5   2   0    3.42    0.95
   5  -2   0    1.91    1.20
   5  -2   0    2.61    0.74
   5  -2   0    4.49    1.05
   5  -2   0    3.85    0.98
  -4   2   0  102.80    4.67
  -4   2   0   98.97    4.11
  -4   2   0   98.73    4.00
  -4   2   0   94.60    3.83
  -4   2   0   93.55    4.12
   4  -2   0  101.45    4.23
   4  -2   0  102.74    4.16
   4  -2   0  102.14    4.48
   4  -2   0   94.09    3.92
  -3   2   0   45.25    2.15
  -3   2   0   45.75    1.99
  -3   2   0   44.54    2.11
  -3   2   0   42.99    2.43
   3  -2   0   45.64    2.15
   3  -2   0   43.11    2.30
   3  -2   0   42.97    2.11
   3  -2   0   44.46    1.96
  -2   2   0  135.57    5.12
  -2   2   0  139.96    5.24
  -2   2   0  136.78    5.02
  -2   2   0  132.93    5.14
   2  -2   0  132.61    5.13
   2  -2   0  136.40    5.18
   2  -2   0  139.64    5.24
   2  -2   0  137.68    5.00
  -1   2   0  419.92   14.39
  -1   2   0  384.50   14.24
  -1   2   0  419.41   14.30
  -1   2   0  399.34   14.38
   1  -2   0  408.33   14.39
   1  -2   0  403.72   14.23
   1  -2   0  418.35   14.41
   1  -2   0  414.93   14.31
   0   2   0   30.42    1.46
   0   2   0   31.96    1.18
   0   2   0   27.50    1.04
   0   2   0   23.89    1.11
   0  -2   0   25.30    1.13
   1   2   0  382.34   14.43
   1   2   0  432.91   14.63
   1   2   0  422.84   14.37
   1   2   0  406.79   14.59
  -1  -2   0  438.01   14.54
  -1  -2   0  404.33   14.43
  -1  -2   0  412.53   14.58
   2   2   0    4.92    0.40
   2   2   0    3.49    0.52
   2   2   0    5.67    0.86
   2   2   0    4.92    0.65
  -2  -2   0    5.09    0.71
  -2  -2   0    5.70    0.66
  -2  -2   0    5.04    0.52
  -2  -2   0    5.36    0.84
  -2  -2   0    4.77    0.50
   3   2   0   44.39    2.20
   3   2   0   45.13    1.88
   3   2   0   44.87    2.38
   3   2   0   42.77    1.97
  -3  -2   0   46.57    1.97
  -3  -2   0   45.26    2.52
  -3  -2   0   44.67    2.19
  -3  -2   0   43.23    1.92
  -3  -2   0   43.53    2.22
   4   2   0   57.55    2.81
   4   2   0   54.38    2.32
   4   2   0   53.27    3.08
   4   2   0   53.56    2.42
  -4  -2   0   48.88    2.35
  -4  -2   0   50.30    2.73
  -4  -2   0   55.46    2.79
  -4  -2   0   55.70    2.43
  -4  -2   0   54.47    3.31
   5   2   0   23.62    2.35
   5   2   0   15.80    2.40
   5   2   0   15.64    1.46
   5   2   0   17.10    1.26
  -5  -2   0   16.25    1.56
  -5  -2   0   22.16    2.12
  -5  -2   0   19.14    3.19
  -5  -2   0   17.91    1.62
   6   2   0   35.69    3.02
   6   2   0   35.21    2.32
   6   2   0   41.71    4.11
   6   2   0   34.59    2.13
  -6  -2   0   41.94    3.07
  -6  -2   0   37.70    2.66
   7   2   0   -1.45    1.76
  -7  -2   0    0.14    1.83
  -7  -2   0   -0.44    1.94
  -8   2   1    0.78    1.90
   8  -2  -1   -1.05    1.96
  -7   2   1   20.19    2.62
  -7   2   1   28.36    2.62
   7  -2  -1   27.04    2.47
   7  -2  -1   31.68    4.02
   7  -2  -1   29.05    2.96
  -6   2   1   15.26    1.86
  -6   2   1   18.07    1.94
  -6   2   1   18.29    1.92
  -6   2   1   13.12    2.77
   6  -2  -1   14.93    2.26
   6  -2  -1   21.10    2.37
   6  -2  -1   14.42    1.72
  -5   2   1   47.37    2.47
  -5   2   1   46.30    3.41
  -5   2   1   43.04    2.55
  -5   2   1   48.91    2.44
  -5   2   1   45.90    2.31
   5  -2  -1   47.15    2.72
   5  -2  -1   48.30    2.47
   5  -2  -1   43.53    2.29
   5  -2  -1   47.34    3.05
  -4   2   1   57.82    2.47
  -4   2   1   58.27    2.61
  -4   2   1   58.68    2.68
  -4   2   1   55.01    2.67
  -4   2   1   54.22    3.12
   4  -2  -1   57.37    2.64
   4  -2  -1   58.78    3.01
   4  -2  -1   57.06    2.53
   4  -2  -1   56.27    2.76
  -3   2   1    1.21    0.41
  -3   2   1    0.49    0.46
  -3   2   1    0.78    0.66
   3  -2  -1    1.07    0.39
   3  -2  -1   -0.10    0.49
   3  -2  -1    1.34    0.71
   3  -2  -1    0.27    0.19
   3  -2  -1    0.69    0.41
  -2   2   1  301.17   10.34
  -2   2   1  298.15   10.23
  -2   2   1  294.82   10.42
  -2   2   1  289.92   10.32
   2  -2  -1  240.61   10.37
   2  -2  -1  293.34   10.37
   2  -2  -1  294.96   10.22
  -1   2   1   21.40    0.97
  -1   2   1   22.12    1.13
  -1   2   1   22.86    1.17
  -1   2   1   22.90    1.02
   1  -2  -1   20.98    0.96
   1  -2  -1   23.37    1.19
   1  -2  -1   22.19    1.17
   1  -2  -1   22.65    1.02
   0   2   1  181.79    6.87
   0   2   1  174.08    6.64
   0   2   1  200.25    6.70
   0   2   1  192.99    6.69
   0   2   1  180.43    6.57
   0  -2  -1  173.39    6.55
   1   2   1   71.86    2.96
   1   2   1   70.01    2.78
   1   2   1   72.92    2.87
  -1  -2  -1   76.02    3.06
  -1  -2  -1   71.43    2.86
  -1  -2  -1   68.07    2.76
   2   2   1  166.90    5.80
   2   2   1  157.51    6.00
   2   2   1  168.35    6.39
   2   2   1  151.78    6.14
  -2  -2  -1  174.05    6.49
  -2  -2  -1  158.53    6.17
  -2  -2  -1  164.56    5.82
  -2  -2  -1  166.88    6.02
  -2  -2  -1  164.65    6.03
   3   2   1  156.73    5.53
   3   2   1  152.52    5.74
   3   2   1  142.59    6.19
   3   2   1  152.92    5.97
  -3  -2  -1  146.19    5.69
  -3  -2  -1  158.59    5.61
  -3  -2  -1  151.95    5.81
  -3  -2  -1  157.77    6.39
  -3  -2  -1  150.72    5.97
   4   2   1    0.74    1.15
   4   2   1    0.22    0.42
   4   2   1    1.27    0.75
   4   2   1    0.43    0.63
  -4  -2  -1   -0.53    0.77
  -4  -2  -1   -0.19    0.82
  -4  -2  -1    0.06    1.39
  -4  -2  -1    0.80    0.67
  -4  -2  -1    0.48    0.50
   5   2   1   55.38    2.87
   5   2   1   61.45    3.39
   5   2   1   56.93    2.48
   5   2   1   51.88    4.04
  -5  -2  -1   51.33    4.71
  -5  -2  -1   56.44    2.86
  -5  -2  -1   52.61    3.06
  -5  -2  -1   61.07    2.77
   6   2   1    8.16    2.31
   6   2   1    5.63    1.33
   6   2   1    5.11    1.54
  -6  -2  -1    4.25    1.36
  -6  -2  -1    7.56    1.68
   7   2   1    9.04    2.08
  -7  -2  -1   10.47    2.35
  -8   2   2    3.80    2.01
   8  -2  -2    5.35    2.22
  -7   2   2   24.63    2.62
  -7   2   2   12.50    3.44
  -7   2   2   24.37    1.87
   7  -2  -2   20.90    2.73
   7  -2  -2   23.09    1.51
   7  -2  -2   17.14    2.91
  -6   2   2   10.37    1.57
  -6   2   2    7.73    1.23
  -6   2   2    8.99    1.17
  -6   2   2    7.36    2.35
   6  -2  -2    7.66    0.95
   6  -2  -2    9.98    1.73
   6  -2  -2    8.29    1.91
  -5   2   2   75.67    4.25
  -5   2   2   76.62    3.44
  -5   2   2   77.91    3.15
  -5   2   2   77.53    3.47
  -5   2   2   72.16    3.56
   5  -2  -2   73.09    3.36
   5  -2  -2   79.87    4.06
   5  -2  -2   75.52    2.94
   5  -2  -2   78.19    3.68
  -4   2   2    3.56    0.77
  -4   2   2    3.25    1.08
  -4   2   2    4.72    0.80
  -4   2   2    3.90    0.65
  -4   2   2    3.40    0.67
   4  -2  -2    5.34    0.84
   4  -2  -2    4.32    0.68
   4  -2  -2    4.43    0.52
   4  -2  -2    5.54    1.08
  -3   2   2   52.11    2.54
  -3   2   2   45.63    2.19
  -3   2   2   49.35    2.17
  -3   2   2   48.78    2.06
  -3   2   2   47.24    2.22
   3  -2  -2   48.18    2.28
   3  -2  -2   49.71    2.16
   3  -2  -2   47.76    1.86
   3  -2  -2   50.49    2.56
  -2   2   2  233.78    8.70
  -2   2   2  234.98    8.57
  -2   2   2  244.90    8.44
  -2   2   2  230.07    8.48
   2  -2  -2  234.17    8.43
   2  -2  -2  240.16    8.63
   2  -2  -2  228.44    8.46
   2  -2  -2  229.52    8.26
   2  -2  -2  249.23    8.77
  -1   2   2  107.96    3.99
  -1   2   2  110.09    4.18
  -1   2   2  111.68    4.21
   1  -2  -2  102.60    3.88
   1  -2  -2  113.52    4.25
   1  -2  -2  115.02    4.24
   1  -2  -2  102.07    4.01
   1  -2  -2  106.51    3.96
   0   2   2  137.32    5.14
   0   2   2  138.99    5.15
   0   2   2  129.37    4.92
   0   2   2  130.17    5.19
   0   2   2  125.36    4.71
   0   2   2  140.62    4.95
   0  -2  -2  124.36    4.74
   0  -2  -2  128.75    4.69
   0  -2  -2  131.27    4.90
   0  -2  -2  141.68    5.23
   1   2   2   -0.06    0.29
   1   2   2    0.43    0.52
   1   2   2   -0.06    0.37
  -1  -2  -2   -0.41    0.32
  -1  -2  -2   -0.35    0.24
  -1  -2  -2    0.39    0.37
  -1  -2  -2    0.45    0.58
   2   2   2  203.51    7.90
   2   2   2  206.02    7.20
   2   2   2  202.41    7.62
   2   2   2  195.33    7.50
  -2  -2  -2  207.80    7.44
  -2  -2  -2  208.27    7.53
  -2  -2  -2  214.59    8.05
  -2  -2  -2  200.36    7.63
   3   2   2   26.36    1.59
   3   2   2   28.96    1.72
   3   2   2   31.04    2.25
   3   2   2   27.62    1.23
  -3  -2  -2   26.84    1.63
  -3  -2  -2   31.24    2.43
  -3  -2  -2   28.84    1.38
  -3  -2  -2   28.36    1.65
  -3  -2  -2   27.30    1.75
   4   2   2   56.99    2.92
   4   2   2   52.33    3.69
   4   2   2   55.39    2.74
   4   2   2   50.53    2.22
  -4  -2  -2   55.87    2.39
  -4  -2  -2   53.14    2.66
  -4  -2  -2   55.36    2.72
  -4  -2  -2   53.47    3.93
   5   2   2   26.39    2.39
   5   2   2   21.35    2.09
   5   2   2   18.41    2.86
   5   2   2   20.83    1.37
  -5  -2  -2   25.62    1.75
  -5  -2  -2   25.04    2.14
  -5  -2  -2   27.13    2.28
  -5  -2  -2   27.84    4.27
   6   2   2    0.76    1.56
   6   2   2    4.03    1.53
  -6  -2  -2    2.10    1.39
  -6  -2  -2    2.36    1.57
   7   2   2   21.05    3.56
  -7  -2  -2   16.14    2.86
  -8   2   3   14.59    2.43
   8  -2  -3   18.31    2.74
   8  -2  -3   18.97    1.50
  -7   2   3   -1.68    3.01
  -7   2   3    3.13    0.94
  -7   2   3    1.80    1.54
   7  -2  -3    3.04    1.56
   7  -2  -3   -0.19    2.21
   7  -2  -3    1.08    0.66
  -6   2   3   33.99    2.33
  -6   2   3   31.48    3.79
  -6   2   3   35.96    1.85
  -6   2   3   36.86    2.61
   6  -2  -3   36.73    3.21
   6  -2  -3   36.80    2.87
   6  -2  -3   35.89    1.76
  -5   2   3   14.28    1.50
  -5   2   3   15.28    1.05
  -5   2   3   14.41    1.43
  -5   2   3   13.98    1.48
  -5   2   3   14.26    2.38
   5  -2  -3   14.52    0.97
   5  -2  -3   14.42    1.35
   5  -2  -3   17.77    2.04
   5  -2  -3   14.80    1.56
  -4   2   3   70.65    3.23
  -4   2   3   77.15    3.74
  -4   2   3   73.09    2.90
  -4   2   3   71.54    3.11
  -4   2   3   74.33    3.22
   4  -2  -3   70.64    3.10
   4  -2  -3   70.95    2.75
   4  -2  -3   75.27    3.60
   4  -2  -3   68.05    3.28
  -3   2   3  445.79   16.07
  -3   2   3  458.98   16.39
  -3   2   3  443.36   16.03
  -3   2   3  446.27   15.86
  -3   2   3  451.50   16.07
   3  -2  -3  441.08   16.15
   3  -2  -3  459.64   15.72
   3  -2  -3  450.89   16.37
   3  -2  -3  458.12   16.03
  -2   2   3    4.22    0.56
  -2   2   3    5.93    0.91
  -2   2   3    5.22    0.63
  -2   2   3    3.97    0.64
   2  -2  -3    5.43    0.41
   2  -2  -3    4.27    0.59
   2  -2  -3    3.12    0.95
   2  -2  -3    5.05    0.74
   2  -2  -3    5.02    0.51
  -1   2   3  312.39   11.18
  -1   2   3  307.01   11.12
  -1   2   3  328.92   11.28
  -1   2   3  312.84   11.38
   1  -2  -3  309.81   11.08
   1  -2  -3  303.29   10.96
   1  -2  -3  308.49   11.15
   1  -2  -3  324.43   11.44
   0   2   3   20.51    1.50
   0   2   3   18.79    0.97
   0   2   3   17.60    1.11
   0   2   3   21.34    1.52
   0   2   3   18.11    1.06
   0   2   3   17.87    1.37
   0  -2  -3   20.45    1.54
   0  -2  -3   18.67    0.89
   0  -2  -3   18.73    0.89
   0  -2  -3   19.78    1.15
   1   2   3   65.64    2.93
   1   2   3   72.17    3.31
   1   2   3   67.38    2.90
  -1  -2  -3   73.74    3.04
  -1  -2  -3   70.98    2.76
  -1  -2  -3   74.91    3.00
  -1  -2  -3   77.69    3.45
   2   2   3  102.56    4.60
   2   2   3   97.25    4.09
   2   2   3   97.92    4.11
  -2  -2  -3   99.38    3.94
  -2  -2  -3  103.43    4.14
  -2  -2  -3  107.82    4.76
  -2  -2  -3  103.74    4.20
  -2  -2  -3  111.11    3.76
  -2  -2  -3   99.34    3.98
   3   2   3   22.73    1.55
   3   2   3   24.31    1.64
   3   2   3   24.45    2.50
  -3  -2  -3   21.00    2.65
  -3  -2  -3   23.38    1.59
  -3  -2  -3   21.77    1.71
  -3  -2  -3   23.19    1.50
  -3  -2  -3   23.93    1.68
  -3  -2  -3   25.53    1.26
   4   2   3   65.32    3.28
   4   2   3   55.32    3.63
   4   2   3   64.69    3.18
  -4  -2  -3   64.22    2.67
  -4  -2  -3   62.77    2.97
  -4  -2  -3   57.99    4.59
  -4  -2  -3   60.57    3.06
   5   2   3   -0.36    1.82
   5   2   3    0.15    1.25
   5   2   3    0.15    0.63
   5   2   3   -1.59    1.11
  -5  -2  -3    1.23    1.30
  -5  -2  -3    1.12    1.02
  -5  -2  -3    0.46    2.98
  -5  -2  -3    0.31    1.02
   6   2   3   14.96    2.28
   6   2   3   16.45    2.83
  -6  -2  -3   16.34    2.02
  -8   2   4    8.08    2.20
   8  -2  -4   11.00    2.34
   8  -2  -4    8.38    1.02
  -7   2   4    3.88    2.82
  -7   2   4    8.33    1.80
   7  -2  -4    7.76    0.88
   7  -2  -4    5.66    2.42
   7  -2  -4    9.24    1.78
  -6   2   4   38.80    3.91
  -6   2   4   37.56    2.43
  -6   2   4   36.01    1.82
  -6   2   4   31.27    2.57
   6  -2  -4   37.98    1.77
   6  -2  -4   34.74    2.83
   6  -2  -4   33.27    3.14
  -5   2   4   10.87    1.28
  -5   2   4   12.07    1.93
  -5   2   4    9.48    0.90
  -5   2   4    9.14    1.29
  -5   2   4    8.00    1.38
   5  -2  -4   12.29    1.61
   5  -2  -4    8.52    1.32
   5  -2  -4    8.43    0.84
   5  -2  -4    8.54    1.64
  -4   2   4  142.72    5.29
  -4   2   4  140.18    6.07
  -4   2   4  142.04    5.63
  -4   2   4  141.87    5.52
  -4   2   4  142.82    5.61
   4  -2  -4  143.49    5.72
   4  -2  -4  138.36    5.99
   4  -2  -4  140.56    5.16
   4  -2  -4  136.82    5.53
  -3   2   4   98.69    4.28
  -3   2   4   97.70    3.72
  -3   2   4   96.83    3.93
  -3   2   4   96.42    3.86
   3  -2  -4   95.25    3.84
   3  -2  -4   90.69    4.23
   3  -2  -4   96.04    3.95
   3  -2  -4   95.17    3.53
   3  -2  -4   87.94    3.67
  -2   2   4  306.62   11.13
  -2   2   4  313.48   11.46
  -2   2   4  295.92   11.17
  -2   2   4  312.34   11.12
   2  -2  -4  310.96   10.89
   2  -2  -4  318.21   11.52
   2  -2  -4  308.78   11.13
   2  -2  -4  311.12   11.29
  -1   2   4  121.57    5.11
  -1   2   4  116.85    4.49
  -1   2   4  112.36    4.51
  -1   2   4  123.11    4.85
  -1   2   4  115.89    4.55
   1  -2  -4  122.93    4.92
   1  -2  -4  113.48    4.41
   1  -2  -4  113.71    4.50
   1  -2  -4  118.17    4.72
   1  -2  -4  112.98    4.26
   0   2   4   24.62    1.93
   0   2   4   24.12    1.78
   0   2   4   22.69    1.42
   0   2   4   23.50    1.36
   0   2   4   22.03    1.23
   0   2   4   22.04    1.57
   0  -2  -4   23.96    1.93
   0  -2  -4   22.84    1.15
   0  -2  -4   23.90    1.38
   0  -2  -4   23.11    1.11
   1   2   4  125.45    4.94
   1   2   4  130.63    5.46
   1   2   4  125.80    4.83
   1   2   4  118.60    4.82
  -1  -2  -4  131.82    4.74
  -1  -2  -4  122.59    4.97
  -1  -2  -4  135.65    5.58
  -1  -2  -4  124.55    4.93
  -1  -2  -4  122.39    4.67
   2   2   4    0.06    0.51
   2   2   4   -0.43    1.12
   2   2   4    0.25    0.41
  -2  -2  -4    1.15    1.21
  -2  -2  -4   -0.05    0.62
  -2  -2  -4    0.27    0.42
  -2  -2  -4    0.33    0.43
  -2  -2  -4    0.55    0.65
  -2  -2  -4    0.37    0.58
   3   2   4   99.72    5.00
   3   2   4  104.86    4.40
   3   2   4  104.98    4.38
  -3  -2  -4   95.56    4.40
  -3  -2  -4  101.40    5.56
  -3  -2  -4  105.14    4.47
  -3  -2  -4  106.53    3.91
  -3  -2  -4  103.21    4.38
  -3  -2  -4   95.95    4.12
   4   2   4    9.29    1.45
   4   2   4    6.41    1.75
   4   2   4   11.34    1.64
  -4  -2  -4   10.52    1.16
  -4  -2  -4    8.28    2.69
  -4  -2  -4    9.33    1.22
  -4  -2  -4    6.91    1.43
  -4  -2  -4   10.44    1.88
   5   2   4   11.05    1.89
   5   2   4   18.34    2.64
   5   2   4   11.04    2.36
  -5  -2  -4   11.40    1.45
  -5  -2  -4    9.46    1.35
   6   2   4   10.57    2.26
   6   2   4   12.28    2.32
  -6  -2  -4   13.21    2.18
  -8   2   5   -0.22    1.93
   8  -2  -5    4.96    2.11
   8  -2  -5   -1.20    0.73
  -7   2   5   23.75    2.82
   7  -2  -5   31.06    1.71
   7  -2  -5   31.06    2.90
   7  -2  -5   34.97    4.00
  -6   2   5    4.92    1.41
  -6   2   5    6.18    2.41
  -6   2   5    3.76    0.76
  -6   2   5    4.30    1.21
   6  -2  -5    5.10    2.01
   6  -2  -5    4.80    0.73
   6  -2  -5    4.81    1.46
  -5   2   5   67.68    3.41
  -5   2   5   74.44    4.36
  -5   2   5   80.60    3.65
  -5   2   5   74.05    3.05
  -5   2   5   70.64    3.34
   5  -2  -5   72.19    3.60
   5  -2  -5   73.99    2.95
   5  -2  -5   69.14    3.92
  -4   2   5   37.62    2.03
  -4   2   5   33.08    2.75
  -4   2   5   36.92    2.15
  -4   2   5   35.56    1.78
   4  -2  -5   36.79    2.12
   4  -2  -5   36.92    2.52
   4  -2  -5   36.73    1.65
   4  -2  -5   36.59    1.99
   4  -2  -5   35.70    1.73
  -3   2   5   44.38    2.76
  -3   2   5   42.38    2.12
  -3   2   5   45.78    2.10
  -3   2   5   44.07    2.24
   3  -2  -5   44.75    2.66
   3  -2  -5   43.98    2.01
   3  -2  -5   43.98    2.18
   3  -2  -5   45.45    2.25
   3  -2  -5   46.11    1.88
  -2   2   5  243.71    9.14
  -2   2   5  233.89    8.78
  -2   2   5  246.10    8.72
  -2   2   5  229.01    8.63
   2  -2  -5  242.02    8.45
   2  -2  -5  242.18    8.72
   2  -2  -5  231.82    8.81
   2  -2  -5  237.02    9.14
   2  -2  -5  224.58    8.63
  -1   2   5   13.48    1.60
  -1   2   5   13.01    1.08
  -1   2   5   11.24    0.92
  -1   2   5    9.75    1.63
  -1   2   5   11.13    1.01
   1  -2  -5   11.23    1.01
   1  -2  -5   12.36    0.77
   1  -2  -5   11.45    1.18
   1  -2  -5   11.91    0.93
   1  -2  -5   11.64    1.53
   0   2   5  186.43    7.02
   0   2   5  183.29    7.01
   0   2   5  182.74    6.79
   0   2   5  174.80    7.19
   0   2   5  190.14    7.68
   0  -2  -5  186.71    6.82
   0  -2  -5  181.87    7.01
   0  -2  -5  187.25    6.69
   0  -2  -5  192.82    7.77
   1   2   5   40.55    2.12
   1   2   5   37.65    2.75
   1   2   5   38.88    1.87
   1   2   5   38.19    2.06
  -1  -2  -5   38.33    2.04
  -1  -2  -5   41.50    1.91
  -1  -2  -5   36.78    2.10
  -1  -2  -5   40.36    2.95
  -1  -2  -5   38.87    1.77
   2   2   5   47.61    3.11
   2   2   5   48.27    2.51
   2   2   5   48.46    2.36
  -2  -2  -5   45.72    2.18
  -2  -2  -5   46.02    2.42
  -2  -2  -5   47.56    3.59
  -2  -2  -5   47.80    2.48
  -2  -2  -5   46.87    2.52
  -2  -2  -5   50.81    2.01
   3   2   5   48.99    2.70
   3   2   5   48.59    3.35
   3   2   5   53.36    2.69
  -3  -2  -5   42.07    3.97
  -3  -2  -5   44.80    2.78
  -3  -2  -5   48.08    2.78
  -3  -2  -5   43.98    2.92
  -3  -2  -5   50.03    2.14
  -3  -2  -5   47.91    2.36
   4   2   5    9.44    1.74
   4   2   5    8.54    1.99
   4   2   5    8.37    1.66
  -4  -2  -5    8.28    1.27
  -4  -2  -5    8.18    1.15
  -4  -2  -5    6.25    1.89
   5   2   5   15.23    2.85
   5   2   5   19.18    3.04
   5   2   5   24.19    3.09
  -5  -2  -5   14.82    1.77
  -5  -2  -5   18.98    1.94
   6   2   5    4.40    2.36
   6   2   5    1.65    2.24
  -6  -2  -5    0.27    2.08
  -8   2   6   13.69    2.31
   8  -2  -6   15.56    1.54
   8  -2  -6   12.42    2.48
  -7   2   6   15.79    2.14
   7  -2  -6   19.25    3.07
   7  -2  -6   15.44    2.18
   7  -2  -6   16.01    1.35
  -6   2   6   15.80    2.93
  -6   2   6   11.59    1.86
  -6   2   6   10.74    1.32
   6  -2  -6   11.88    1.05
   6  -2  -6   14.23    2.03
   6  -2  -6   11.79    2.28
  -5   2   6   64.18    3.31
  -5   2   6   62.51    3.13
  -5   2   6   60.31    3.11
  -5   2   6   65.34    4.22
  -5   2   6   62.63    2.76
   5  -2  -6   61.69    3.28
   5  -2  -6   58.28    3.70
   5  -2  -6   66.03    2.66
  -4   2   6    5.99    1.56
  -4   2   6    3.81    0.82
  -4   2   6    3.65    0.79
  -4   2   6    3.43    0.83
   4  -2  -6    5.86    1.45
   4  -2  -6    5.07    1.00
   4  -2  -6    3.43    0.84
   4  -2  -6    3.40    0.55
   4  -2  -6    3.95    0.69
  -3   2   6  109.74    5.15
  -3   2   6  115.13    4.74
  -3   2   6  110.36    4.46
  -3   2   6  118.82    4.54
   3  -2  -6  111.11    4.43
   3  -2  -6  116.86    5.13
   3  -2  -6  114.52    4.69
   3  -2  -6  111.58    4.61
   3  -2  -6  109.75    4.26
  -2   2   6   29.62    1.72
  -2   2   6   25.88    1.54
  -2   2   6   29.79    1.74
  -2   2   6   30.65    2.41
   2  -2  -6   28.97    1.65
   2  -2  -6   29.14    1.63
   2  -2  -6   31.15    2.21
   2  -2  -6   28.55    1.74
   2  -2  -6   29.67    1.40
  -1   2   6   96.75    3.94
  -1   2   6   97.28    3.90
  -1   2   6   75.68    4.36
  -1   2   6   88.73    4.55
  -1   2   6   92.29    3.67
  -1   2   6   93.61    3.79
   1  -2  -6   92.93    3.78
   1  -2  -6   93.17    3.86
   1  -2  -6   97.16    3.58
   0   2   6   94.20    4.03
   0   2   6   93.91    4.66
   0   2   6   90.26    4.16
   0   2   6   91.30    4.59
   0   2   6   87.67    3.63
   0   2   6  100.22    4.00
   0  -2  -6   91.81    3.60
   0  -2  -6   95.06    3.79
   0  -2  -6   92.37    3.97
   1   2   6   28.58    2.46
   1   2   6   26.30    1.79
   1   2   6   26.62    1.81
   1   2   6   28.37    1.57
  -1  -2  -6   30.25    1.76
  -1  -2  -6   26.93    3.04
  -1  -2  -6   28.45    1.89
  -1  -2  -6   27.40    1.49
  -1  -2  -6   27.31    1.80
   2   2   6   82.27    3.50
   2   2   6   76.29    3.66
   2   2   6   77.76    4.30
  -2  -2  -6   82.41    3.29
  -2  -2  -6   77.34    3.07
  -2  -2  -6   77.08    3.57
  -2  -2  -6   72.05    4.81
  -2  -2  -6   76.06    3.55
  -2  -2  -6   75.91    3.76
   3   2   6    0.60    0.99
   3   2   6    1.21    0.95
   3   2   6   -0.37    1.68
  -3  -2  -6    1.88    0.67
  -3  -2  -6    1.23    2.59
  -3  -2  -6    1.53    1.49
  -3  -2  -6    0.94    0.69
  -3  -2  -6    0.75    1.13
   4   2   6   24.08    2.82
   4   2   6   23.15    3.68
   4   2   6   25.75    2.74
  -4  -2  -6   15.13    3.61
  -4  -2  -6   20.83    1.72
  -4  -2  -6   21.99    1.97
   5   2   6    7.22    2.04
   5   2   6    5.16    1.98
  -5  -2  -6    1.71    1.45
  -8   2   7   10.55    2.10
   8  -2  -7   11.92    2.52
   8  -2  -7   11.92    1.23
  -7   2   7   -0.39    1.43
   7  -2  -7   -0.14    0.68
   7  -2  -7   -0.26    1.58
  -6   2   7   58.61    3.27
  -6   2   7   68.13    5.11
  -6   2   7   65.06    3.63
   6  -2  -7   58.35    4.31
   6  -2  -7   64.67    2.80
   6  -2  -7   69.81    3.99
  -5   2   7   12.03    1.29
  -5   2   7    8.40    1.42
  -5   2   7   11.76    1.73
  -5   2   7   12.57    2.41
  -5   2   7   12.19    1.73
   5  -2  -7   12.85    1.77
   5  -2  -7   12.61    1.03
   5  -2  -7   13.73    2.08
  -4   2   7   56.98    2.95
  -4   2   7   49.61    2.59
  -4   2   7   54.05    2.56
  -4   2   7   53.58    3.74
   4  -2  -7   54.89    2.86
   4  -2  -7   54.97    2.35
   4  -2  -7   47.15    3.17
   4  -2  -7   55.40    2.47
  -3   2   7   61.66    3.69
  -3   2   7   61.81    3.05
  -3   2   7   60.89    2.79
  -3   2   7   57.58    2.66
   3  -2  -7   58.12    2.67
   3  -2  -7   56.91    2.83
   3  -2  -7   59.53    2.89
   3  -2  -7   57.76    2.48
   3  -2  -7   60.14    3.42
  -2   2   7   13.68    1.30
  -2   2   7   14.80    1.36
  -2   2   7   14.52    2.13
  -2   2   7   13.89    1.13
   2  -2  -7   11.24    1.15
   2  -2  -7   12.83    1.34
   2  -2  -7   12.39    0.95
   2  -2  -7   14.44    1.93
   2  -2  -7   12.53    1.22
  -1   2   7  116.09    5.67
  -1   2   7  123.58    5.03
  -1   2   7  113.68    4.53
  -1   2   7  118.72    4.90
  -1   2   7  114.68    4.74
  -1   2   7  125.91    5.72
   1  -2  -7  119.46    4.53
   1  -2  -7  117.65    4.90
   1  -2  -7  119.62    4.79
   0   2   7    3.74    1.47
   0   2   7    0.80    1.27
   0   2   7    3.02    1.11
   0   2   7    2.93    0.83
   0   2   7    2.42    0.95
   0   2   7    2.50    0.57
   0  -2  -7    2.83    0.54
   0  -2  -7    3.65    1.00
   0  -2  -7    2.98    0.82
   1   2   7  100.39    5.71
   1   2   7  112.92    4.39
   1   2   7  105.61    5.08
   1   2   7  108.28    5.47
   1   2   7  113.18    4.76
   1   2   7  104.52    4.74
  -1  -2  -7  111.83    4.55
  -1  -2  -7  115.91    4.30
  -1  -2  -7   98.78    5.82
   2   2   7   19.64    2.91
   2   2   7   26.06    1.81
   2   2   7   21.38    2.09
  -2  -2  -7   21.33    2.20
  -2  -2  -7   25.79    4.08
  -2  -2  -7   21.95    2.00
  -2  -2  -7   23.59    1.54
  -2  -2  -7   26.07    1.49
   3   2   7   10.59    2.47
   3   2   7   18.76    2.10
   3   2   7   15.33    2.24
  -3  -2  -7   15.36    3.57
  -3  -2  -7   17.13    1.56
  -3  -2  -7   15.05    2.47
  -3  -2  -7   15.81    1.48
   4   2   7   14.56    3.03
   4   2   7   16.03    2.37
   4   2   7   14.61    2.04
  -4  -2  -7   15.03    2.00
  -4  -2  -7   17.98    1.79
   5   2   7   -0.76    2.16
   5   2   7    4.27    2.32
  -5  -2  -7    2.53    1.71
  -7   2   8   14.38    2.22
   7  -2  -8   14.49    1.39
   7  -2  -8   16.19    2.46
  -6   2   8   27.23    1.97
  -6   2   8   27.02    2.60
   6  -2  -8   31.49    2.92
   6  -2  -8   31.54    1.70
   6  -2  -8   28.33    3.77
  -5   2   8   22.45    2.24
  -5   2   8   21.32    3.21
  -5   2   8   19.97    1.65
  -5   2   8   21.20    2.01
   5  -2  -8   22.13    1.37
   5  -2  -8   20.89    2.13
   5  -2  -8   23.51    1.52
   5  -2  -8   18.89    2.71
  -4   2   8   66.59    3.61
  -4   2   8   67.33    3.13
  -4   2   8   68.10    3.12
  -4   2   8   70.96    4.50
   4  -2  -8   69.71    3.01
   4  -2  -8   60.18    3.32
   4  -2  -8   69.70    2.86
   4  -2  -8   63.49    3.83
  -3   2   8   -0.19    0.78
  -3   2   8   -0.64    1.62
  -3   2   8    0.80    0.76
  -3   2   8    0.37    0.62
   3  -2  -8    0.09    0.84
   3  -2  -8   -0.07    0.42
   3  -2  -8   -0.65    0.77
   3  -2  -8    0.33    0.72
   3  -2  -8    1.43    1.26
  -2   2   8   67.49    2.98
  -2   2   8   71.36    3.55
  -2   2   8   75.08    3.31
  -2   2   8   67.56    4.18
  -2   2   8   71.69    4.38
   2  -2  -8   71.29    3.28
   2  -2  -8   66.93    3.24
   2  -2  -8   70.48    2.91
   2  -2  -8   65.86    3.25
  -1   2   8   23.29    2.01
  -1   2   8   26.92    2.84
  -1   2   8   22.47    1.66
  -1   2   8   24.53    1.78
  -1   2   8   23.43    1.33
  -1   2   8   24.10    3.16
   1  -2  -8   22.93    1.76
   1  -2  -8   22.97    1.38
   1  -2  -8   21.66    1.86
   0   2   8   44.04    2.11
   0   2   8   49.03    2.69
   0   2   8   44.18    2.90
   0   2   8   43.80    3.58
   0   2   8   44.13    2.77
   0   2   8   36.69    3.98
   0  -2  -8   42.49    2.46
   0  -2  -8   47.29    2.13
   1   2   8   16.89    2.49
   1   2   8   14.14    1.94
   1   2   8   17.05    1.46
   1   2   8   21.50    3.23
   1   2   8   16.06    2.51
   1   2   8   17.10    2.18
  -1  -2  -8   17.96    1.33
  -1  -2  -8   17.11    1.91
  -1  -2  -8   16.77    3.16
   2   2   8    5.07    2.23
   2   2   8    4.76    1.39
   2   2   8    4.51    1.01
  -2  -2  -8    4.84    0.99
  -2  -2  -8    4.33    0.82
  -2  -2  -8    2.99    3.11
  -2  -2  -8    3.05    1.34
  -2  -2  -8    3.12    1.47
   3   2   8   37.79    2.96
   3   2   8   30.76    4.47
   3   2   8   34.08    3.04
  -3  -2  -8   31.65    2.19
  -3  -2  -8   36.03    2.24
   4   2   8    1.99    1.80
   4   2   8    1.01    3.21
   4   2   8    1.68    2.03
  -4  -2  -8   -0.03    1.28
  -7   2   9   19.75    2.75
   7  -2  -9   22.65    1.67
   7  -2  -9   22.88    3.43
  -6   2   9   -0.30    1.37
  -6   2   9    0.83    1.02
   6  -2  -9    0.43    0.63
   6  -2  -9   -1.18    2.22
   6  -2  -9    2.54    1.81
  -5   2   9   63.72    3.18
  -5   2   9   70.96    5.30
  -5   2   9   62.25    3.36
  -5   2   9   65.53    3.87
   5  -2  -9   68.82    4.41
   5  -2  -9   69.08    3.14
   5  -2  -9   71.05    2.99
   5  -2  -9   69.12    3.70
  -4   2   9   32.44    2.70
  -4   2   9   33.16    2.06
  -4   2   9   34.90    2.14
  -4   2   9   28.38    4.01
   4  -2  -9   31.79    2.35
   4  -2  -9   30.90    1.71
   4  -2  -9   23.59    2.92
   4  -2  -9   30.56    1.97
  -3   2   9   24.52    1.68
  -3   2   9   27.07    2.33
  -3   2   9   26.57    3.54
  -3   2   9   28.59    1.99
   3  -2  -9   25.09    1.49
   3  -2  -9   21.82    1.98
   3  -2  -9   22.16    1.81
   3  -2  -9   25.35    2.83
  -2   2   9   40.98    3.68
  -2   2   9   48.32    2.97
  -2   2   9   49.04    2.22
  -2   2   9   44.63    3.86
  -2   2   9   48.39    2.69
  -2   2   9   45.84    2.28
   2  -2  -9   48.56    2.19
   2  -2  -9   39.89    2.69
   2  -2  -9   43.70    2.68
  -1   2   9    8.48    1.30
  -1   2   9    6.91    2.44
  -1   2   9    8.49    1.46
  -1   2   9    6.10    0.80
  -1   2   9    4.83    1.01
  -1   2   9    5.74    1.96
   1  -2  -9    4.97    1.10
   1  -2  -9    6.07    0.75
   0   2   9   52.71    2.39
   0   2   9   52.16    4.45
   0   2   9   51.93    3.05
   0   2   9   52.17    4.22
   0   2   9   44.89    3.31
   0   2   9   45.96    3.03
   0  -2  -9   53.61    2.40
   0  -2  -9   50.87    2.88
   1   2   9    1.02    1.72
   1   2   9   -0.39    1.13
   1   2   9    0.72    2.95
   1   2   9   -0.35    2.14
   1   2   9   -0.14    1.44
   1   2   9    0.24    0.82
  -1  -2  -9    0.34    1.31
  -1  -2  -9   -0.42    0.65
   2   2   9   18.27    2.40
   2   2   9   17.59    2.12
   2   2   9   15.35    3.24
  -2  -2  -9   18.72    2.29
  -2  -2  -9   20.83    1.64
  -2  -2  -9   20.25    1.91
   3   2   9    6.25    3.26
   3   2   9   11.29    2.10
   3   2   9    9.64    2.02
  -3  -2  -9    8.99    1.29
  -3  -2  -9   11.77    1.91
   4   2   9    4.79    2.39
   4   2   9    4.46    2.40
  -4  -2  -9    7.46    1.66
  -7   2  10    2.06    1.87
   7  -2 -10    1.74    2.28
   7  -2 -10    3.96    0.97
  -6   2  10   19.81    2.86
  -6   2  10   21.02    2.16
   6  -2 -10   20.80    3.21
   6  -2 -10   23.20    1.61
  -5   2  10   15.84    2.78
  -5   2  10   16.40    1.87
  -5   2  10   16.53    2.66
   5  -2 -10   16.48    2.04
   5  -2 -10   16.11    2.60
   5  -2 -10   14.98    1.31
   5  -2 -10   13.73    1.74
  -4   2  10    5.45    2.72
  -4   2  10    5.90    1.64
  -4   2  10    6.28    1.11
  -4   2  10    5.82    1.22
   4  -2 -10    5.29    1.19
   4  -2 -10    8.65    1.51
   4  -2 -10    6.92    0.90
  -3   2  10   70.67    5.24
  -3   2  10   62.16    5.26
  -3   2  10   71.91    4.25
  -3   2  10   74.49    3.54
  -3   2  10   65.31    3.05
   3  -2 -10   71.00    3.07
   3  -2 -10   68.81    3.44
  -2   2  10    2.62    1.08
  -2   2  10    2.39    0.71
  -2   2  10    0.81    0.85
  -2   2  10    1.19    1.45
  -2   2  10   -1.71    2.17
  -2   2  10    2.92    2.27
   2  -2 -10    1.10    0.61
  -1   2  10   48.21    2.28
  -1   2  10   49.53    2.60
  -1   2  10   49.20    3.52
  -1   2  10   49.52    4.52
  -1   2  10   54.12    3.20
  -1   2  10   44.28    4.99
   1  -2 -10   50.53    2.42
   0   2  10   11.27    1.92
   0   2  10   12.15    3.28
   0   2  10    8.94    2.07
   0   2  10   14.61    2.10
   0   2  10   11.53    2.76
   0   2  10   10.74    1.35
   0  -2 -10   11.73    1.26
   0  -2 -10   11.11    1.70
   1   2  10   15.42    2.36
   1   2  10   17.17    1.85
   1   2  10   13.76    2.05
   1   2  10   13.95    3.33
   1   2  10   11.47    3.42
  -1  -2 -10   14.75    2.37
  -1  -2 -10   17.58    1.60
   2   2  10   19.38    2.53
   2   2  10   23.52    2.96
   2   2  10   18.32    3.71
  -2  -2 -10   20.87    2.23
  -2  -2 -10   20.44    1.79
   3   2  10    3.31    2.01
   3   2  10    2.43    1.95
   3   2  10   -2.69    4.61
  -3  -2 -10    1.58    1.23
  -6   2  11   18.98    2.75
   6  -2 -11   20.34    2.71
   6  -2 -11   25.87    1.85
  -5   2  11    1.33    1.21
  -5   2  11    3.23    1.86
   5  -2 -11    2.05    1.70
  -4   2  11   34.81    2.70
  -4   2  11   34.98    3.39
   4  -2 -11   34.68    2.02
   4  -2 -11   37.04    4.16
   4  -2 -11   32.84    2.79
  -3   2  11   23.87    3.06
  -3   2  11   17.32    3.71
  -3   2  11   17.63    3.46
  -3   2  11   19.63    2.33
   3  -2 -11   20.64    1.48
  -2   2  11   17.78    3.57
  -2   2  11   20.80    2.38
  -2   2  11   22.97    3.24
  -2   2  11   13.63    3.18
   2  -2 -11   23.58    1.63
  -1   2  11   26.83    2.65
  -1   2  11   22.80    3.54
  -1   2  11   19.51    3.70
  -1   2  11   22.71    3.82
   1  -2 -11   23.91    1.65
   0   2  11    1.71    3.17
   0   2  11    0.36    0.88
   0   2  11    1.04    1.32
   0   2  11    2.15    2.19
   0  -2 -11    1.09    0.78
   1   2  11   24.28    4.26
   1   2  11   25.66    2.84
   1   2  11   23.42    2.26
   1   2  11   22.11    3.05
  -1  -2 -11   22.39    1.89
  -1  -2 -11   22.75    2.49
   2   2  11    5.97    4.51
   2   2  11    2.15    2.02
  -2  -2 -11   -0.20    1.01
  -6   2  12    5.80    2.49
   6  -2 -12    6.15    1.43
  -5   2  12   23.88    2.83
  -5   2  12   17.78    2.77
   5  -2 -12   19.28    1.87
  -4   2  12   28.83    3.81
  -4   2  12   28.32    5.06
  -4   2  12   29.53    2.73
   4  -2 -12   30.88    1.99
  -3   2  12    5.72    1.52
  -3   2  12   -1.02    2.08
  -3   2  12    2.48    3.98
   3  -2 -12    3.51    0.99
  -2   2  12   39.64    6.35
  -2   2  12   41.20    3.20
  -2   2  12   35.96    4.12
   2  -2 -12   34.69    2.18
  -1   2  12    0.93    2.48
  -1   2  12    0.83    1.53
  -1   2  12   -4.42    3.75
   1  -2 -12    0.35    0.73
   0   2  12   12.95    2.24
   0   2  12   13.15    3.13
   0   2  12    8.25    4.49
   0  -2 -12   12.04    1.50
   1   2  12    7.99    2.18
   1   2  12    2.65    4.60
  -1  -2 -12    8.88    2.20
  -1  -2 -12    7.33    1.40
  -5   2  13   20.63    2.59
  -5   2  13   14.72    3.11
   5  -2 -13   17.26    2.11
  -4   2  13   -3.11    2.52
  -4   2  13    2.21    1.66
  -4   2  13    4.14    4.80
   4  -2 -13   -0.74    0.99
  -3   2  13   14.64    3.25
  -3   2  13   22.92    2.95
  -3   2  13   12.72    4.85
   3  -2 -13   16.40    1.97
  -2   2  13    4.75    2.88
  -2   2  13    5.17    4.56
  -2   2  13    2.50    1.65
   2  -2 -13    7.44    1.32
  -1   2  13   13.85    3.32
  -1   2  13   15.34    2.37
  -1   2  13   17.06    4.93
   1  -2 -13   10.96    1.51
   0   2  13   14.18    2.32
   0   2  13   13.95    4.84
   0   2  13    7.56    3.40
   0  -2 -13   11.26    1.68
   1   3 -14    9.87    1.48
  -1  -3  14   -2.93    4.58
  -1  -3  14   10.33    3.79
  -1  -3  14   10.20    2.51
   2   3 -14    5.01    1.43
  -2  -3  14   -4.03    4.41
  -2  -3  14    4.60    2.37
  -2  -3  14    1.06    3.48
  -1   3 -13    1.47    1.94
  -1   3 -13    1.04    1.01
   1  -3  13    3.21    2.42
   1  -3  13    0.54    4.60
   1  -3  13    7.07    3.79
   0   3 -13    3.70    0.99
   0  -3  13    8.53    3.28
   0  -3  13    5.72    2.17
   0  -3  13    8.00    3.91
   1   3 -13   13.32    1.63
  -1  -3  13    8.66    3.16
  -1  -3  13   13.96    2.44
  -1  -3  13   18.39    4.08
   2   3 -13    2.15    0.83
  -2  -3  13    2.08    1.85
  -2  -3  13   -2.20    2.92
  -2  -3  13   -4.22    3.73
   3   3 -13   19.30    1.99
  -3  -3  13   15.38    4.43
  -3  -3  13   26.61    3.56
  -3  -3  13   17.70    3.53
   4   3 -13   -0.66    1.05
  -4  -3  13   -5.61    3.08
  -2   3 -12   11.92    2.28
  -2   3 -12   11.90    1.36
   2  -3  12   15.64    2.71
   2  -3  12    8.54    4.51
  -1   3 -12   -0.80    0.80
   1  -3  12   -1.75    3.65
   1  -3  12   -3.35    2.89
   1  -3  12    0.08    1.98
   0   3 -12   16.27    1.53
   0  -3  12   15.31    3.13
   0  -3  12   23.90    3.01
   0  -3  12   23.66    3.99
   1   3 -12    0.74    0.71
  -1  -3  12   -1.20    1.49
  -1  -3  12    3.48    2.67
  -1  -3  12    0.41    2.90
   2   3 -12   26.77    1.80
  -2  -3  12   27.09    3.79
  -2  -3  12   21.95    3.08
  -2  -3  12   32.49    5.46
   3   3 -12   13.15    1.43
  -3  -3  12   15.71    2.97
  -3  -3  12   12.42    3.81
  -3  -3  12   14.12    2.05
   4   3 -12    6.99    1.14
  -4  -3  12    5.67    2.56
   5   3 -12   19.69    2.20
  -5  -3  12   19.96    3.28
  -3   3 -11    7.96    1.29
  -3   3 -11    9.54    2.14
   3  -3  11   13.59    4.71
   3  -3  11   10.15    2.49
  -2   3 -11    1.95    0.88
  -2   3 -11   -0.40    1.70
   2  -3  11   -0.02    1.70
   2  -3  11    4.26    3.38
  -1   3 -11   20.56    1.63
   1  -3  11   24.92    2.89
   1  -3  11   22.65    3.82
   1  -3  11   20.45    3.48
   0   3 -11   20.81    1.47
   0  -3  11   19.06    2.97
   0  -3  11   16.36    3.38
   0  -3  11   19.62    2.65
   1   3 -11    8.85    1.13
  -1  -3  11   10.03    1.94
  -1  -3  11   12.04    2.08
  -1  -3  11    7.18    2.40
  -1  -3  11    6.77    2.73
   2   3 -11   37.17    2.04
  -2  -3  11   35.99    3.91
  -2  -3  11   38.34    4.85
  -2  -3  11   38.95    2.91
   3   3 -11    7.31    0.97
   3   3 -11    4.82    1.29
  -3  -3  11    5.26    2.11
  -3  -3  11    5.97    1.38
   4   3 -11   41.27    2.20
  -4  -3  11   36.58    4.04
  -4  -3  11   36.42    2.60
   5   3 -11    2.14    0.94
  -5  -3  11   -3.88    2.27
  -6  -3  11   15.18    3.07
  -4   3 -10    8.66    2.06
   4  -3  10    9.34    2.41
   4  -3  10   12.20    4.68
  -3   3 -10    4.38    1.07
  -3   3 -10    5.99    1.71
   3  -3  10    5.10    3.72
   3  -3  10    5.72    1.51
   3  -3  10    4.74    1.91
  -2   3 -10    9.36    1.72
  -2   3 -10    7.12    0.96
   2  -3  10    9.63    3.20
   2  -3  10    8.81    1.74
  -1   3 -10   16.08    1.34
   1  -3  10   12.32    2.64
   1  -3  10   19.59    2.51
   1  -3  10   15.09    3.12
   1  -3  10   10.31    2.54
   0   3 -10    0.62    0.55
   0  -3  10    0.11    2.27
   0  -3  10    0.46    1.19
   0  -3  10   -1.25    1.77
   0  -3  10    2.02    2.00
   1   3 -10   57.67    2.48
  -1  -3  10   50.43    4.20
  -1  -3  10   43.86    4.54
  -1  -3  10   54.84    3.17
   2   3 -10    1.27    1.06
   2   3 -10    2.60    0.58
  -2  -3  10    0.28    1.59
  -2  -3  10    2.88    1.11
   3   3 -10   55.64    2.85
   3   3 -10   59.27    2.69
  -3  -3  10   54.06    4.12
  -3  -3  10   60.46    3.08
   4   3 -10   28.45    1.85
   4   3 -10   30.91    1.79
  -4  -3  10   35.65    3.34
   5   3 -10    9.63    1.28
   5   3 -10    9.15    1.38
  -5  -3  10   12.41    2.45
   6   3 -10   24.87    3.06
   6   3 -10   25.62    2.13
  -6  -3  10   25.87    4.09
  -5   3  -9    5.48    2.46
   5  -3   9    2.01    2.58
   5  -3   9    0.56    2.43
   5  -3   9    9.30    4.97
  -4   3  -9   12.63    1.51
  -4   3  -9   23.27    2.68
   4  -3   9   17.31    2.92
   4  -3   9   17.87    2.82
   4  -3   9   14.56    4.06
  -3   3  -9    2.53    0.85
  -3   3  -9    0.96    1.03
  -3   3  -9    1.11    1.41
   3  -3   9    5.63    2.92
   3  -3   9    3.88    1.30
   3  -3   9    5.41    1.87
  -2   3  -9   27.61    1.57
  -2   3  -9   22.31    1.54
  -2   3  -9   24.29    2.42
   2  -3   9   27.14    4.43
   2  -3   9   25.46    1.88
   2  -3   9   28.27    2.75
  -1   3  -9    1.42    0.58
   1  -3   9   -1.55    1.69
   1  -3   9    0.77    1.18
   1  -3   9    1.92    1.86
   1  -3   9   -2.38    1.90
   0   3  -9   43.91    2.92
   0   3  -9   49.98    2.16
   0  -3   9   48.22    2.92
   0  -3   9   44.60    3.65
   0  -3   9   48.53    3.83
   1   3  -9   51.87    2.25
   1   3  -9   51.79    2.80
  -1  -3   9   44.32    3.62
  -1  -3   9   43.64    3.53
  -1  -3   9   50.86    2.84
  -1  -3   9   49.99    3.83
   2   3  -9   45.86    2.07
   2   3  -9   44.81    2.36
  -2  -3   9   42.76    3.49
  -2  -3   9   43.49    2.55
  -2  -3   9   39.59    3.07
   3   3  -9   36.91    1.88
   3   3  -9   38.58    2.09
  -3  -3   9   35.56    2.15
  -3  -3   9   36.73    3.34
   4   3  -9    0.45    0.73
   4   3  -9    0.63    0.54
   4   3  -9   -0.17    1.70
  -4  -3   9    2.68    1.61
  -4  -3   9    2.50    2.80
  -4  -3   9    1.23    0.86
   5   3  -9   51.97    2.92
   5   3  -9   54.69    2.61
  -5  -3   9   54.56    3.96
   6   3  -9    4.10    0.89
   6   3  -9    2.95    1.65
  -6  -3   9    3.80    2.17
  -5   3  -8   12.76    2.19
   5  -3   8   12.43    4.36
   5  -3   8   10.39    2.79
   5  -3   8   11.09    2.33
  -4   3  -8    1.97    1.35
  -4   3  -8    2.13    1.04
  -4   3  -8    2.24    1.51
   4  -3   8    1.60    3.06
   4  -3   8    0.33    1.43
   4  -3   8    3.24    1.68
  -3   3  -8   26.28    2.33
  -3   3  -8   27.03    1.65
  -3   3  -8   20.75    1.77
   3  -3   8   25.49    2.07
   3  -3   8   23.80    3.56
   3  -3   8   27.24    2.83
  -2   3  -8   18.96    1.25
  -2   3  -8   19.63    1.33
  -2   3  -8   18.02    1.80
   2  -3   8   16.18    2.53
   2  -3   8   21.45    1.52
   2  -3   8   19.99    2.41
  -1   3  -8   13.95    1.95
  -1   3  -8   15.47    1.13
  -1   3  -8   16.20    2.66
   1  -3   8   17.44    1.87
   1  -3   8   17.89    2.48
   1  -3   8   15.86    2.37
   0   3  -8   55.62    2.46
   0   3  -8   48.14    3.37
   0   3  -8   61.29    2.99
   0  -3   8   57.93    3.69
   0  -3   8   70.84    4.69
   0  -3   8   59.57    3.60
   0  -3   8   59.40    3.06
   1   3  -8    5.73    0.71
   1   3  -8    5.38    0.95
   1   3  -8    5.53    1.36
  -1  -3   8    4.30    1.52
  -1  -3   8    7.18    1.50
  -1  -3   8    7.15    1.09
  -1  -3   8    7.44    1.65
   2   3  -8  123.77    4.80
   2   3  -8  120.87    4.62
  -2  -3   8  120.13    4.88
  -2  -3   8  113.67    5.25
  -2  -3   8  120.72    5.68
   3   3  -8    0.58    0.65
   3   3  -8    0.71    0.55
   3   3  -8    2.03    1.11
   3   3  -8    1.34    0.45
  -3  -3   8    1.67    1.25
  -3  -3   8    1.49    0.63
  -3  -3   8    0.78    1.22
  -3  -3   8    0.52    0.68
   4   3  -8   17.20    1.47
   4   3  -8   15.88    2.28
   4   3  -8   14.74    1.18
  -4  -3   8   15.37    1.51
  -4  -3   8   16.72    2.26
   5   3  -8   42.72    2.62
   5   3  -8   41.40    2.10
  -5  -3   8   45.84    3.47
  -5  -3   8   33.95    2.48
   6   3  -8   11.27    1.33
   6   3  -8   14.36    2.02
  -6  -3   8    9.66    2.23
   7   3  -8   25.28    2.39
   7   3  -8   23.35    3.73
  -7  -3   8   25.27    3.92
  -6   3  -7   11.89    2.16
   6  -3   7    4.18    2.58
   6  -3   7    9.98    2.57
   6  -3   7    7.89    4.61
  -5   3  -7   11.92    1.95
   5  -3   7    5.52    3.67
   5  -3   7    8.31    2.05
   5  -3   7    4.23    1.96
  -4   3  -7    8.81    1.67
  -4   3  -7    8.88    0.99
  -4   3  -7    6.95    1.29
   4  -3   7    9.73    3.02
   4  -3   7   10.72    2.08
   4  -3   7   10.80    1.62
  -3   3  -7   18.92    1.52
  -3   3  -7   19.35    1.83
  -3   3  -7   19.89    1.27
   3  -3   7   22.25    1.77
   3  -3   7   15.01    2.54
   3  -3   7   21.39    2.65
  -2   3  -7    1.12    0.87
  -2   3  -7    0.59    0.76
  -2   3  -7    2.56    1.87
  -2   3  -7    0.99    0.43
  -2   3  -7    0.23    1.46
  -2   3  -7    1.54    0.56
   2  -3   7   -0.02    0.99
   2  -3   7    0.89    1.46
   2  -3   7    0.24    0.64
  -1   3  -7   60.10    2.95
  -1   3  -7   56.89    3.47
  -1   3  -7   60.50    2.41
   1  -3   7   58.13    3.58
   1  -3   7   59.28    3.09
   1  -3   7   60.09    3.52
   0   3  -7    6.73    1.32
   0   3  -7    8.86    0.76
   0   3  -7   10.11    1.25
   0  -3   7    8.46    1.34
   0  -3   7   10.21    1.62
   0  -3   7    9.54    1.67
   0  -3   7    9.62    1.30
   1   3  -7   76.44    3.77
   1   3  -7   77.05    3.08
   1   3  -7   81.00    3.36
  -1  -3   7   75.59    3.60
  -1  -3   7   79.28    4.09
  -1  -3   7   77.74    3.46
   2   3  -7   46.19    1.99
   2   3  -7   40.72    2.52
   2   3  -7   45.72    2.13
  -2  -3   7   43.34    2.16
  -2  -3   7   43.08    2.58
  -2  -3   7   46.75    2.83
   3   3  -7   46.73    2.16
   3   3  -7   48.67    2.73
   3   3  -7   47.37    2.19
   3   3  -7   46.59    2.74
  -3  -3   7   48.70    2.24
  -3  -3   7   47.64    2.73
  -3  -3   7   49.44    2.90
  -3  -3   7   47.30    3.00
   4   3  -7   83.94    4.10
   4   3  -7   85.99    3.51
   4   3  -7   86.33    3.73
  -4  -3   7   83.72    3.70
  -4  -3   7   85.70    4.19
  -4  -3   7   85.79    4.44
   5   3  -7    4.25    1.18
   5   3  -7    3.67    1.69
  -5  -3   7    1.80    1.54
  -5  -3   7    1.23    1.71
  -5  -3   7    1.47    1.14
  -5  -3   7    2.21    1.25
   6   3  -7   49.21    3.38
  -6  -3   7   44.83    3.41
  -6  -3   7   43.55    3.64
   7   3  -7    2.61    1.00
   7   3  -7    4.30    2.01
  -7  -3   7    2.83    2.15
  -7  -3   7    1.59    2.07
  -6   3  -6    8.97    1.89
   6  -3   6    9.13    4.09
   6  -3   6   13.32    2.91
   6  -3   6    9.93    2.43
  -5   3  -6    0.23    1.51
   5  -3   6    0.63    1.71
   5  -3   6    1.15    1.77
   5  -3   6   -1.12    2.88
  -4   3  -6   33.49    2.21
  -4   3  -6   30.48    1.73
  -4   3  -6   25.22    2.05
   4  -3   6   25.45    2.85
   4  -3   6   30.83    3.59
   4  -3   6   30.86    2.30
  -3   3  -6    3.71    0.88
  -3   3  -6    1.90    0.70
  -3   3  -6    2.70    2.02
  -3   3  -6    0.66    1.57
  -3   3  -6    2.64    0.51
   3  -3   6    2.15    1.14
   3  -3   6    4.06    0.88
   3  -3   6    1.46    1.51
  -2   3  -6   39.93    1.97
  -2   3  -6   43.80    3.14
  -2   3  -6   43.66    1.77
  -2   3  -6   45.31    3.06
  -2   3  -6   44.90    2.21
  -2   3  -6   42.21    2.43
   2  -3   6   41.86    2.53
   2  -3   6   40.24    2.03
   2  -3   6   43.13    2.85
  -1   3  -6   62.70    2.41
  -1   3  -6   58.37    3.36
  -1   3  -6   63.33    2.44
  -1   3  -6   65.55    3.00
   1  -3   6   61.35    3.32
   1  -3   6   61.20    3.41
   1  -3   6   63.64    3.10
   0   3  -6   23.88    1.16
   0   3  -6   25.15    1.99
   0   3  -6   22.80    1.56
   0  -3   6   25.65    1.97
   0  -3   6   23.63    1.62
   0  -3   6   25.30    1.78
   0  -3   6   26.74    2.12
   1   3  -6  116.43    4.37
   1   3  -6  118.12    5.03
   1   3  -6  122.09    4.61
  -1  -3   6  117.67    4.67
  -1  -3   6  110.58    4.78
  -1  -3   6  118.62    5.21
   2   3  -6    0.11    0.39
   2   3  -6    0.11    0.66
   2   3  -6   -1.02    0.60
   2   3  -6    0.34    0.43
   2   3  -6   -0.46    0.41
  -2  -3   6    1.77    0.77
  -2  -3   6   -0.23    0.53
  -2  -3   6    0.42    0.90
  -2  -3   6    0.82    0.77
  -2  -3   6    0.52    0.38
   3   3  -6  120.51    4.97
   3   3  -6  116.90    4.96
   3   3  -6  120.64    4.70
  -3  -3   6  111.97    4.61
  -3  -3   6  120.06    5.25
  -3  -3   6  122.76    5.18
  -3  -3   6  119.37    5.11
   4   3  -6   39.47    2.49
   4   3  -6   43.18    2.72
   4   3  -6   41.89    2.40
  -4  -3   6   44.34    2.71
  -4  -3   6   44.75    2.80
  -4  -3   6   44.59    2.33
   5   3  -6   51.08    2.98
  -5  -3   6   52.44    3.60
  -5  -3   6   51.52    3.26
  -5  -3   6   51.74    3.41
   6   3  -6   38.94    2.85
  -6  -3   6   34.06    2.95
  -6  -3   6   30.65    3.18
   7   3  -6    5.54    1.94
  -7  -3   6   11.24    2.29
  -7  -3   6   11.01    2.31
   7  -3   5    8.99    3.21
   7  -3   5   11.46    2.87
   7  -3   5   11.67    4.70
  -6   3  -5    1.70    1.54
   6  -3   5    0.93    1.85
   6  -3   5   -3.55    3.30
   6  -3   5    0.05    2.14
  -5   3  -5   15.70    2.13
   5  -3   5   13.97    2.23
   5  -3   5   13.22    2.75
   5  -3   5   17.66    2.68
  -4   3  -5   14.38    1.21
  -4   3  -5   15.63    1.60
  -4   3  -5   15.34    2.35
  -4   3  -5   11.29    1.55
   4  -3   5   14.84    2.21
   4  -3   5   12.04    2.13
   4  -3   5   14.93    1.80
  -3   3  -5   22.79    1.53
  -3   3  -5   21.82    1.96
  -3   3  -5   23.42    2.65
  -3   3  -5   24.65    1.19
  -3   3  -5   28.42    1.63
  -3   3  -5   27.47    2.51
   3  -3   5   26.72    2.04
   3  -3   5   24.95    1.72
   3  -3   5   24.58    2.34
  -2   3  -5  232.94    8.34
  -2   3  -5  216.39    8.91
  -2   3  -5  228.84    7.91
  -2   3  -5  221.61    8.54
  -2   3  -5  210.61    8.73
   2  -3   5  219.00    8.80
   2  -3   5  236.60    8.73
   2  -3   5  225.10    8.23
  -1   3  -5   -0.45    0.46
  -1   3  -5    0.02    0.28
  -1   3  -5    0.12    0.25
  -1   3  -5    0.41    0.86
  -1   3  -5    1.02    0.96
   1  -3   5    0.36    0.57
   1  -3   5    0.47    0.36
   1  -3   5    0.50    0.75
   1  -3   5   -0.30    0.68
   0   3  -5  119.33    4.43
   0   3  -5  126.43    5.22
   0   3  -5  120.24    4.77
   0  -3   5  123.60    4.86
   0  -3   5  118.93    4.97
   0  -3   5  121.69    5.28
   1   3  -5   21.22    1.19
   1   3  -5   17.88    1.06
   1   3  -5   16.61    1.46
  -1  -3   5   20.37    1.29
  -1  -3   5   19.88    1.42
  -1  -3   5   18.23    1.61
   2   3  -5  112.43    4.37
   2   3  -5  117.24    4.73
  -2  -3   5  112.78    4.77
  -2  -3   5  115.49    4.69
  -2  -3   5  119.06    4.93
  -2  -3   5  114.39    4.34
   3   3  -5   83.52    3.46
   3   3  -5   80.45    3.58
   3   3  -5   83.71    3.69
  -3  -3   5   82.76    3.78
  -3  -3   5   79.93    3.78
  -3  -3   5   87.85    3.88
  -3  -3   5   80.32    3.42
   4   3  -5   19.02    1.92
   4   3  -5   17.52    1.46
   4   3  -5   20.32    1.66
  -4  -3   5   17.84    1.55
  -4  -3   5   17.18    1.77
  -4  -3   5   19.40    3.40
  -4  -3   5   21.02    1.93
   5   3  -5   81.81    4.06
   5   3  -5   74.96    4.21
  -5  -3   5   82.20    4.14
  -5  -3   5   85.71    4.15
  -5  -3   5   79.04    4.49
   6   3  -5   -0.71    1.25
  -6  -3   5    0.56    1.35
  -6  -3   5    0.95    1.56
   7   3  -5   39.22    3.56
  -7  -3   5   34.08    3.53
  -7  -3   5   32.27    3.74
  -7   3  -4    4.21    1.90
   7  -3   4    2.30    2.71
   7  -3   4   -3.46    3.98
   7  -3   4   10.00    2.50
  -6   3  -4    5.56    1.51
   6  -3   4    3.82    2.06
   6  -3   4    4.42    1.82
   6  -3   4    4.79    2.81
  -5   3  -4   22.90    1.99
   5  -3   4   23.43    2.50
   5  -3   4   17.58    2.62
   5  -3   4   14.53    2.59
  -4   3  -4    0.42    0.65
  -4   3  -4    0.04    1.54
  -4   3  -4    0.62    0.75
  -4   3  -4    0.80    1.78
  -4   3  -4    1.40    0.79
  -4   3  -4    0.60    1.07
   4  -3   4   -0.24    0.81
   4  -3   4    1.41    1.05
   4  -3   4    0.05    0.61
   4  -3   4    1.79    1.30
  -3   3  -4   89.94    4.30
  -3   3  -4   87.43    3.95
  -3   3  -4   87.30    4.26
  -3   3  -4   88.98    3.67
  -3   3  -4   89.53    3.71
   3  -3   4   90.99    4.11
   3  -3   4   86.76    4.23
   3  -3   4   88.71    3.77
  -2   3  -4   49.25    2.15
  -2   3  -4   46.77    2.35
  -2   3  -4   48.11    2.12
  -2   3  -4   42.76    2.55
  -2   3  -4   42.78    2.66
   2  -3   4   48.83    2.14
   2  -3   4   46.83    2.46
   2  -3   4   42.57    2.49
  -1   3  -4  193.51    7.47
  -1   3  -4  200.41    7.13
  -1   3  -4  203.49    7.84
  -1   3  -4  189.14    6.98
  -1   3  -4  204.63    7.51
   1  -3   4  195.06    7.50
   1  -3   4  205.65    7.21
   1  -3   4  200.01    7.80
   1  -3   4  194.29    7.51
   0   3  -4   82.31    3.12
   0   3  -4   85.06    3.11
   0   3  -4   86.54    3.42
   0   3  -4   85.83    3.17
   0   3  -4   85.09    3.79
   0  -3   4   83.13    3.82
   0  -3   4   83.03    3.36
   0  -3   4   81.92    3.47
   1   3  -4   63.50    2.51
   1   3  -4   72.26    3.01
   1   3  -4   60.46    2.57
  -1  -3   4   67.04    3.05
  -1  -3   4   65.17    2.84
  -1  -3   4   60.81    2.51
   2   3  -4  209.16    7.53
   2   3  -4  213.11    7.65
   2   3  -4  215.41    7.75
  -2  -3   4  184.76    7.47
  -2  -3   4  210.70    7.89
  -2  -3   4  201.03    7.77
   3   3  -4    5.00    0.77
   3   3  -4    4.28    0.73
   3   3  -4    4.68    0.92
  -3  -3   4    4.02    0.74
  -3  -3   4    4.35    0.97
  -3  -3   4    4.41    0.87
  -3  -3   4    4.96    0.94
   4   3  -4  122.20    5.22
   4   3  -4  124.62    5.10
   4   3  -4  120.42    4.90
  -4  -3   4  123.61    5.18
  -4  -3   4  119.69    5.03
  -4  -3   4  123.43    5.42
  -4  -3   4  122.04    5.27
   5   3  -4   13.24    1.75
   5   3  -4    9.86    1.47
   5   3  -4   15.12    1.91
  -5  -3   4   11.37    1.74
  -5  -3   4   13.47    2.16
  -5  -3   4   13.08    1.71
   6   3  -4   27.70    2.71
  -6  -3   4   23.63    2.66
  -6  -3   4   24.90    2.75
   7   3  -4   17.11    3.06
  -7  -3   4   20.73    3.18
  -7  -3   4   16.88    2.44
  -7   3  -3    1.90    1.67
   7  -3   3    0.41    2.39
   7  -3   3    0.34    1.99
   7  -3   3    2.05    3.54
  -6   3  -3   16.91    2.36
   6  -3   3   14.77    3.00
   6  -3   3   20.28    2.72
   6  -3   3   15.03    2.46
  -5   3  -3    2.96    1.01
  -5   3  -3    2.44    2.21
  -5   3  -3    1.49    1.27
   5  -3   3    0.54    0.77
   5  -3   3    1.99    1.16
   5  -3   3   -1.78    1.50
   5  -3   3    1.53    1.31
  -4   3  -3   38.66    3.01
  -4   3  -3   40.31    2.44
  -4   3  -3   43.16    2.17
  -4   3  -3   41.04    2.29
   4  -3   3   40.24    2.80
   4  -3   3   44.24    2.62
   4  -3   3   39.87    1.98
   4  -3   3   42.09    2.39
  -3   3  -3   48.71    2.87
  -3   3  -3   51.10    2.42
  -3   3  -3   52.17    2.34
  -3   3  -3   54.74    2.67
   3  -3   3   54.10    2.77
   3  -3   3   52.90    2.49
   3  -3   3   51.10    2.81
   3  -3   3   50.43    2.27
  -2   3  -3   58.16    2.88
  -2   3  -3   53.96    2.32
  -2   3  -3   51.68    2.58
  -2   3  -3   56.64    2.70
  -2   3  -3   54.42    2.38
   2  -3   3   52.87    2.41
   2  -3   3   53.11    2.64
   2  -3   3   58.79    2.67
  -1   3  -3  130.99    5.30
  -1   3  -3  135.54    4.84
  -1   3  -3  130.68    5.08
   1  -3   3  129.28    4.89
   1  -3   3  125.05    4.97
   1  -3   3  131.43    5.13
   0   3  -3   11.73    0.89
   0   3  -3   12.73    1.24
   0   3  -3   12.49    0.84
   0  -3   3   12.61    0.96
   0  -3   3   10.37    1.00
   0  -3   3   12.62    1.27
   1   3  -3  295.44   10.03
   1   3  -3  232.39    9.69
   1   3  -3  275.01    9.70
  -1  -3   3  294.06   10.12
  -1  -3   3  274.38    9.74
  -1  -3   3  276.01    9.91
  -1  -3   3  266.61    9.74
   2   3  -3  128.91    4.90
   2   3  -3  128.10    4.84
   2   3  -3  127.66    4.87
  -2  -3   3  123.65    4.82
  -2  -3   3  129.69    5.02
  -2  -3   3  124.19    4.93
  -2  -3   3  123.44    5.00
   3   3  -3   88.86    3.73
   3   3  -3   91.33    3.87
   3   3  -3   89.64    3.65
  -3  -3   3   86.24    3.91
  -3  -3   3   86.33    3.70
  -3  -3   3   94.06    4.42
  -3  -3   3   89.90    3.79
   4   3  -3   81.40    3.85
   4   3  -3   82.23    3.42
   4   3  -3   78.66    3.67
  -4  -3   3   80.75    3.66
  -4  -3   3   84.20    3.66
  -4  -3   3   76.88    3.80
  -4  -3   3   80.39    4.04
   5   3  -3    3.98    1.35
   5   3  -3    3.23    1.23
   5   3  -3    3.13    0.85
  -5  -3   3    1.93    1.02
  -5  -3   3    4.09    1.76
  -5  -3   3    0.96    1.00
   6   3  -3   32.77    2.84
  -6  -3   3   36.99    3.15
  -6  -3   3   30.88    2.67
   7   3  -3    3.20    1.75
  -7  -3   3    0.26    1.78
  -7  -3   3    0.43    1.93
  -7   3  -2    8.45    1.81
   7  -3   2   12.97    2.19
   7  -3   2   12.32    3.56
   7  -3   2    7.28    2.39
  -6   3  -2    9.07    1.63
   6  -3   2    9.34    1.62
   6  -3   2    8.27    1.83
   6  -3   2    8.33    2.40
  -5   3  -2   11.10    1.86
  -5   3  -2   10.79    2.27
  -5   3  -2   13.83    1.49
   5  -3   2   12.20    1.92
   5  -3   2   10.99    1.35
   5  -3   2   13.59    1.90
   5  -3   2   14.58    2.02
  -4   3  -2  100.80    4.34
  -4   3  -2   99.06    4.44
  -4   3  -2  101.45    4.20
  -4   3  -2   98.90    4.87
   4  -3   2  107.26    4.62
   4  -3   2  109.78    4.47
   4  -3   2  106.98    4.78
   4  -3   2   97.12    4.09
  -3   3  -2    4.24    1.10
  -3   3  -2    2.97    0.77
  -3   3  -2    3.42    0.70
  -3   3  -2    3.92    0.64
   3  -3   2    3.94    0.58
   3  -3   2    5.33    0.97
   3  -3   2    3.44    0.65
   3  -3   2    2.31    0.73
  -2   3  -2  128.58    5.06
  -2   3  -2  123.58    4.79
  -2   3  -2  132.36    4.90
  -2   3  -2  134.71    5.05
   2  -3   2  125.48    4.93
   2  -3   2  125.89    5.11
   2  -3   2  127.83    5.04
  -1   3  -2    0.79    0.28
  -1   3  -2    1.00    0.46
  -1   3  -2    1.75    0.61
  -1   3  -2    0.85    0.34
   1  -3   2    0.73    0.47
   1  -3   2    1.19    0.43
   0   3  -2  323.22   11.15
   0   3  -2  307.27   11.00
   0   3  -2  302.34   10.90
   0  -3   2  318.85   11.15
   0  -3   2  302.42   10.92
   0  -3   2  278.20   10.80
   1   3  -2  270.29    9.60
   1   3  -2  264.52    9.43
   1   3  -2  255.53    9.35
   1   3  -2  262.49    9.53
  -1  -3   2  262.09    9.53
  -1  -3   2  279.44    9.72
  -1  -3   2  268.73    9.60
   2   3  -2    7.24    0.86
   2   3  -2    5.04    0.67
   2   3  -2    7.17    0.66
  -2  -3   2    5.57    0.74
  -2  -3   2    7.50    0.85
  -2  -3   2    6.03    0.78
  -2  -3   2    8.90    0.89
   3   3  -2  172.36    6.57
   3   3  -2  164.49    6.46
   3   3  -2  167.19    6.21
  -3  -3   2  158.70    6.39
  -3  -3   2  170.77    6.35
  -3  -3   2  167.90    6.53
   4   3  -2    1.91    1.01
   4   3  -2    1.34    0.76
   4   3  -2    2.13    0.60
  -4  -3   2    1.11    1.13
  -4  -3   2    2.20    0.86
  -4  -3   2    0.94    0.70
  -4  -3   2    2.58    0.84
   5   3  -2   55.36    3.43
   5   3  -2   53.70    2.58
   5   3  -2   53.51    3.25
  -5  -3   2   55.01    3.88
  -5  -3   2   58.64    2.89
  -5  -3   2   55.12    3.23
   6   3  -2   10.78    1.41
   6   3  -2   14.23    2.41
  -6  -3   2   12.74    1.85
  -6  -3   2   14.43    2.13
   7   3  -2   16.86    2.57
  -7  -3   2   17.94    2.53
  -7  -3   2   13.37    2.48
  -8   3  -1    0.79    1.98
   8  -3   1    2.96    2.26
   8  -3   1    2.29    2.47
  -7   3  -1   11.50    1.90
   7  -3   1   11.62    2.27
   7  -3   1   18.69    3.02
   7  -3   1   13.19    3.09
  -6   3  -1   -0.53    1.18
  -6   3  -1    0.45    1.28
   6  -3   1    0.12    1.27
   6  -3   1    1.23    1.32
   6  -3   1    0.48    1.87
  -5   3  -1   37.69    2.43
  -5   3  -1   32.10    1.91
  -5   3  -1   36.05    3.23
  -5   3  -1   39.66    2.21
   5  -3   1   39.84    2.54
   5  -3   1   40.72    2.58
   5  -3   1   43.25    2.96
   5  -3   1   36.97    2.05
  -4   3  -1   44.82    2.38
  -4   3  -1   44.33    2.86
  -4   3  -1   45.44    2.21
  -4   3  -1   46.30    2.50
   4  -3   1   47.05    2.75
   4  -3   1   48.72    2.45
   4  -3   1   45.42    2.13
   4  -3   1   47.19    2.56
  -3   3  -1   84.73    3.41
  -3   3  -1   86.60    3.81
  -3   3  -1   82.12    3.63
  -3   3  -1   80.65    3.52
   3  -3   1   87.34    3.60
   3  -3   1   83.26    3.67
   3  -3   1   85.02    3.73
   3  -3   1   87.32    3.37
  -2   3  -1   61.23    2.54
  -2   3  -1   63.75    2.76
  -2   3  -1   63.98    2.67
   2  -3   1   61.79    2.72
   2  -3   1   64.45    2.81
   2  -3   1   65.19    2.73
   2  -3   1   64.23    2.53
  -1   3  -1    2.63    0.50
  -1   3  -1    2.42    0.39
  -1   3  -1    2.52    0.50
   1  -3   1    2.05    0.51
   1  -3   1    1.85    0.58
   1  -3   1    2.25    0.36
   0   3  -1  181.83    6.54
   0   3  -1  161.09    6.17
   0   3  -1  164.91    6.29
   0   3  -1  170.70    6.31
   0   3  -1  184.94    6.42
   0  -3   1  157.05    6.18
   0  -3   1  188.12    6.41
   1   3  -1   31.44    1.51
   1   3  -1   28.24    1.29
   1   3  -1   33.88    1.39
  -1  -3   1   32.47    1.53
  -1  -3   1   35.53    1.55
  -1  -3   1   29.46    1.29
  -1  -3   1   30.82    1.49
   2   3  -1  361.88   13.33
   2   3  -1  368.94   13.07
   2   3  -1  381.71   13.36
  -2  -3   1  358.92   13.29
  -2  -3   1  380.12   13.18
  -2  -3   1  359.63   13.31
  -2  -3   1  386.91   13.47
   3   3  -1   56.87    2.69
   3   3  -1   57.15    2.34
   3   3  -1   56.24    2.78
  -3  -3   1   55.02    2.44
  -3  -3   1   58.44    2.92
  -3  -3   1   56.19    2.71
  -3  -3   1   56.45    2.67
   4   3  -1   28.05    2.19
   4   3  -1   30.56    1.98
   4   3  -1   30.56    1.55
  -4  -3   1   26.86    2.03
  -4  -3   1   29.49    1.67
  -4  -3   1   33.35    2.53
  -4  -3   1   26.91    2.05
   5   3  -1   50.92    2.38
   5   3  -1   50.65    3.37
   5   3  -1   55.72    3.17
  -5  -3   1   43.94    3.93
  -5  -3   1   52.00    3.03
  -5  -3   1   51.58    2.67
   6   3  -1    1.81    1.40
  -6  -3   1    1.35    1.25
  -6  -3   1    0.95    1.48
   7   3  -1   18.14    2.45
  -7  -3   1   19.08    2.77
  -8   3   0    4.46    2.06
   8  -3   0   14.98    4.43
   8  -3   0    6.83    2.27
   8  -3   0    8.55    2.55
  -7   3   0    2.57    1.95
  -7   3   0    2.75    1.54
   7  -3   0    2.80    1.66
   7  -3   0    3.36    1.63
   7  -3   0   -1.97    2.52
  -6   3   0   30.26    2.38
  -6   3   0   26.80    4.11
  -6   3   0   32.86    2.47
   6  -3   0   26.77    1.40
   6  -3   0   31.16    2.64
   6  -3   0   33.24    3.34
   6  -3   0   30.05    2.41
  -5   3   0   43.07    2.67
  -5   3   0   53.05    2.58
  -5   3   0   49.18    2.71
  -5   3   0   47.97    3.45
   5  -3   0   46.27    1.90
   5  -3   0   50.54    3.15
   5  -3   0   53.45    2.80
   5  -3   0   44.45    2.37
   5  -3   0   51.50    2.84
  -4   3   0    2.54    0.60
  -4   3   0    3.16    0.91
  -4   3   0    0.30    1.09
  -4   3   0    2.39    0.71
   4  -3   0    1.66    0.67
   4  -3   0    1.30    0.74
   4  -3   0    1.65    0.54
   4  -3   0    2.99    0.94
  -3   3   0  212.28    7.87
  -3   3   0  215.52    7.99
  -3   3   0  206.84    7.79
  -3   3   0  213.25    7.66
   3  -3   0  199.03    7.90
   3  -3   0  204.51    7.84
   3  -3   0  209.72    7.62
   3  -3   0  205.15    7.85
  -2   3   0    1.08    0.37
  -2   3   0    1.35    0.53
  -2   3   0    0.93    0.42
  -2   3   0    1.34    0.45
   2  -3   0    0.50    0.45
   2  -3   0    0.96    0.42
   2  -3   0    0.90    0.46
   2  -3   0    0.85    0.32
  -1   3   0  193.52    7.54
  -1   3   0  219.01    7.79
  -1   3   0  212.24    7.72
  -1   3   0  208.28    7.48
   1  -3   0  210.39    7.47
   1  -3   0  222.05    7.84
   0   3   0  182.57    6.66
   0   3   0  189.27    7.08
   0   3   0  180.07    6.52
   0   3   0  199.01    6.70
   0  -3   0  181.59    6.62
   0  -3   0  183.02    6.67
   1   3   0  320.58   11.01
   1   3   0  296.60   11.03
   1   3   0  290.75   10.85
  -1  -3   0  314.55   10.95
  -1  -3   0  330.19   11.10
  -1  -3   0  294.14   10.83
   2   3   0  241.21    9.40
   2   3   0  263.26    9.04
   2   3   0  269.33    9.54
   2   3   0  253.76    9.16
  -2  -3   0  258.50    9.13
  -2  -3   0  252.05    9.42
  -2  -3   0  259.10    9.34
  -2  -3   0  256.88    9.10
   3   3   0   18.82    1.16
   3   3   0   21.21    1.46
   3   3   0   20.62    1.03
   3   3   0   22.26    1.63
  -3  -3   0   20.08    1.46
  -3  -3   0   20.66    1.20
  -3  -3   0   18.50    1.12
  -3  -3   0   19.93    1.49
  -3  -3   0   21.82    1.86
   4   3   0   89.09    4.01
   4   3   0   83.50    4.22
   4   3   0   88.13    3.43
   4   3   0   83.17    3.53
  -4  -3   0   88.24    3.57
  -4  -3   0   87.20    4.56
  -4  -3   0   86.93    3.50
  -4  -3   0   90.90    3.96
   5   3   0    4.28    1.63
   5   3   0    7.65    1.28
   5   3   0    6.33    0.81
   5   3   0    7.86    1.55
  -5  -3   0    6.72    2.43
  -5  -3   0    5.91    1.26
  -5  -3   0    5.47    1.11
   6   3   0   37.84    3.15
  -6  -3   0   33.40    2.59
  -6  -3   0   37.72    3.17
   7   3   0    9.12    2.28
  -7  -3   0   12.86    2.36
  -8   3   1    6.88    2.09
   8  -3  -1    6.74    2.29
   8  -3  -1   11.49    3.70
  -7   3   1    3.23    1.37
  -7   3   1    3.53    1.14
  -7   3   1    0.49    1.36
   7  -3  -1    6.26    2.44
   7  -3  -1    3.83    1.68
  -6   3   1   36.83    2.56
  -6   3   1   37.73    4.18
  -6   3   1   35.48    2.56
   6  -3  -1   39.54    2.90
   6  -3  -1   32.93    3.25
   6  -3  -1   33.81    1.64
   6  -3  -1   38.70    2.52
  -5   3   1    1.66    1.57
  -5   3   1    3.02    0.88
  -5   3   1    2.52    0.98
  -5   3   1    2.42    0.86
   5  -3  -1    2.02    1.28
   5  -3  -1    3.04    0.95
   5  -3  -1    2.31    0.75
   5  -3  -1    2.34    0.41
   5  -3  -1    2.94    0.94
  -4   3   1  154.59    6.38
  -4   3   1  171.40    6.43
  -4   3   1  169.06    6.27
  -4   3   1  167.62    6.76
   4  -3  -1  160.94    6.64
   4  -3  -1  169.40    6.51
   4  -3  -1  161.27    6.37
   4  -3  -1  161.41    6.20
   4  -3  -1  153.06    5.76
  -3   3   1   47.56    2.46
  -3   3   1   47.97    2.28
  -3   3   1   46.66    2.14
  -3   3   1   48.66    2.32
  -3   3   1   49.18    2.09
   3  -3  -1   47.30    2.28
   3  -3  -1   48.22    2.33
   3  -3  -1   48.25    2.44
   3  -3  -1   47.23    2.11
  -2   3   1  243.34    8.82
  -2   3   1  238.57    8.85
  -2   3   1  254.27    9.02
  -2   3   1  242.81    9.03
  -2   3   1  254.79    9.04
   2  -3  -1  243.73    9.06
   2  -3  -1  249.39    9.04
   2  -3  -1  244.93    8.81
  -1   3   1  224.54    8.10
  -1   3   1  212.38    7.73
  -1   3   1  215.67    7.84
  -1   3   1  220.60    7.87
   1  -3  -1  215.46    7.72
   1  -3  -1  218.55    7.85
   1  -3  -1  222.06    8.15
   0   3   1   19.67    1.07
   0   3   1   20.77    1.48
   0   3   1   18.79    1.16
   0   3   1   20.34    1.13
   0   3   1   22.06    1.16
   0  -3  -1   23.11    1.27
   0  -3  -1   18.28    1.00
   0  -3  -1   18.18    0.93
   1   3   1  190.82    7.07
   1   3   1  199.93    7.19
   1   3   1  196.40    7.24
  -1  -3  -1  188.52    7.20
  -1  -3  -1  200.50    7.04
  -1  -3  -1  189.97    7.03
   2   3   1   -0.31    0.37
   2   3   1    0.13    0.36
   2   3   1   -0.09    0.53
  -2  -3  -1    0.07    0.48
  -2  -3  -1    0.30    0.70
  -2  -3  -1    0.19    0.43
  -2  -3  -1    0.67    0.42
   3   3   1  122.85    5.28
   3   3   1  119.76    4.77
   3   3   1  127.18    5.09
   3   3   1  123.65    4.50
  -3  -3  -1  122.94    4.79
  -3  -3  -1  119.35    5.05
  -3  -3  -1  117.51    4.91
  -3  -3  -1  135.45    4.66
  -3  -3  -1  124.53    5.49
   4   3   1   23.12    1.93
   4   3   1   25.12    1.58
   4   3   1   25.46    1.24
   4   3   1   22.29    2.20
  -4  -3  -1   23.33    1.44
  -4  -3  -1   23.44    2.79
  -4  -3  -1   23.47    1.65
  -4  -3  -1   25.09    1.87
   5   3   1   23.35    1.43
   5   3   1   25.55    3.11
   5   3   1   23.88    1.96
   5   3   1   25.71    2.40
  -5  -3  -1   22.61    1.93
  -5  -3  -1   26.37    2.29
  -5  -3  -1   23.95    3.52
  -5  -3  -1   25.85    1.78
   6   3   1   24.24    2.86
   6   3   1   24.66    2.43
  -6  -3  -1   27.55    2.43
  -6  -3  -1   27.63    3.11
   7   3   1    0.43    2.05
  -8   3   2    0.00    1.79
   8  -3  -2   -1.38    2.10
   8  -3  -2    0.01    3.24
  -7   3   2   30.47    2.10
  -7   3   2   30.04    2.68
   7  -3  -2   26.87    3.00
   7  -3  -2   24.92    1.58
   7  -3  -2   24.37    3.81
  -6   3   2    7.59    1.51
  -6   3   2    8.11    1.19
  -6   3   2    6.80    2.32
  -6   3   2    6.46    1.37
   6  -3  -2    5.46    0.65
   6  -3  -2    4.08    1.82
   6  -3  -2    5.08    1.45
  -5   3   2   44.72    3.20
  -5   3   2   46.16    2.54
  -5   3   2   47.59    2.21
  -5   3   2   40.21    2.51
  -5   3   2   48.40    2.45
   5  -3  -2   48.28    2.70
   5  -3  -2   47.12    2.99
   5  -3  -2   41.50    2.29
   5  -3  -2   43.75    1.84
  -4   3   2  111.96    5.09
  -4   3   2  112.18    4.75
  -4   3   2  113.06    4.65
  -4   3   2  123.03    4.53
  -4   3   2  120.18    4.77
   4  -3  -2  120.34    4.21
   4  -3  -2  113.02    5.02
   4  -3  -2  113.52    4.59
   4  -3  -2  116.36    4.88
  -3   3   2   22.76    1.29
  -3   3   2   25.27    1.52
  -3   3   2   26.45    1.38
  -3   3   2   26.27    1.76
  -3   3   2   23.92    1.56
   3  -3  -2   28.44    1.40
   3  -3  -2   23.77    1.05
   3  -3  -2   25.08    1.71
   3  -3  -2   24.83    1.55
  -2   3   2  303.65   10.64
  -2   3   2  288.98   10.38
  -2   3   2  246.36   10.50
  -2   3   2  287.77   10.40
   2  -3  -2  289.40   10.16
   2  -3  -2  306.37   10.70
   2  -3  -2  294.48   10.42
   2  -3  -2  306.08   10.38
   2  -3  -2  295.01   10.65
  -1   3   2    3.14    0.46
  -1   3   2    3.75    0.71
  -1   3   2    2.77    0.44
  -1   3   2    3.30    0.62
   1  -3  -2    3.70    0.82
   1  -3  -2    3.13    0.66
   1  -3  -2    3.03    0.39
   1  -3  -2    3.92    0.50
   1  -3  -2    2.91    0.37
   0   3   2  121.16    4.77
   0   3   2  129.84    4.92
   0   3   2  124.08    5.13
   0   3   2  125.96    4.73
   0   3   2  130.38    4.90
   0  -3  -2  123.96    4.54
   0  -3  -2  118.01    4.67
   1   3   2  111.41    4.40
   1   3   2  116.24    4.64
   1   3   2  110.54    4.44
  -1  -3  -2  111.66    4.27
  -1  -3  -2  113.37    4.51
  -1  -3  -2  117.56    4.78
  -1  -3  -2  117.04    4.41
   2   3   2   50.62    2.62
   2   3   2   49.76    2.27
   2   3   2   50.91    2.42
  -2  -3  -2   50.34    2.84
  -2  -3  -2   56.16    2.38
  -2  -3  -2   51.05    2.29
  -2  -3  -2   49.16    2.45
   3   3   2   71.20    3.19
   3   3   2   68.77    2.96
   3   3   2   67.51    3.45
  -3  -3  -2   69.05    3.01
  -3  -3  -2   69.52    3.86
  -3  -3  -2   65.77    3.22
  -3  -3  -2   57.69    2.96
   4   3   2    3.74    0.50
   4   3   2    2.90    1.70
   4   3   2    4.03    0.87
   4   3   2    3.36    1.03
  -4  -3  -2    3.60    2.02
  -4  -3  -2    3.48    0.74
  -4  -3  -2    2.87    0.86
  -4  -3  -2    3.10    0.97
   5   3   2   49.39    3.13
   5   3   2   38.28    1.91
   5   3   2   42.09    4.34
   5   3   2   44.42    2.73
  -5  -3  -2   46.56    2.87
  -5  -3  -2   40.94    4.74
  -5  -3  -2   45.02    2.34
  -5  -3  -2   37.96    2.56
   6   3   2    1.11    1.47
   6   3   2    2.11    1.62
  -6  -3  -2    0.10    1.62
  -8   3   3    4.78    2.00
   8  -3  -3    8.42    2.29
  -7   3   3   22.87    1.86
  -7   3   3   24.59    2.49
   7  -3  -3   20.45    1.50
   7  -3  -3   25.66    2.90
   7  -3  -3   21.76    2.94
  -6   3   3   14.10    1.96
  -6   3   3   14.74    2.65
  -6   3   3   16.04    2.08
  -6   3   3   16.82    1.36
   6  -3  -3   15.52    1.12
   6  -3  -3   17.59    2.42
   6  -3  -3   16.87    2.34
  -5   3   3   45.13    3.26
  -5   3   3   51.64    2.30
  -5   3   3   52.42    2.64
  -5   3   3   48.02    2.69
  -5   3   3   49.85    2.69
   5  -3  -3   49.59    3.18
   5  -3  -3   49.81    2.82
   5  -3  -3   46.18    2.49
   5  -3  -3   52.77    2.06
  -4   3   3    0.74    0.55
  -4   3   3    0.16    0.64
  -4   3   3    0.08    1.01
  -4   3   3    0.32    0.49
  -4   3   3    0.44    0.37
   4  -3  -3   -0.25    0.87
   4  -3  -3   -0.44    0.49
   4  -3  -3    0.33    0.28
   4  -3  -3    0.99    0.58
  -3   3   3  232.71    8.81
  -3   3   3  239.76    8.90
  -3   3   3  234.81    8.70
  -3   3   3  242.21    9.16
   3  -3  -3  247.06    9.16
   3  -3  -3  238.06    8.70
   3  -3  -3  245.99    8.78
   3  -3  -3  243.00    9.03
   3  -3  -3  234.48    8.46
  -2   3   3   80.97    3.51
  -2   3   3   84.74    3.41
  -2   3   3   78.75    3.21
  -2   3   3   82.08    3.24
   2  -3  -3   81.05    3.21
   2  -3  -3   77.09    3.18
   2  -3  -3   80.64    3.47
   2  -3  -3   79.20    3.53
   2  -3  -3   82.21    3.00
  -1   3   3  292.60   10.48
  -1   3   3  276.37   10.26
  -1   3   3  294.63    9.93
  -1   3   3  279.06   10.23
  -1   3   3  283.36   10.05
   1  -3  -3  284.02   10.38
   1  -3  -3  264.50    9.83
   1  -3  -3  268.32    9.99
   1  -3  -3  268.73    9.79
   1  -3  -3  269.29   10.26
   0   3   3  154.54    5.86
   0   3   3  149.87    6.27
   0   3   3  157.04    6.17
   0   3   3  149.38    5.59
   0   3   3  157.88    5.90
   0   3   3  161.82    6.20
   0  -3  -3  164.35    5.88
   0  -3  -3  153.33    5.52
   0  -3  -3  159.30    6.32
   0  -3  -3  148.24    5.62
   1   3   3    0.92    0.40
   1   3   3    0.29    0.63
  -1  -3  -3    0.30    0.45
  -1  -3  -3    0.91    0.56
  -1  -3  -3   -0.10    0.78
  -1  -3  -3    0.06    0.31
   2   3   3  202.94    8.31
   2   3   3  211.28    7.92
   2   3   3  211.02    8.01
  -2  -3  -3  207.46    8.06
  -2  -3  -3  213.65    7.80
  -2  -3  -3  214.90    8.60
  -2  -3  -3  221.15    7.98
   3   3   3    3.02    1.31
   3   3   3    4.81    0.94
   3   3   3    4.66    0.90
  -3  -3  -3    3.92    0.88
  -3  -3  -3    4.89    0.80
  -3  -3  -3    4.63    0.98
  -3  -3  -3    5.00    1.71
   4   3   3   29.55    3.60
   4   3   3   34.51    2.60
   4   3   3   38.91    2.34
  -4  -3  -3   34.91    4.42
  -4  -3  -3   39.63    2.28
  -4  -3  -3   36.30    2.35
   5   3   3   13.84    2.14
   5   3   3    9.81    2.35
   5   3   3   14.61    2.43
  -5  -3  -3   10.97    1.53
   6   3   3    8.00    2.15
   6   3   3    8.30    2.23
  -6  -3  -3   13.38    2.17
  -8   3   4   12.98    2.31
   8  -3  -4   11.95    2.48
   8  -3  -4   12.90    1.43
  -7   3   4   -2.71    1.21
  -7   3   4    0.22    0.84
   7  -3  -4   -0.17    0.60
   7  -3  -4    1.34    2.36
  -6   3   4   41.75    2.08
  -6   3   4   43.60    2.78
  -6   3   4   40.70    2.68
  -6   3   4   44.74    3.84
   6  -3  -4   39.04    3.42
   6  -3  -4   33.25    2.91
   6  -3  -4   35.46    1.88
  -5   3   4   14.85    2.14
  -5   3   4   12.48    1.07
  -5   3   4   10.52    1.48
  -5   3   4   10.96    1.56
  -5   3   4   11.19    1.45
   5  -3  -4   13.33    1.80
   5  -3  -4   10.55    1.56
   5  -3  -4   13.96    0.93
  -4   3   4   42.81    1.98
  -4   3   4   39.57    2.70
  -4   3   4   39.86    2.22
  -4   3   4   38.39    2.13
  -4   3   4   42.10    2.18
   4  -3  -4   40.62    2.08
   4  -3  -4   41.57    1.74
   4  -3  -4   41.72    2.61
   4  -3  -4   38.89    2.30
  -3   3   4  140.63    5.58
  -3   3   4  144.56    5.57
  -3   3   4  138.21    5.91
  -3   3   4  146.53    5.47
   3  -3  -4  140.16    5.48
   3  -3  -4  143.16    5.44
   3  -3  -4  148.19    5.76
   3  -3  -4  144.93    5.20
   3  -3  -4  141.48    5.91
  -2   3   4   25.51    1.40
  -2   3   4   26.92    1.86
  -2   3   4   25.86    1.55
  -2   3   4   24.98    1.43
   2  -3  -4   25.42    1.38
   2  -3  -4   24.81    1.59
   2  -3  -4   26.49    1.72
   2  -3  -4   24.58    1.17
   2  -3  -4   25.80    1.36
  -1   3   4  204.12    8.29
  -1   3   4  218.73    8.03
  -1   3   4  205.67    7.67
  -1   3   4  214.69    7.84
  -1   3   4  221.23    8.16
   1  -3  -4  207.34    8.16
   1  -3  -4  203.21    7.77
   1  -3  -4  209.09    7.61
   1  -3  -4  208.05    7.52
   1  -3  -4  215.22    8.13
   0   3   4    0.52    0.89
   0   3   4    0.85    0.50
   0   3   4    0.83    0.77
   0   3   4    1.24    0.44
   0   3   4    1.68    0.84
   0   3   4    1.09    0.54
   0  -3  -4    1.57    0.37
   0  -3  -4    1.09    0.49
   0  -3  -4    2.30    1.04
   0  -3  -4    1.10    0.32
   1   3   4  103.34    4.25
   1   3   4  107.32    4.34
   1   3   4  103.93    4.75
  -1  -3  -4  106.51    4.07
  -1  -3  -4  102.49    4.38
  -1  -3  -4  111.64    4.39
  -1  -3  -4  107.33    4.94
   2   3   4   64.35    3.60
   2   3   4   65.78    3.01
   2   3   4   70.41    3.05
  -2  -3  -4   69.66    3.08
  -2  -3  -4   56.25    2.76
  -2  -3  -4   63.17    3.04
  -2  -3  -4   63.34    3.80
   3   3   4   26.17    1.81
   3   3   4   23.60    2.96
   3   3   4   25.61    1.90
  -3  -3  -4   22.92    3.50
  -3  -3  -4   26.77    1.68
  -3  -3  -4   21.31    2.05
  -3  -3  -4   23.51    1.93
   4   3   4   29.81    2.33
   4   3   4   31.30    2.61
   4   3   4   27.66    3.06
  -4  -3  -4   32.94    4.76
  -4  -3  -4   27.12    2.09
   5   3   4    1.34    1.46
   5   3   4    0.73    1.66
  -5  -3  -4    1.90    1.20
   6   3   4   11.00    2.26
   6   3   4   12.73    2.46
  -6  -3  -4   15.27    2.32
  -8   3   5    2.77    1.80
   8  -3  -5    2.97    0.79
   8  -3  -5    5.48    2.20
  -7   3   5   17.67    1.73
  -7   3   5   19.56    2.53
   7  -3  -5   14.13    1.27
   7  -3  -5   17.63    2.62
   7  -3  -5   17.45    2.89
  -6   3   5   28.25    3.72
  -6   3   5   34.55    2.59
  -6   3   5   32.06    2.53
  -6   3   5   33.12    1.93
   6  -3  -5   29.61    2.75
   6  -3  -5   31.93    3.37
   6  -3  -5   35.15    1.67
  -5   3   5    9.03    1.44
  -5   3   5    7.91    1.88
  -5   3   5    5.17    1.06
  -5   3   5    9.43    1.34
  -5   3   5    6.54    1.07
   5  -3  -5    9.65    1.72
   5  -3  -5    8.37    1.36
   5  -3  -5    6.69    0.75
  -4   3   5  130.70    5.61
  -4   3   5  142.64    6.24
  -4   3   5  147.85    5.50
  -4   3   5  139.12    5.73
   4  -3  -5  141.89    6.15
   4  -3  -5  140.73    5.22
   4  -3  -5  136.37    5.61
   4  -3  -5  147.96    5.89
   4  -3  -5  146.19    5.46
  -3   3   5   23.41    1.51
  -3   3   5   22.87    2.08
  -3   3   5   25.67    1.59
  -3   3   5   24.32    1.46
   3  -3  -5   22.85    1.64
   3  -3  -5   25.70    1.41
   3  -3  -5   22.88    1.87
   3  -3  -5   23.94    1.20
   3  -3  -5   22.22    1.45
  -2   3   5  123.03    4.73
  -2   3   5  119.92    5.12
  -2   3   5  120.48    4.75
  -2   3   5  116.91    4.70
   2  -3  -5  114.96    4.63
   2  -3  -5  117.32    5.07
   2  -3  -5  121.27    4.62
   2  -3  -5  116.41    4.40
   2  -3  -5  114.48    4.91
  -1   3   5   17.03    1.80
  -1   3   5   14.25    1.19
  -1   3   5   12.82    1.89
  -1   3   5   13.91    1.00
  -1   3   5   16.32    1.42
   1  -3  -5   14.03    1.37
   1  -3  -5   11.98    1.57
   1  -3  -5   14.17    1.13
   1  -3  -5   13.54    0.89
   1  -3  -5   15.88    1.05
   0   3   5   91.61    4.43
   0   3   5  105.60    4.16
   0   3   5   98.33    3.99
   0   3   5   95.62    4.70
   0   3   5  100.16    4.52
   0   3   5   95.44    3.92
   0  -3  -5   98.12    3.77
   0  -3  -5   97.38    4.86
   0  -3  -5  100.61    4.08
   0  -3  -5   97.50    3.75
   1   3   5  184.96    7.66
   1   3   5  181.88    6.85
   1   3   5  171.55    6.94
  -1  -3  -5  178.48    6.51
  -1  -3  -5  180.80    6.99
  -1  -3  -5  178.17    6.65
  -1  -3  -5  180.28    7.00
  -1  -3  -5  181.28    7.79
   2   3   5   -0.94    0.57
   2   3   5    0.51    0.65
   2   3   5    0.97    1.35
  -2  -3  -5    0.27    0.52
  -2  -3  -5   -0.75    1.90
  -2  -3  -5    0.40    0.82
  -2  -3  -5    0.37    0.76
   3   3   5   53.20    2.88
   3   3   5   50.95    2.84
   3   3   5   45.26    3.45
  -3  -3  -5   44.79    4.43
  -3  -3  -5   49.38    2.52
   4   3   5    1.32    1.26
   4   3   5    4.37    1.94
   4   3   5    5.07    1.52
  -4  -3  -5    2.93    0.85
  -4  -3  -5   -1.26    2.98
  -4  -3  -5    3.82    1.03
   5   3   5   14.50    2.22
   5   3   5   16.19    2.39
  -5  -3  -5   10.49    1.58
  -8   3   6    1.69    1.80
   8  -3  -6    3.31    2.24
   8  -3  -6    2.18    0.82
  -7   3   6   31.36    2.82
   7  -3  -6   26.99    3.21
   7  -3  -6   29.80    1.69
   7  -3  -6   23.40    3.29
  -6   3   6    0.02    1.19
  -6   3   6    1.12    2.34
  -6   3   6   -0.22    1.06
  -6   3   6   -0.15    0.80
   6  -3  -6   -0.51    0.46
   6  -3  -6    0.01    1.34
   6  -3  -6    1.16    1.88
  -5   3   6   71.65    3.67
  -5   3   6   73.64    4.58
  -5   3   6   74.70    3.30
  -5   3   6   77.01    3.80
  -5   3   6   71.16    3.59
   5  -3  -6   73.88    4.28
   5  -3  -6   79.08    3.85
   5  -3  -6   78.74    3.08
  -4   3   6   22.97    1.76
  -4   3   6   26.50    1.68
  -4   3   6   25.67    1.77
  -4   3   6   23.85    2.60
   4  -3  -6   27.08    1.36
   4  -3  -6   25.88    1.52
   4  -3  -6   24.02    1.74
   4  -3  -6   25.53    2.34
   4  -3  -6   28.16    1.93
  -3   3   6   48.22    2.39
  -3   3   6   45.88    3.05
  -3   3   6   45.67    2.41
  -3   3   6   46.18    2.34
   3  -3  -6   47.93    2.03
   3  -3  -6   49.02    2.27
   3  -3  -6   48.13    2.81
   3  -3  -6   45.01    2.50
   3  -3  -6   45.43    2.30
  -2   3   6  103.97    4.27
  -2   3   6  103.20    4.34
  -2   3   6  102.98    4.85
  -2   3   6  108.33    4.34
   2  -3  -6  105.67    4.21
   2  -3  -6  104.23    4.25
   2  -3  -6  101.73    3.97
   2  -3  -6  101.27    4.52
   2  -3  -6  102.82    4.78
  -1   3   6    9.39    1.31
  -1   3   6    9.01    1.01
  -1   3   6   11.81    1.82
  -1   3   6   11.74    2.01
  -1   3   6    9.66    1.01
  -1   3   6   10.17    1.24
   1  -3  -6    8.42    0.83
   1  -3  -6    9.49    0.96
   1  -3  -6    9.36    1.12
   0   3   6   92.72    4.53
   0   3   6  102.05    4.00
   0   3   6   98.05    4.13
   0   3   6  101.66    5.00
   0   3   6   95.29    4.92
   0   3   6  102.18    4.26
   0  -3  -6   99.68    4.22
   0  -3  -6   94.77    3.83
   0  -3  -6   98.30    3.89
   1   3   6   19.92    1.61
   1   3   6   20.23    2.33
   1   3   6   19.90    2.46
   1   3   6   20.03    1.43
   1   3   6   20.13    1.59
  -1  -3  -6   18.96    1.72
  -1  -3  -6   17.70    1.27
  -1  -3  -6   21.52    3.22
  -1  -3  -6   20.88    1.30
  -1  -3  -6   20.76    1.73
   2   3   6   65.82    3.34
   2   3   6   68.72    3.20
   2   3   6   62.23    3.98
  -2  -3  -6   70.35    2.67
  -2  -3  -6   66.17    2.86
  -2  -3  -6   66.91    2.97
  -2  -3  -6   65.41    3.39
  -2  -3  -6   62.83    4.82
   3   3   6   16.93    2.28
   3   3   6   19.40    2.77
   3   3   6   22.94    2.21
  -3  -3  -6   23.35    1.70
  -3  -3  -6   20.77    3.78
   4   3   6    9.59    1.73
   4   3   6    9.70    1.80
   4   3   6    6.46    2.38
  -4  -3  -6    8.73    1.32
   5   3   6   16.61    2.67
   5   3   6   18.79    2.54
  -5  -3  -6   17.26    2.02
  -8   3   7   13.47    2.35
   8  -3  -7   13.77    1.53
   8  -3  -7   17.26    2.75
  -7   3   7    7.88    1.72
   7  -3  -7    7.84    0.88
   7  -3  -7    6.38    1.98
   7  -3  -7    3.29    2.66
  -6   3   7   21.75    2.43
  -6   3   7   17.92    1.77
  -6   3   7   21.66    2.30
  -6   3   7   26.92    4.05
   6  -3  -7   20.53    3.47
   6  -3  -7   22.50    1.41
   6  -3  -7   20.27    2.74
  -5   3   7   88.62    3.87
  -5   3   7   91.77    5.34
  -5   3   7   83.80    4.11
  -5   3   7   92.03    4.43
   5  -3  -7   91.74    3.78
   5  -3  -7   83.31    4.81
   5  -3  -7   88.17    4.37
   5  -3  -7   93.41    3.60
  -4   3   7    2.96    0.92
  -4   3   7    1.75    0.81
  -4   3   7    3.94    1.78
  -4   3   7    2.43    0.83
   4  -3  -7    2.10    0.48
   4  -3  -7    1.89    0.62
   4  -3  -7    2.66    1.24
   4  -3  -7    4.82    1.12
  -3   3   7   77.83    4.28
  -3   3   7   73.08    3.51
  -3   3   7   76.70    3.41
  -3   3   7   72.94    3.29
   3  -3  -7   75.00    3.28
   3  -3  -7   75.91    3.97
   3  -3  -7   71.36    3.31
   3  -3  -7   77.51    3.62
   3  -3  -7   71.54    3.02
  -2   3   7    8.87    1.28
  -2   3   7    7.06    1.21
  -2   3   7    9.51    1.75
  -2   3   7   10.06    1.84
  -2   3   7    6.79    1.09
   2  -3  -7    7.92    1.13
   2  -3  -7    6.89    0.82
   2  -3  -7    8.15    1.27
   2  -3  -7    9.77    1.67
   2  -3  -7    8.14    1.09
  -1   3   7   74.73    4.28
  -1   3   7   79.32    3.57
  -1   3   7   77.97    4.34
  -1   3   7   75.42    3.49
  -1   3   7   79.31    3.27
  -1   3   7   72.93    3.53
   1  -3  -7   74.16    3.50
   1  -3  -7   78.36    3.12
   1  -3  -7   74.71    3.29
   0   3   7   36.47    3.35
   0   3   7   40.50    2.37
   0   3   7   39.47    3.11
   0   3   7   35.91    2.75
   0   3   7   38.83    2.32
   0   3   7   38.87    1.97
   0  -3  -7   33.25    2.34
   0  -3  -7   39.77    1.87
   0  -3  -7   37.97    2.02
   1   3   7   12.86    2.13
   1   3   7   16.65    2.51
   1   3   7   14.03    2.58
   1   3   7   14.67    1.38
   1   3   7   15.90    1.75
   1   3   7   12.75    1.63
  -1  -3  -7   18.01    3.14
  -1  -3  -7   15.21    1.21
  -1  -3  -7   15.28    1.46
   2   3   7   43.56    3.71
   2   3   7   48.50    3.01
   2   3   7   51.65    2.77
  -2  -3  -7   47.97    2.57
  -2  -3  -7   40.40    4.98
  -2  -3  -7   49.18    2.13
  -2  -3  -7   49.38    2.41
  -2  -3  -7   48.31    3.21
   3   3   7    1.23    1.21
   3   3   7    3.35    2.25
   3   3   7    2.44    1.36
  -3  -3  -7    3.99    3.45
   4   3   7   22.85    3.13
   4   3   7   20.37    3.14
  -4  -3  -7   21.00    2.18
   5   3   7    4.93    2.39
   5   3   7    1.94    2.35
  -8   3   8    8.82    2.24
  -7   3   8    1.91    1.65
   7  -3  -8    2.84    0.75
   7  -3  -8    3.93    1.88
  -6   3   8   29.10    4.48
  -6   3   8   35.43    2.38
  -6   3   8   39.57    2.86
   6  -3  -8   40.38    3.97
   6  -3  -8   39.72    1.98
   6  -3  -8   38.54    3.39
  -5   3   8   10.49    1.65
  -5   3   8   11.25    1.84
  -5   3   8    8.02    2.45
  -5   3   8   12.41    1.57
   5  -3  -8    8.82    1.02
   5  -3  -8   10.51    2.09
   5  -3  -8   13.00    1.37
   5  -3  -8   10.87    1.73
  -4   3   8   58.35    2.89
  -4   3   8   55.44    4.21
  -4   3   8   54.79    3.24
  -4   3   8   52.76    2.79
   4  -3  -8   57.44    2.72
   4  -3  -8   52.35    3.59
   4  -3  -8   52.70    3.09
   4  -3  -8   56.46    2.46
  -3   3   8   28.93    2.01
  -3   3   8   31.62    2.16
  -3   3   8   30.48    1.90
  -3   3   8   29.89    3.33
   3  -3  -8   27.64    1.88
   3  -3  -8   31.37    1.63
   3  -3  -8   36.15    2.91
   3  -3  -8   33.02    2.38
   3  -3  -8   27.77    2.04
  -2   3   8   38.66    2.48
  -2   3   8   41.82    3.40
  -2   3   8   45.37    2.46
  -2   3   8   39.07    3.50
  -2   3   8   35.46    2.23
   2  -3  -8   43.64    2.00
   2  -3  -8   42.13    3.13
   2  -3  -8   39.11    2.27
   2  -3  -8   41.99    2.54
  -1   3   8   93.53    5.22
  -1   3   8   96.33    3.95
  -1   3   8   96.95    4.40
  -1   3   8  100.27    5.44
  -1   3   8  101.11    4.41
  -1   3   8   91.82    4.22
   1  -3  -8   95.27    4.12
   1  -3  -8   96.16    3.87
   0   3   8    0.83    0.66
   0   3   8    1.98    1.17
   0   3   8    1.53    0.91
   0   3   8   -0.57    1.82
   0   3   8    2.33    1.41
   0   3   8   -0.21    1.64
   0  -3  -8   -0.34    0.83
   0  -3  -8    0.75    0.50
   1   3   8   49.28    4.77
   1   3   8   55.65    2.66
   1   3   8   45.20    2.85
   1   3   8   52.48    3.05
   1   3   8   39.89    3.61
   1   3   8   40.31    3.77
  -1  -3  -8   50.06    2.60
  -1  -3  -8   51.51    2.39
  -1  -3  -8   48.70    4.98
   2   3   8   -0.53    2.14
   2   3   8    0.93    1.03
   2   3   8    2.77    1.22
  -2  -3  -8    2.96    3.28
  -2  -3  -8    1.40    0.73
  -2  -3  -8    3.43    1.23
  -2  -3  -8    2.23    0.82
   3   3   8   19.05    3.16
   3   3   8   18.27    2.69
   3   3   8   20.15    2.63
  -3  -3  -8   23.68    1.96
   4   3   8    4.10    2.35
   4   3   8    7.61    2.01
  -4  -3  -8    7.72    1.53
  -7   3   9   21.25    3.07
   7  -3  -9   24.79    1.66
   7  -3  -9   24.05    3.65
  -6   3   9    7.99    1.78
  -6   3   9    9.94    1.50
   6  -3  -9    9.80    1.06
   6  -3  -9    4.66    2.52
   6  -3  -9    8.38    2.09
  -5   3   9   19.06    2.20
  -5   3   9   21.94    2.43
  -5   3   9   21.02    3.16
  -5   3   9   19.38    1.90
   5  -3  -9   18.89    1.38
   5  -3  -9   16.33    2.66
   5  -3  -9   22.30    2.49
   5  -3  -9   19.75    1.83
  -4   3   9   61.50    4.90
  -4   3   9   58.24    3.04
  -4   3   9   64.79    3.20
  -4   3   9   62.34    3.63
   4  -3  -9   62.23    3.14
   4  -3  -9   61.59    2.75
   4  -3  -9   61.51    4.01
   4  -3  -9   60.42    3.47
  -3   3   9    1.08    2.09
  -3   3   9    2.82    1.05
  -3   3   9    1.94    0.87
  -3   3   9    3.87    1.17
   3  -3  -9    1.90    1.16
   3  -3  -9    2.04    1.65
   3  -3  -9    1.95    0.53
  -2   3   9   75.68    3.61
  -2   3   9   62.74    3.15
  -2   3   9   71.02    3.13
  -2   3   9   65.90    4.60
  -2   3   9   73.75    3.80
  -2   3   9   63.56    4.76
   2  -3  -9   70.92    3.03
   2  -3  -9   68.03    3.41
  -1   3   9    7.79    1.16
  -1   3   9    8.43    2.30
  -1   3   9   11.10    1.64
  -1   3   9    9.27    1.49
  -1   3   9    9.51    2.52
  -1   3   9    9.24    1.39
   1  -3  -9    8.92    1.05
   1  -3  -9    8.66    1.37
   0   3   9   42.53    2.87
   0   3   9   43.84    2.28
   0   3   9   41.14    4.10
   0   3   9   39.22    3.11
   0   3   9   37.77    4.35
   0   3   9   36.22    2.94
   0  -3  -9   41.38    2.54
   0  -3  -9   40.63    2.12
   1   3   9   24.36    2.68
   1   3   9   32.14    2.09
   1   3   9   19.51    3.76
   1   3   9   25.62    3.99
   1   3   9   28.28    2.63
   1   3   9   25.13    3.40
  -1  -3  -9   28.70    1.83
  -1  -3  -9   28.61    2.20
   2   3   9    4.57    1.54
   2   3   9    3.96    2.77
   2   3   9    5.36    1.39
  -2  -3  -9    5.58    1.01
  -2  -3  -9    4.87    1.13
   3   3   9   16.16    2.55
   3   3   9   22.04    3.10
  -3  -3  -9   15.93    2.03
  -7   3  10   21.71    3.35
   7  -3 -10   23.75    1.83
   7  -3 -10   20.65    3.66
  -6   3  10    4.33    1.60
  -6   3  10    5.23    1.41
   6  -3 -10    4.08    2.18
   6  -3 -10    5.13    0.87
  -5   3  10   33.26    2.65
  -5   3  10   41.97    2.79
  -5   3  10   41.38    3.23
   5  -3 -10   43.23    4.20
   5  -3 -10   42.44    2.12
   5  -3 -10   39.33    3.40
  -4   3  10    4.73    1.26
  -4   3  10    6.97    2.81
  -4   3  10    2.80    1.38
  -4   3  10    2.91    1.03
   4  -3 -10    3.05    0.70
   4  -3 -10    5.52    1.58
   4  -3 -10    0.35    1.93
  -3   3  10   44.12    4.82
  -3   3  10   45.47    2.58
  -3   3  10   49.41    4.73
  -3   3  10   55.02    3.19
  -3   3  10   48.12    3.52
   3  -3 -10   45.19    2.36
   3  -3 -10   49.54    3.08
  -2   3  10   19.47    1.55
  -2   3  10   19.28    2.21
  -2   3  10   18.85    2.65
  -2   3  10   17.62    3.17
  -2   3  10   18.32    1.82
  -2   3  10   16.78    3.06
   2  -3 -10   17.37    1.44
  -1   3  10    7.24    1.76
  -1   3  10    7.88    1.26
  -1   3  10    9.46    1.64
  -1   3  10    5.41    1.38
  -1   3  10    3.02    2.43
  -1   3  10    5.27    3.03
   1  -3 -10    6.77    0.94
   1  -3 -10    6.19    1.48
   0   3  10   25.48    2.53
   0   3  10   28.63    2.01
   0   3  10   26.11    3.06
   0   3  10   28.97    4.00
   0   3  10   23.58    2.70
   0   3  10   35.11    4.50
   0  -3 -10   25.05    2.30
   0  -3 -10   27.75    1.80
   1   3  10    2.46    2.93
   1   3  10    0.98    1.17
   1   3  10    2.76    1.46
  -1  -3 -10   -1.58    1.17
  -1  -3 -10   -1.02    0.74
   2   3  10   18.02    3.87
   2   3  10   29.49    3.16
   2   3  10   21.30    3.02
  -2  -3 -10   22.39    2.03
   3   3  10    3.30    2.21
   3   3  10   -0.16    2.16
  -3  -3 -10    0.65    1.31
  -6   3  11   23.11    3.31
  -6   3  11   17.18    2.84
   6  -3 -11   26.49    3.96
   6  -3 -11   22.05    1.85
  -5   3  11   13.68    2.38
  -5   3  11   14.93    2.52
   5  -3 -11   15.91    2.30
   5  -3 -11   13.76    1.46
  -4   3  11    6.20    1.60
  -4   3  11    6.21    1.88
   4  -3 -11    8.01    1.80
   4  -3 -11    5.85    0.92
   4  -3 -11    7.37    2.78
  -3   3  11   36.25    3.39
  -3   3  11   33.80    5.11
  -3   3  11   41.82    2.86
  -3   3  11   37.91    2.44
   3  -3 -11   35.39    2.12
  -2   3  11    0.55    0.88
  -2   3  11    3.28    1.47
  -2   3  11   -0.87    1.86
  -2   3  11    2.67    2.83
  -2   3  11    6.39    2.71
   2  -3 -11    1.56    0.74
  -1   3  11   31.89    3.68
  -1   3  11   31.42    2.12
  -1   3  11   27.40    4.03
  -1   3  11   30.85    2.85
   1  -3 -11   32.59    1.96
   0   3  11    2.99    2.21
   0   3  11    4.23    1.59
   0   3  11    4.99    1.12
   0   3  11    2.86    3.21
   0  -3 -11    2.72    0.86
   1   3  11   11.19    2.13
   1   3  11    6.68    3.66
   1   3  11   14.56    2.34
  -1  -3 -11   15.53    2.41
  -1  -3 -11    7.75    1.29
   2   3  11   14.78    2.50
  -2  -3 -11   13.89    1.72
  -6   3  12   13.00    2.76
   6  -3 -12   15.59    1.85
  -5   3  12   -2.10    2.13
  -5   3  12    1.79    1.58
   5  -3 -12   -0.99    0.76
  -4   3  12   25.31    2.73
  -4   3  12   18.24    5.02
  -4   3  12   28.63    3.78
   4  -3 -12   27.01    1.95
  -3   3  12    0.94    3.86
  -3   3  12    3.81    2.32
  -3   3  12    2.86    1.49
   3  -3 -12    3.54    0.92
  -2   3  12   24.13    3.25
  -2   3  12   20.87    2.83
  -2   3  12   20.90    4.31
   2  -3 -12   23.20    1.79
  -1   3  12   26.53    2.87
  -1   3  12   23.57    4.48
  -1   3  12   17.04    3.12
   1  -3 -12   24.47    1.95
   0   3  12    2.66    1.69
   0   3  12    2.24    3.85
   0   3  12    9.85    3.18
   0  -3 -12    6.52    1.28
   1   3  12   26.53    3.60
  -1  -3 -12   19.45    2.40
  -4   3  13    7.70    1.85
  -4   3  13   10.35    2.92
  -4   3  13    8.48    4.72
   4  -3 -13   11.06    1.76
  -3   3  13    6.07    1.71
  -3   3  13    9.11    2.92
  -3   3  13   -1.08    4.34
   3  -3 -13    3.58    1.31
  -2   3  13   15.08    2.30
  -2   3  13   19.50    3.53
  -2   3  13   10.76    5.01
   2  -3 -13   15.61    2.01
  -1   3  13    0.34    2.99
  -1   3  13   -0.72    1.80
  -1   3  13   -2.27    4.48
   1  -3 -13   -0.35    1.21
   0   3  13    7.15    2.38
   1   4 -14    2.31    1.25
  -1  -4  14    1.62    4.51
  -1  -4  14    4.69    2.49
  -1  -4  14    5.96    3.83
  -2  -4  14    9.95    2.62
  -2  -4  14   12.37    4.16
  -2  -4  14    7.43    4.79
  -1   4 -13   17.20    2.37
  -1   4 -13   14.08    1.86
   1  -4  13    2.11    4.46
   1  -4  13   14.86    2.85
   0   4 -13   -0.87    0.84
   0  -4  13   -3.46    3.87
   0  -4  13   -1.59    3.21
   0  -4  13   -2.04    1.96
   1   4 -13   19.26    1.73
  -1  -4  13   14.10    3.61
  -1  -4  13   22.24    3.44
  -1  -4  13   20.93    4.32
   2   4 -13    1.08    0.84
  -2  -4  13   -0.54    3.93
  -2  -4  13    2.85    1.92
  -2  -4  13    1.42    3.10
   3   4 -13    7.74    1.31
  -3  -4  13   11.35    4.16
  -3  -4  13    8.79    3.40
  -3  -4  13    5.50    3.43
   4   4 -13   10.71    1.53
  -4  -4  13    9.52    3.46
  -2   4 -12    9.79    1.26
  -2   4 -12   12.85    2.21
   2  -4  12   13.00    4.28
   2  -4  12    7.09    2.29
   1  -4  12    8.17    2.14
   1  -4  12    5.52    3.05
   1  -4  12    5.36    4.00
   0   4 -12   16.16    1.48
   0  -4  12   20.56    3.60
   0  -4  12   11.22    3.54
   0  -4  12   14.44    2.45
   1   4 -12   10.61    1.34
  -1  -4  12    4.18    2.67
  -1  -4  12   17.21    3.57
  -1  -4  12   12.61    2.14
   2   4 -12    5.79    1.00
  -2  -4  12    4.47    2.75
  -2  -4  12    6.54    2.05
  -2  -4  12    6.21    3.36
   3   4 -12   34.33    2.13
  -3  -4  12   33.31    4.59
  -3  -4  12   38.90    3.30
   4   4 -12    2.03    0.94
  -4  -4  12    1.37    2.73
   5   4 -12   23.05    2.10
  -5  -4  12   14.11    3.56
  -3   4 -11    6.57    1.29
  -3   4 -11    6.37    2.14
   3  -4  11    4.61    2.53
   3  -4  11   10.65    4.25
  -2   4 -11    6.71    0.98
  -2   4 -11   10.47    1.94
   2  -4  11    6.51    3.44
   2  -4  11    3.17    1.99
  -1   4 -11    6.17    0.90
   1  -4  11    5.64    1.84
   1  -4  11    8.74    2.77
   1  -4  11    6.48    3.15
   0   4 -11   31.38    1.82
   0  -4  11   29.52    3.94
   0  -4  11   30.54    3.14
   0  -4  11   33.96    4.59
   1   4 -11    0.45    0.59
  -1  -4  11    1.66    2.46
  -1  -4  11   -0.13    1.52
  -1  -4  11    3.41    2.35
  -1  -4  11   -1.64    3.14
   2   4 -11   23.10    1.60
  -2  -4  11   22.24    3.23
  -2  -4  11   27.10    2.56
  -2  -4  11   29.02    4.53
   3   4 -11   22.21    1.60
  -3  -4  11   21.52    2.48
  -3  -4  11   27.59    3.73
   4   4 -11   19.73    1.60
  -4  -4  11   21.00    3.20
   5   4 -11   17.25    1.88
  -5  -4  11   21.57    3.32
  -4   4 -10    2.68    2.08
   4  -4  10   -1.22    2.32
   4  -4  10    4.63    4.22
  -3   4 -10   28.37    2.89
  -3   4 -10   27.67    1.94
   3  -4  10   22.61    3.26
   3  -4  10   23.00    4.16
  -2   4 -10   -0.93    1.44
  -2   4 -10   -0.26    0.67
   2  -4  10    1.33    1.65
   2  -4  10    0.25    2.80
  -1   4 -10   17.68    1.40
   1  -4  10   19.10    2.76
   1  -4  10   19.18    3.16
   1  -4  10   16.38    2.87
   0   4 -10    6.37    0.76
   0  -4  10    6.45    1.66
   0  -4  10    6.44    2.22
   0  -4  10    8.93    1.93
   0  -4  10    8.39    2.49
   1   4 -10   35.58    1.82
  -1  -4  10   33.68    3.07
  -1  -4  10   34.97    3.70
  -1  -4  10   33.09    2.68
  -1  -4  10   38.57    3.96
   2   4 -10   20.31    1.38
   2   4 -10   16.46    1.82
  -2  -4  10   20.11    2.12
  -2  -4  10   18.65    2.70
  -2  -4  10   15.12    2.63
   3   4 -10    0.42    0.48
   3   4 -10    0.29    1.05
  -3  -4  10   -1.34    1.70
  -3  -4  10    1.96    1.14
  -3  -4  10    1.87    1.88
   4   4 -10   50.38    2.45
   4   4 -10   46.05    2.43
  -4  -4  10   51.79    4.28
   5   4 -10    1.15    0.71
   5   4 -10    0.84    1.16
  -5  -4  10   -1.12    2.19
   6   4 -10   19.73    2.04
  -6  -4  10   13.68    2.87
  -5   4  -9   -4.16    2.29
   5  -4   9   -3.57    4.55
   5  -4   9   -1.11    2.60
   5  -4   9    4.05    2.47
  -4   4  -9   13.06    2.12
   4  -4   9    9.12    1.99
   4  -4   9   12.22    2.63
   4  -4   9   10.78    3.77
  -3   4  -9   15.50    1.45
  -3   4  -9    7.81    1.46
  -3   4  -9   14.59    2.33
   3  -4   9   13.09    2.38
   3  -4   9   11.03    1.69
   3  -4   9    9.13    3.06
  -2   4  -9   15.38    1.27
  -2   4  -9   12.99    1.82
   2  -4   9   17.25    2.52
   2  -4   9   17.35    3.03
  -1   4  -9   21.14    1.37
   1  -4   9   16.52    2.46
   1  -4   9   21.48    3.06
   1  -4   9   20.42    2.60
   1  -4   9   21.65    2.99
   0   4  -9    2.46    1.21
   0   4  -9    4.76    0.69
   0  -4   9    5.92    1.51
   0  -4   9    7.82    2.16
   0  -4   9    6.18    1.43
   0  -4   9    5.62    2.10
   1   4  -9   77.69    3.66
   1   4  -9   79.65    3.23
  -1  -4   9   76.42    4.82
  -1  -4   9   82.40    3.84
  -1  -4   9   74.96    4.66
  -1  -4   9   75.60    4.07
   2   4  -9    1.19    0.83
   2   4  -9   -0.13    0.42
  -2  -4   9    0.27    1.32
  -2  -4   9    0.58    0.86
  -2  -4   9    2.21    1.71
   3   4  -9   71.72    3.13
   3   4  -9   70.66    3.03
  -3  -4   9   68.62    3.27
  -3  -4   9   66.74    4.40
  -3  -4   9   67.07    3.91
   4   4  -9   24.23    1.53
   4   4  -9   23.19    1.72
  -4  -4   9   23.82    3.29
  -4  -4   9   17.36    2.98
  -4  -4   9   23.16    1.81
   5   4  -9   25.17    2.29
   5   4  -9   24.47    1.70
  -5  -4   9   29.35    3.57
   6   4  -9   31.45    2.22
   6   4  -9   33.48    3.15
  -6  -4   9   29.80    4.12
  -5   4  -8    8.64    2.21
   5  -4   8    7.54    2.63
   5  -4   8    4.23    4.04
   5  -4   8    9.61    2.33
  -4   4  -8    8.54    1.44
  -4   4  -8   15.85    2.40
   4  -4   8   11.00    3.33
   4  -4   8   15.87    2.56
   4  -4   8   13.26    2.42
  -3   4  -8    3.04    0.71
  -3   4  -8    3.09    0.90
  -3   4  -8    5.52    1.51
   3  -4   8    1.72    1.17
   3  -4   8    2.36    1.46
   3  -4   8    0.83    2.54
  -2   4  -8   30.62    2.23
  -2   4  -8   24.88    1.51
  -2   4  -8   28.05    1.51
   2  -4   8   30.29    2.79
   2  -4   8   25.63    3.40
   2  -4   8   25.08    1.87
  -1   4  -8    0.16    0.47
  -1   4  -8    1.00    0.96
   1  -4   8   -0.39    1.48
   1  -4   8   -0.07    1.05
   1  -4   8    0.05    1.48
   0   4  -8   62.19    3.12
   0   4  -8   59.93    2.55
   0  -4   8   56.93    3.40
   0  -4   8   65.23    3.26
   0  -4   8   59.41    3.63
   0  -4   8   66.40    3.99
   1   4  -8   25.35    1.33
   1   4  -8   24.75    1.76
  -1  -4   8   24.65    1.86
  -1  -4   8   20.47    2.60
  -1  -4   8   19.11    2.64
   2   4  -8   52.07    2.50
   2   4  -8   51.28    2.28
  -2  -4   8   50.91    3.52
  -2  -4   8   50.50    3.01
  -2  -4   8   51.18    2.65
   3   4  -8   73.00    3.03
   3   4  -8   67.21    2.94
  -3  -4   8   72.07    3.08
  -3  -4   8   67.81    3.76
  -3  -4   8   73.02    4.32
   4   4  -8   10.01    1.83
   4   4  -8    9.29    1.05
   4   4  -8   11.53    1.41
  -4  -4   8   13.09    1.82
  -4  -4   8   10.81    1.69
  -4  -4   8    8.91    1.55
  -4  -4   8   11.15    2.07
   5   4  -8   56.30    3.16
   5   4  -8   55.66    2.66
  -5  -4   8   52.67    4.13
  -5  -4   8   57.13    3.56
   6   4  -8   -1.36    1.57
   6   4  -8    0.22    0.73
  -6  -4   8    2.96    2.26
  -6  -4   8   -1.37    1.52
  -6   4  -7    0.90    2.03
   6  -4   7   -1.24    2.91
   6  -4   7   -0.45    2.39
   6  -4   7    6.75    4.77
  -5   4  -7   21.68    2.90
   5  -4   7   21.19    3.92
   5  -4   7   16.98    2.81
   5  -4   7   15.51    2.44
  -4   4  -7   -0.08    1.07
  -4   4  -7    0.87    1.34
   4  -4   7    0.38    1.34
   4  -4   7    1.49    1.62
   4  -4   7    1.36    2.56
  -3   4  -7   49.43    2.76
  -3   4  -7   43.53    2.29
  -3   4  -7   44.39    2.02
   3  -4   7   45.59    3.92
   3  -4   7   46.85    3.41
   3  -4   7   53.06    2.73
  -2   4  -7   10.59    1.38
  -2   4  -7    7.26    2.17
  -2   4  -7   10.26    0.99
  -2   4  -7   10.88    0.92
   2  -4   7    9.09    1.80
   2  -4   7    9.90    1.28
   2  -4   7   10.46    1.77
  -1   4  -7   40.60    1.77
  -1   4  -7   39.94    2.96
  -1   4  -7   40.63    2.39
   1  -4   7   39.69    2.83
   1  -4   7   41.34    3.07
   1  -4   7   42.05    2.50
   0   4  -7   85.13    3.70
   0   4  -7   71.57    4.05
   0   4  -7   84.84    3.24
   0  -4   7   86.72    3.85
   0  -4   7   81.61    4.03
   0  -4   7   85.29    4.41
   1   4  -7    6.65    1.35
   1   4  -7    6.17    0.91
   1   4  -7    6.11    0.69
  -1  -4   7    7.98    1.09
  -1  -4   7    8.51    1.54
   2   4  -7   71.43    2.90
   2   4  -7   66.95    3.55
   2   4  -7   68.53    2.82
   2   4  -7   71.60    2.99
  -2  -4   7   70.41    3.83
  -2  -4   7   69.79    3.45
  -2  -4   7   72.21    3.12
   3   4  -7    0.12    0.96
   3   4  -7    2.36    0.67
  -3  -4   7    5.83    1.45
  -3  -4   7    1.21    1.12
  -3  -4   7    2.10    0.96
  -3  -4   7    3.30    0.79
   4   4  -7   56.51    2.92
   4   4  -7   57.09    3.33
  -4  -4   7   52.35    2.82
  -4  -4   7   60.10    3.33
  -4  -4   7   58.41    3.51
  -4  -4   7   60.24    3.76
   5   4  -7   12.88    1.73
  -5  -4   7   14.38    1.82
  -5  -4   7   13.01    2.15
   6   4  -7   26.52    2.66
  -6  -4   7   26.13    3.31
  -6  -4   7   25.75    2.82
  -6   4  -6    9.37    2.11
   6  -4   6   10.26    2.83
   6  -4   6    9.60    2.27
   6  -4   6   11.58    3.95
  -5   4  -6    6.63    1.68
   5  -4   6    7.60    1.96
   5  -4   6    6.43    3.02
   5  -4   6    6.75    2.23
  -4   4  -6   18.74    1.97
  -4   4  -6   15.67    1.74
   4  -4   6   12.29    2.08
   4  -4   6   13.53    2.51
   4  -4   6   12.90    2.06
  -3   4  -6   43.07    2.33
  -3   4  -6   37.57    2.04
  -3   4  -6   34.51    3.48
  -3   4  -6   39.65    1.72
   3  -4   6   38.80    2.91
   3  -4   6   40.35    3.19
   3  -4   6   44.33    2.38
  -2   4  -6   14.89    0.88
  -2   4  -6   15.25    1.33
  -2   4  -6   14.24    1.62
  -2   4  -6   15.04    2.44
  -2   4  -6   13.78    1.11
  -2   4  -6   15.62    2.36
   2  -4   6   12.55    1.25
   2  -4   6   15.08    1.65
   2  -4   6   18.48    2.00
  -1   4  -6  105.38    3.85
  -1   4  -6  106.49    4.44
  -1   4  -6  102.00    3.88
  -1   4  -6   97.56    4.84
   1  -4   6  104.12    4.02
   1  -4   6  107.01    4.99
   1  -4   6   99.82    4.60
   1  -4   6  106.73    4.56
   0   4  -6    1.35    0.94
   0   4  -6    0.13    0.31
   0   4  -6    0.47    0.64
   0  -4   6    0.63    0.82
   0  -4   6    1.24    0.83
   0  -4   6    0.09    0.89
   0  -4   6    0.39    0.62
   1   4  -6  113.30    4.51
   1   4  -6  114.75    4.28
   1   4  -6  107.70    4.92
   1   4  -6  114.57    4.37
  -1  -4   6  113.32    4.62
  -1  -4   6  113.73    4.69
  -1  -4   6  117.62    5.25
  -1  -4   6  111.74    4.73
   2   4  -6   28.13    1.41
   2   4  -6   24.47    1.91
   2   4  -6   26.17    1.37
  -2  -4   6   26.39    1.45
  -2  -4   6   26.61    1.97
  -2  -4   6   25.08    2.14
  -2  -4   6   25.75    1.58
   3   4  -6   35.07    2.17
   3   4  -6   37.55    1.93
  -3  -4   6   37.48    2.50
  -3  -4   6   37.95    2.40
  -3  -4   6   32.44    2.35
  -3  -4   6   34.31    1.95
   4   4  -6   52.38    3.11
   4   4  -6   48.85    2.71
  -4  -4   6   52.27    2.74
  -4  -4   6   53.79    3.28
  -4  -4   6   50.85    3.17
  -4  -4   6   53.39    3.13
   5   4  -6   12.78    1.83
   5   4  -6    8.20    1.79
  -5  -4   6   10.15    1.66
  -5  -4   6    9.56    1.94
   6   4  -6   41.21    3.17
  -6  -4   6   39.70    3.55
  -6  -4   6   39.94    3.37
   7   4  -6    7.26    2.02
  -7  -4   6    4.97    2.63
  -7  -4   6    7.18    2.61
  -7   4  -5    4.27    2.04
   7  -4   5    2.51    2.54
   7  -4   5    1.65    3.07
   7  -4   5   -1.98    4.58
  -6   4  -5    9.47    1.89
   6  -4   5    8.34    2.47
   6  -4   5   11.02    2.18
   6  -4   5    5.30    3.43
  -5   4  -5    2.16    1.32
   5  -4   5    1.59    1.59
   5  -4   5    0.19    1.49
   5  -4   5    4.68    2.56
  -4   4  -5   29.72    2.02
  -4   4  -5   23.09    1.84
   4  -4   5   25.63    3.08
   4  -4   5   27.35    2.67
   4  -4   5   28.67    2.23
  -3   4  -5    0.27    0.40
  -3   4  -5    1.25    1.48
  -3   4  -5    0.68    0.65
  -3   4  -5   -0.03    0.97
  -3   4  -5    1.62    1.35
  -3   4  -5   -0.47    0.65
   3  -4   5    1.16    0.94
   3  -4   5    0.32    0.73
   3  -4   5    1.20    1.16
  -2   4  -5   65.68    3.32
  -2   4  -5   61.46    3.56
  -2   4  -5   62.89    3.11
  -2   4  -5   61.41    2.77
  -2   4  -5   65.46    2.91
  -2   4  -5   64.44    2.44
   2  -4   5   72.49    3.36
   2  -4   5   65.78    2.86
   2  -4   5   65.19    3.30
  -1   4  -5   30.79    2.35
  -1   4  -5   30.59    1.41
  -1   4  -5   30.62    1.29
  -1   4  -5   32.35    1.89
   1  -4   5   26.37    1.92
   1  -4   5   33.87    1.99
   1  -4   5   30.04    1.77
   1  -4   5   28.87    2.24
   0   4  -5   58.41    2.32
   0   4  -5   60.88    2.39
   0   4  -5   56.42    2.68
   0   4  -5   58.21    3.09
   0   4  -5   57.99    2.37
   0  -4   5   62.44    3.24
   0  -4   5   59.01    2.79
   0  -4   5   60.57    2.71
   1   4  -5  158.32    5.76
   1   4  -5  144.96    6.14
   1   4  -5  152.93    5.59
   1   4  -5  152.38    5.81
  -1  -4   5  144.72    5.93
  -1  -4   5  155.12    5.84
  -1  -4   5  152.46    6.35
   2   4  -5    4.63    0.54
   2   4  -5    3.60    0.64
   2   4  -5    4.66    0.86
  -2  -4   5    6.35    1.17
  -2  -4   5    4.17    0.70
  -2  -4   5    3.62    0.84
  -2  -4   5    5.51    0.98
   3   4  -5  140.69    5.59
   3   4  -5  141.92    5.72
  -3  -4   5  139.29    5.55
  -3  -4   5  140.51    5.93
  -3  -4   5  148.42    5.90
  -3  -4   5  144.86    6.04
   4   4  -5   18.77    1.68
   4   4  -5   17.55    1.59
   4   4  -5   18.99    2.09
  -4  -4   5   17.05    1.91
  -4  -4   5   19.13    2.05
  -4  -4   5   18.54    1.90
  -4  -4   5   19.10    1.68
   5   4  -5   36.94    2.84
  -5  -4   5   33.73    2.72
  -5  -4   5   38.65    3.22
  -5  -4   5   39.02    2.87
   6   4  -5    7.86    1.71
  -6  -4   5    8.08    1.66
  -6  -4   5   10.14    2.08
   7   4  -5    8.06    2.12
  -7  -4   5    4.25    2.40
  -7  -4   5    5.26    2.24
  -7   4  -4    5.09    1.96
   7  -4   4    5.04    2.37
   7  -4   4    6.15    4.22
   7  -4   4    8.38    3.03
  -6   4  -4    0.46    1.34
   6  -4   4   -0.20    2.90
   6  -4   4    2.56    1.92
   6  -4   4    0.79    1.82
  -5   4  -4   25.86    2.26
   5  -4   4   29.57    2.81
   5  -4   4   29.84    3.07
   5  -4   4   28.51    3.66
  -4   4  -4   14.13    1.53
  -4   4  -4    9.02    1.94
  -4   4  -4   15.15    1.44
  -4   4  -4   13.18    2.02
  -4   4  -4   10.46    2.17
   4  -4   4   12.68    2.05
   4  -4   4   16.87    1.75
   4  -4   4   13.25    2.20
   4  -4   4   15.40    1.29
  -3   4  -4   32.57    1.88
  -3   4  -4   33.21    1.83
  -3   4  -4   35.81    2.58
  -3   4  -4   34.06    2.58
  -3   4  -4   34.52    2.21
   3  -4   4   32.68    1.98
   3  -4   4   34.44    2.36
   3  -4   4   33.94    2.31
  -2   4  -4   71.70    2.97
  -2   4  -4   70.73    3.29
  -2   4  -4   71.80    3.02
  -2   4  -4   66.92    3.56
  -2   4  -4   69.08    3.32
   2  -4   4   67.03    3.30
   2  -4   4   76.45    3.45
   2  -4   4   71.05    3.04
  -1   4  -4   15.37    1.03
  -1   4  -4   14.04    0.72
  -1   4  -4   12.88    1.25
  -1   4  -4   14.08    0.93
  -1   4  -4   16.58    1.62
   1  -4   4   16.45    1.32
   1  -4   4   16.89    1.54
   1  -4   4   13.14    1.26
   0   4  -4  198.95    7.49
   0   4  -4  202.14    7.37
   0   4  -4  194.17    7.27
   0   4  -4  201.84    7.86
   0  -4   4  200.93    7.91
   0  -4   4  196.50    7.54
   0  -4   4  208.39    7.44
   1   4  -4   45.96    2.46
   1   4  -4   48.48    2.11
   1   4  -4   51.85    2.17
   1   4  -4   48.83    2.36
  -1  -4   4   47.38    2.64
  -1  -4   4   48.40    2.38
  -1  -4   4   50.87    2.29
   2   4  -4  149.76    5.77
   2   4  -4  157.89    5.96
  -2  -4   4  145.94    5.88
  -2  -4   4  161.57    6.19
  -2  -4   4  151.14    6.03
  -2  -4   4  147.38    5.75
   3   4  -4   95.28    3.90
   3   4  -4   88.16    3.83
  -3  -4   4   87.15    4.11
  -3  -4   4   92.01    3.87
  -3  -4   4   93.01    4.11
  -3  -4   4   93.04    4.10
   4   4  -4   25.64    1.84
   4   4  -4   26.31    1.68
   4   4  -4   25.51    2.15
  -4  -4   4   26.24    2.10
  -4  -4   4   28.36    2.12
  -4  -4   4   25.55    1.92
  -4  -4   4   26.99    2.29
   5   4  -4   56.96    3.46
   5   4  -4   64.10    3.69
   5   4  -4   58.04    3.00
  -5  -4   4   63.99    3.42
  -5  -4   4   58.51    3.89
  -5  -4   4   63.79    3.54
   6   4  -4    2.80    1.62
  -6  -4   4   -1.39    1.41
  -6  -4   4    2.23    1.72
   7   4  -4   25.15    3.32
  -7  -4   4   26.68    3.29
  -7  -4   4   23.07    3.77
  -7   4  -3    2.06    1.70
   7  -4   3    3.83    2.07
   7  -4   3    3.21    2.37
   7  -4   3   10.10    3.69
  -6   4  -3    4.54    1.33
   6  -4   3    4.38    2.01
   6  -4   3    3.90    2.69
   6  -4   3    6.30    1.71
  -5   4  -3   35.54    2.36
   5  -4   3   40.31    3.00
   5  -4   3   36.13    3.23
   5  -4   3   37.51    2.78
  -4   4  -3    7.97    1.28
  -4   4  -3    8.14    1.35
  -4   4  -3    9.05    1.17
  -4   4  -3    9.02    1.70
   4  -4   3    9.20    1.62
   4  -4   3   10.62    1.48
   4  -4   3    8.20    1.32
   4  -4   3    7.40    0.98
  -3   4  -3  126.33    5.40
  -3   4  -3  129.87    5.04
  -3   4  -3  125.13    5.33
  -3   4  -3  129.73    5.14
   3  -4   3  124.34    4.96
   3  -4   3  132.63    5.22
   3  -4   3  133.11    5.52
   3  -4   3  130.32    5.46
  -2   4  -3   12.34    1.50
  -2   4  -3   15.54    1.00
  -2   4  -3   15.93    1.38
  -2   4  -3   14.29    1.40
  -2   4  -3   16.82    1.18
   2  -4   3   19.06    1.46
   2  -4   3   15.49    1.17
   2  -4   3   13.06    1.27
  -1   4  -3   75.98    3.39
  -1   4  -3   81.87    3.22
  -1   4  -3   81.93    3.67
  -1   4  -3   81.54    3.24
   1  -4   3   77.99    3.14
   1  -4   3   81.86    3.38
   1  -4   3   80.67    3.50
   0   4  -3   33.25    1.69
   0   4  -3   35.45    1.64
   0   4  -3   31.36    2.00
   0   4  -3   32.44    1.73
   0  -4   3   33.14    1.64
   0  -4   3   33.63    1.99
   0  -4   3   32.28    1.78
   1   4  -3  187.96    7.32
   1   4  -3  193.18    7.30
   1   4  -3  207.96    7.61
  -1  -4   3  198.08    7.48
  -1  -4   3  223.07    7.80
  -1  -4   3  194.45    7.35
   2   4  -3  191.75    7.24
   2   4  -3  196.27    7.27
  -2  -4   3  195.20    7.42
  -2  -4   3  191.88    7.42
  -2  -4   3  194.65    7.25
   3   4  -3    5.70    0.94
   3   4  -3    4.54    0.80
   3   4  -3    4.93    0.70
  -3  -4   3    3.55    0.88
  -3  -4   3    3.88    0.94
  -3  -4   3    4.87    0.89
  -3  -4   3    2.90    0.98
   4   4  -3  122.51    5.29
   4   4  -3  126.28    4.88
   4   4  -3  123.07    5.22
  -4  -4   3  129.06    5.19
  -4  -4   3  113.57    5.16
  -4  -4   3  123.60    5.37
   5   4  -3   11.23    1.95
   5   4  -3    8.99    1.81
   5   4  -3   10.75    1.22
  -5  -4   3   12.64    1.65
  -5  -4   3    9.18    1.39
  -5  -4   3    9.18    2.08
   6   4  -3   19.67    2.73
  -6  -4   3   21.26    2.78
  -6  -4   3   23.56    2.72
   7   4  -3   11.69    2.24
  -7  -4   3   12.27    2.63
  -8   4  -2    2.58    2.24
   8  -4   2    6.74    4.56
   8  -4   2    5.13    2.79
  -7   4  -2    2.56    1.54
   7  -4   2   -3.13    1.83
   7  -4   2    0.30    2.09
   7  -4   2    6.21    3.50
  -6   4  -2   23.77    2.28
   6  -4   2   20.06    3.02
   6  -4   2   23.93    2.75
   6  -4   2   24.71    3.81
  -5   4  -2    7.13    2.23
  -5   4  -2    8.55    1.37
  -5   4  -2    8.66    1.45
   5  -4   2    9.79    1.56
   5  -4   2    9.86    1.84
   5  -4   2    9.03    1.37
  -4   4  -2   81.38    3.88
  -4   4  -2   86.13    3.62
  -4   4  -2   81.22    3.75
  -4   4  -2   82.58    4.18
   4  -4   2   81.78    3.49
   4  -4   2   87.99    3.89
   4  -4   2   86.88    4.05
   4  -4   2   85.81    4.09
  -3   4  -2   40.87    2.31
  -3   4  -2   39.35    2.04
  -3   4  -2   40.81    1.94
  -3   4  -2   39.24    2.31
   3  -4   2   38.58    2.28
   3  -4   2   39.72    1.87
   3  -4   2   39.03    2.28
   3  -4   2   40.13    2.12
  -2   4  -2   47.27    2.19
  -2   4  -2   48.45    2.21
  -2   4  -2   44.91    2.35
   2  -4   2   46.25    2.21
   2  -4   2   48.11    2.20
   2  -4   2   45.92    2.01
   2  -4   2   43.99    2.35
  -1   4  -2   95.64    3.67
  -1   4  -2   96.29    3.95
  -1   4  -2   98.27    3.85
  -1   4  -2   99.10    4.08
   1  -4   2   95.53    3.94
   1  -4   2   92.19    3.95
   0   4  -2   37.35    1.89
   0   4  -2   30.73    1.59
   0   4  -2   29.35    1.60
   0   4  -2   33.10    1.81
   0  -4   2   36.18    1.92
   0  -4   2   31.96    1.70
   0  -4   2   30.62    1.54
   1   4  -2  549.75   19.77
   1   4  -2  550.26   19.65
   1   4  -2  572.93   19.91
   1   4  -2  546.97   19.86
  -1  -4   2  607.43   20.11
  -1  -4   2  572.93   19.90
  -1  -4   2  543.08   19.89
   2   4  -2    4.19    0.60
   2   4  -2    4.58    0.72
  -2  -4   2    3.78    0.86
  -2  -4   2    5.37    0.83
  -2  -4   2    4.64    0.82
   3   4  -2   70.40    3.21
   3   4  -2   72.70    3.27
   3   4  -2   70.47    2.89
  -3  -4   2   68.29    3.08
  -3  -4   2   65.14    3.29
  -3  -4   2   71.74    3.42
  -3  -4   2   69.73    3.19
   4   4  -2   51.15    2.99
   4   4  -2   53.10    2.38
   4   4  -2   51.98    2.85
  -4  -4   2   54.69    2.99
  -4  -4   2   53.08    3.26
  -4  -4   2   54.55    2.68
   5   4  -2   21.83    2.67
   5   4  -2   23.34    1.57
   5   4  -2   22.97    2.28
  -5  -4   2   22.70    2.32
  -5  -4   2   18.36    2.81
  -5  -4   2   21.14    2.00
   6   4  -2   42.24    3.39
  -6  -4   2   44.48    3.15
  -6  -4   2   45.56    3.33
   7   4  -2    0.95    2.07
  -7  -4   2   -2.79    2.12
  -8   4  -1    1.77    2.06
   8  -4   1    1.20    2.29
   8  -4   1    3.66    2.36
   8  -4   1   -4.37    4.11
  -7   4  -1   13.41    1.94
   7  -4   1   14.20    2.51
   7  -4   1   16.43    2.29
   7  -4   1   15.04    3.81
  -6   4  -1   13.19    2.03
   6  -4   1   12.49    1.92
   6  -4   1   14.87    2.07
   6  -4   1   14.38    2.41
  -5   4  -1   21.14    2.05
  -5   4  -1   21.38    2.83
  -5   4  -1   22.93    1.69
   5  -4   1   22.42    2.19
   5  -4   1   21.28    2.49
   5  -4   1   19.50    1.64
   5  -4   1   23.97    2.14
  -4   4  -1   77.51    3.51
  -4   4  -1   76.53    3.62
  -4   4  -1   73.40    3.79
  -4   4  -1   76.43    3.36
   4  -4   1   79.25    3.80
   4  -4   1   81.83    3.67
   4  -4   1   75.86    3.27
   4  -4   1   81.11    3.74
  -3   4  -1   24.80    1.37
  -3   4  -1   27.04    1.78
  -3   4  -1   24.27    1.53
  -3   4  -1   24.51    1.71
   3  -4   1   22.52    1.67
   3  -4   1   25.11    1.62
   3  -4   1   26.91    1.72
   3  -4   1   24.49    1.34
  -2   4  -1  130.11    5.16
  -2   4  -1  130.26    5.07
  -2   4  -1  128.39    4.85
   2  -4   1  125.32    5.15
   2  -4   1  131.72    4.99
   2  -4   1  129.04    5.10
   2  -4   1  130.18    4.83
  -1   4  -1   25.09    1.46
  -1   4  -1   23.96    1.46
  -1   4  -1   22.32    1.11
   1  -4   1   23.64    1.52
   1  -4   1   22.77    1.10
   1  -4   1   23.98    1.44
   0   4  -1  169.19    6.67
   0   4  -1  192.53    7.02
   0   4  -1  195.85    6.79
   0   4  -1  176.72    6.69
   0   4  -1  173.04    6.53
   0  -4   1  173.51    6.53
   1   4  -1  198.46    6.77
   1   4  -1  186.80    6.80
   1   4  -1  175.67    6.95
  -1  -4   1  183.03    6.90
  -1  -4   1  182.94    7.00
  -1  -4   1  193.33    6.97
  -1  -4   1  188.88    6.73
   2   4  -1   81.82    3.13
   2   4  -1   79.89    3.47
   2   4  -1   88.08    3.44
  -2  -4   1   80.52    3.48
  -2  -4   1   76.53    3.09
  -2  -4   1   87.63    3.58
  -2  -4   1   79.71    3.46
   3   4  -1   74.08    2.88
   3   4  -1   72.59    3.34
   3   4  -1   74.07    3.32
  -3  -4   1   68.90    3.29
  -3  -4   1   71.98    3.34
  -3  -4   1   71.41    3.05
   4   4  -1    0.60    0.54
   4   4  -1   -0.58    0.74
   4   4  -1    0.97    1.05
  -4  -4   1    0.10    0.82
  -4  -4   1   -0.18    0.64
  -4  -4   1    1.05    1.22
   5   4  -1   69.35    3.82
   5   4  -1   70.91    3.06
   5   4  -1   72.95    4.06
  -5  -4   1   71.73    4.58
  -5  -4   1   71.39    3.41
  -5  -4   1   72.59    3.85
   6   4  -1   10.64    1.90
  -6  -4   1    8.49    1.77
  -6  -4   1    4.88    1.60
   7   4  -1    7.22    2.51
  -8   4   0    3.73    1.76
  -8   4   0    2.59    1.93
   8  -4   0    5.57    2.27
   8  -4   0    0.24    3.69
   8  -4   0    2.91    2.30
  -7   4   0   17.93    2.38
   7  -4   0   13.04    2.09
   7  -4   0   12.52    2.08
   7  -4   0    7.82    2.88
  -6   4   0    4.38    1.26
  -6   4   0    3.01    1.33
   6  -4   0    3.77    1.36
   6  -4   0    3.27    1.45
   6  -4   0    5.62    1.82
  -5   4   0   95.14    4.05
  -5   4   0   87.99    4.75
  -5   4   0   89.58    4.26
   5  -4   0   95.05    4.62
   5  -4   0   82.26    3.87
   5  -4   0   96.49    4.40
   5  -4   0   94.93    4.34
  -4   4   0   12.87    1.23
  -4   4   0   12.19    1.07
  -4   4   0   11.52    1.46
  -4   4   0   11.92    1.74
   4  -4   0   14.67    1.38
   4  -4   0   11.76    1.59
   4  -4   0   11.44    1.42
   4  -4   0   12.50    1.06
  -3   4   0   75.29    3.30
  -3   4   0   72.05    3.01
  -3   4   0   73.02    3.29
  -3   4   0   71.95    3.18
   3  -4   0   70.20    3.27
   3  -4   0   72.68    3.27
   3  -4   0   69.88    3.25
   3  -4   0   72.54    2.96
  -2   4   0   16.93    0.97
  -2   4   0   15.42    1.27
  -2   4   0   16.60    1.01
  -2   4   0   17.90    1.24
  -2   4   0   15.77    1.12
   2  -4   0   17.22    1.24
   2  -4   0   15.83    1.14
   2  -4   0   16.38    1.25
   2  -4   0   17.01    0.95
  -1   4   0   69.30    2.99
  -1   4   0   69.67    3.10
  -1   4   0   65.65    2.78
  -1   4   0   68.30    2.66
   1  -4   0   70.90    2.64
   1  -4   0   73.70    3.21
   1  -4   0   68.07    2.61
   0   4   0  445.94   17.28
   0   4   0  531.96   17.73
   0   4   0  472.15   17.12
   0   4   0  529.65   17.18
   0   4   0  479.58   16.93
   0  -4   0  483.77   17.07
   0  -4   0  468.81   17.12
   1   4   0    0.88    0.38
   1   4   0    0.48    0.41
  -1  -4   0    0.05    0.25
  -1  -4   0    0.40    0.49
  -1  -4   0    0.00    0.38
  -1  -4   0    0.15    0.40
   2   4   0  129.94    5.27
   2   4   0  137.81    5.29
   2   4   0  127.49    4.97
   2   4   0  138.29    4.77
  -2  -4   0  127.06    5.14
  -2  -4   0  139.34    5.43
  -2  -4   0  128.42    4.90
  -2  -4   0  132.43    5.28
   3   4   0    9.80    1.15
   3   4   0   12.43    1.38
   3   4   0    9.48    0.85
   3   4   0    9.09    0.65
  -3  -4   0    6.48    0.83
  -3  -4   0    8.27    1.17
  -3  -4   0    9.22    1.13
  -3  -4   0    9.42    1.25
  -3  -4   0   10.21    1.62
   4   4   0   55.79    3.25
   4   4   0   60.87    2.39
   4   4   0   58.66    3.14
   4   4   0   51.07    2.52
  -4  -4   0   58.08    3.67
  -4  -4   0   59.63    2.52
  -4  -4   0   56.42    2.58
  -4  -4   0   57.19    3.00
   5   4   0   30.63    2.98
   5   4   0   32.49    2.65
   5   4   0   34.65    1.67
  -5  -4   0   27.99    3.72
  -5  -4   0   31.40    2.14
  -5  -4   0   32.41    2.60
   6   4   0    6.18    1.76
  -6  -4   0    9.47    1.83
  -8   4   1    8.88    2.25
  -8   4   1   11.54    2.03
   8  -4  -1   11.36    3.68
   8  -4  -1   11.25    2.54
  -7   4   1    1.01    1.43
  -7   4   1    0.75    1.92
  -7   4   1    0.53    1.08
   7  -4  -1   -2.56    1.45
   7  -4  -1   -1.76    2.39
  -6   4   1   36.03    2.04
  -6   4   1   28.34    2.39
  -6   4   1   31.17    2.70
   6  -4  -1   31.65    2.68
   6  -4  -1   25.66    2.37
   6  -4  -1   28.92    3.24
   6  -4  -1   26.99    1.32
  -5   4   1   26.32    2.09
  -5   4   1   23.74    1.98
  -5   4   1   29.45    1.87
  -5   4   1   26.20    2.60
  -5   4   1   27.36    1.64
   5  -4  -1   30.78    2.21
   5  -4  -1   29.86    2.08
   5  -4  -1   26.84    2.51
   5  -4  -1   24.83    1.71
   5  -4  -1   24.52    1.18
  -4   4   1   18.96    1.32
  -4   4   1   23.04    1.75
  -4   4   1   22.71    1.94
  -4   4   1   24.16    1.45
  -4   4   1   21.84    1.56
   4  -4  -1   20.75    1.34
   4  -4  -1   24.16    1.72
   4  -4  -1   24.17    1.92
  -3   4   1  126.53    5.14
  -3   4   1  131.64    5.16
  -3   4   1  122.89    5.04
  -3   4   1  126.05    4.85
  -3   4   1  125.56    4.86
   3  -4  -1  120.74    5.12
   3  -4  -1  129.17    5.17
  -2   4   1   27.80    1.68
  -2   4   1   31.54    1.61
  -2   4   1   26.37    1.45
  -2   4   1   30.03    1.38
  -2   4   1   27.85    1.69
   2  -4  -1   29.04    1.69
   2  -4  -1   30.26    1.38
   2  -4  -1   26.24    1.16
   2  -4  -1   29.11    1.62
  -1   4   1  236.48    8.82
  -1   4   1  227.20    8.45
  -1   4   1  233.43    8.42
   1  -4  -1  230.08    8.25
   1  -4  -1  235.72    8.47
   1  -4  -1  235.31    8.50
   1  -4  -1  235.10    8.27
   1  -4  -1  235.53    8.92
   0   4   1  105.19    4.17
   0   4   1  102.86    3.70
   0   4   1  104.77    4.01
   0   4   1  109.55    4.58
   0  -4  -1   91.07    3.93
   0  -4  -1  110.34    3.90
   1   4   1  175.68    6.59
   1   4   1  186.29    6.75
   1   4   1  169.99    6.73
  -1  -4  -1  186.76    6.90
  -1  -4  -1  173.75    6.80
  -1  -4  -1  177.37    6.54
  -1  -4  -1  177.81    6.56
   2   4   1   70.17    3.16
   2   4   1   71.20    3.24
  -2  -4  -1   71.65    2.92
  -2  -4  -1   69.13    3.04
  -2  -4  -1   69.88    3.19
   3   4   1   16.16    1.43
   3   4   1   14.99    1.13
   3   4   1   13.74    1.65
  -3  -4  -1   16.51    1.94
  -3  -4  -1   14.11    1.34
  -3  -4  -1   14.03    1.52
  -3  -4  -1   15.22    1.20
   4   4   1   58.50    2.78
   4   4   1   63.51    3.34
   4   4   1   54.36    3.37
  -4  -4  -1   59.53    4.04
  -4  -4  -1   66.90    3.16
   5   4   1    1.41    0.95
   5   4   1    0.69    1.75
   5   4   1    1.31    1.20
  -5  -4  -1    0.22    0.86
  -5  -4  -1    0.06    0.96
  -5  -4  -1    0.46    1.08
   6   4   1   24.37    3.04
  -6  -4  -1   29.85    3.16
  -8   4   2    6.37    2.01
  -8   4   2    6.71    1.62
   8  -4  -2   10.73    2.41
   8  -4  -2    4.02    3.51
  -7   4   2    8.23    1.67
  -7   4   2    6.56    1.53
  -7   4   2    9.13    1.39
   7  -4  -2    9.72    2.57
   7  -4  -2   10.46    2.04
  -6   4   2   37.92    2.61
  -6   4   2   41.99    2.24
  -6   4   2   33.90    2.76
  -6   4   2   30.68    3.98
   6  -4  -2   38.92    3.04
   6  -4  -2   36.02    1.67
   6  -4  -2   36.89    3.39
  -5   4   2    3.31    0.87
  -5   4   2    2.37    0.95
  -5   4   2    2.57    1.44
  -5   4   2    2.56    0.68
  -5   4   2    1.90    0.86
   5  -4  -2    2.71    0.42
   5  -4  -2    3.83    1.31
   5  -4  -2    2.70    0.83
   5  -4  -2    1.99    0.97
  -4   4   2   97.48    4.26
  -4   4   2  100.10    4.00
  -4   4   2   94.40    4.20
  -4   4   2  103.76    4.12
  -4   4   2   95.53    4.49
   4  -4  -2  100.99    4.48
   4  -4  -2   95.64    3.99
   4  -4  -2   96.19    3.58
   4  -4  -2  100.87    4.38
  -3   4   2   34.18    1.73
  -3   4   2   35.76    2.03
  -3   4   2   35.95    1.73
  -3   4   2   34.12    2.05
  -3   4   2   36.33    1.94
   3  -4  -2   35.61    1.71
   3  -4  -2   30.86    2.00
   3  -4  -2   32.67    1.39
   3  -4  -2   35.33    2.03
  -2   4   2  246.90    9.21
  -2   4   2  251.10    8.90
  -2   4   2  246.16    8.98
  -2   4   2  250.16    9.13
   2  -4  -2  248.59    9.33
   2  -4  -2  249.52    9.17
   2  -4  -2  236.10    8.97
   2  -4  -2  249.38    8.87
   2  -4  -2  241.89    8.67
  -1   4   2  122.16    4.69
  -1   4   2  116.53    5.03
  -1   4   2  128.89    4.95
  -1   4   2  119.93    4.75
   1  -4  -2  122.26    4.84
   1  -4  -2  124.28    4.45
   1  -4  -2  123.90    5.14
   1  -4  -2  121.28    4.66
   1  -4  -2  119.48    4.44
   0   4   2   22.34    1.85
   0   4   2   20.24    1.26
   0   4   2   25.83    1.47
   0   4   2   23.84    1.47
   0   4   2   20.86    1.35
   0  -4  -2   20.03    1.21
   0  -4  -2   22.27    1.12
   1   4   2  167.64    6.80
   1   4   2  184.61    6.76
  -1  -4  -2  190.39    7.80
  -1  -4  -2  175.18    6.52
  -1  -4  -2  171.76    6.59
  -1  -4  -2  170.98    6.80
   2   4   2    1.58    0.75
   2   4   2    0.96    0.57
   2   4   2    0.66    0.49
  -2  -4  -2    0.96    0.54
  -2  -4  -2    0.47    0.95
  -2  -4  -2    0.55    0.56
  -2  -4  -2    0.48    0.63
   3   4   2   90.36    4.23
   3   4   2   95.46    4.08
   3   4   2   88.63    3.75
  -3  -4  -2   89.20    3.85
  -3  -4  -2   88.21    4.66
  -3  -4  -2   80.68    4.06
   4   4   2   14.80    2.27
   4   4   2   16.44    1.58
   4   4   2   16.32    1.97
  -4  -4  -2   16.91    2.86
  -4  -4  -2   15.48    1.70
  -4  -4  -2   16.48    1.71
   5   4   2   19.64    2.39
   5   4   2   14.59    2.02
  -5  -4  -2   16.35    1.87
   6   4   2   17.73    3.05
  -6  -4  -2   20.34    2.48
  -8   4   3    1.07    1.76
   8  -4  -3    1.68    2.19
   8  -4  -3    2.15    3.45
  -7   4   3   25.72    2.53
  -7   4   3   26.83    2.68
  -7   4   3   28.21    2.08
   7  -4  -3   30.36    3.10
   7  -4  -3   25.46    1.60
   7  -4  -3   24.70    3.52
  -6   4   3    2.05    0.79
  -6   4   3    1.19    1.99
  -6   4   3    3.37    1.27
  -6   4   3    2.16    1.13
   6  -4  -3    2.23    0.56
   6  -4  -3    3.02    1.32
   6  -4  -3    3.06    1.76
  -5   4   3   54.38    2.76
  -5   4   3   49.06    2.86
  -5   4   3   50.84    3.43
  -5   4   3   53.64    2.50
   5  -4  -3   50.88    2.14
   5  -4  -3   56.54    3.41
   5  -4  -3   54.82    3.06
  -4   4   3   59.82    3.01
  -4   4   3   62.39    2.84
  -4   4   3   58.53    3.28
  -4   4   3   63.40    2.95
  -4   4   3   61.58    2.71
   4  -4  -3   59.66    2.75
   4  -4  -3   62.90    3.14
   4  -4  -3   61.66    2.37
   4  -4  -3   60.56    3.24
  -3   4   3   66.63    3.19
  -3   4   3   62.95    2.78
  -3   4   3   65.94    3.00
  -3   4   3   65.60    2.82
   3  -4  -3   65.15    2.80
   3  -4  -3   66.19    2.79
   3  -4  -3   64.23    3.14
   3  -4  -3   66.20    3.17
   3  -4  -3   64.79    2.49
  -2   4   3  205.40    7.78
  -2   4   3  203.97    7.58
  -2   4   3  199.11    7.78
  -2   4   3  201.88    7.47
   2  -4  -3  203.07    7.43
   2  -4  -3  206.42    7.83
   2  -4  -3  206.31    7.96
   2  -4  -3  203.57    7.56
   2  -4  -3  208.60    7.27
  -1   4   3   12.08    0.80
  -1   4   3   11.31    1.01
  -1   4   3   10.69    1.35
  -1   4   3   13.36    1.22
  -1   4   3   13.64    1.35
   1  -4  -3   10.71    0.74
   1  -4  -3   11.63    1.10
   1  -4  -3   11.36    0.71
   1  -4  -3   12.92    1.36
   1  -4  -3   10.04    0.90
   0   4   3  236.62    8.74
   0   4   3  238.51    8.78
   0   4   3  226.63    9.24
   0   4   3  242.33    9.01
   0   4   3  238.66    8.99
   0  -4  -3  237.94    9.20
   0  -4  -3  237.59    8.48
   0  -4  -3  230.93    8.68
   1   4   3   32.93    2.01
   1   4   3   30.18    1.71
   1   4   3   29.68    1.72
  -1  -4  -3   32.94    2.32
  -1  -4  -3   29.08    1.88
  -1  -4  -3   32.26    1.73
  -1  -4  -3   28.22    1.55
   2   4   3   70.78    3.19
   2   4   3   72.64    3.31
   2   4   3   70.01    3.56
  -2  -4  -3   72.60    3.23
  -2  -4  -3   71.97    3.13
  -2  -4  -3   73.87    3.41
  -2  -4  -3   75.80    3.94
   3   4   3   59.09    3.48
   3   4   3   68.69    3.28
   3   4   3   57.16    2.93
  -3  -4  -3   63.99    3.06
  -3  -4  -3   66.42    4.16
  -3  -4  -3   61.91    2.96
   4   4   3    9.74    1.37
   4   4   3    9.66    1.57
   4   4   3    7.01    1.77
  -4  -4  -3    6.20    1.24
  -4  -4  -3    5.34    2.72
  -4  -4  -3    6.45    1.13
   5   4   3   29.62    2.82
   5   4   3   25.90    2.66
  -5  -4  -3   30.89    2.55
   6   4   3    2.98    1.86
  -6  -4  -3    2.98    1.90
  -8   4   4    9.05    1.99
   8  -4  -4   11.88    3.62
   8  -4  -4   12.60    2.63
  -7   4   4   18.32    2.33
  -7   4   4   12.54    1.70
   7  -4  -4   19.52    2.86
   7  -4  -4   12.23    2.79
   7  -4  -4   14.94    1.32
  -6   4   4   10.11    1.69
  -6   4   4   11.74    1.64
  -6   4   4   11.86    1.34
  -6   4   4   10.77    2.37
   6  -4  -4   14.91    2.11
   6  -4  -4   11.76    1.09
   6  -4  -4   13.98    2.34
  -5   4   4   39.50    2.33
  -5   4   4   38.65    2.51
  -5   4   4   31.49    2.32
  -5   4   4   34.34    3.01
  -5   4   4   41.54    2.04
   5  -4  -4   39.55    2.97
   5  -4  -4   38.88    1.72
   5  -4  -4   41.44    2.65
  -4   4   4   -0.71    1.02
  -4   4   4   -0.25    0.71
  -4   4   4   -0.14    0.55
  -4   4   4   -0.18    0.46
  -4   4   4    0.69    0.66
   4  -4  -4    0.43    0.76
   4  -4  -4    0.40    0.34
   4  -4  -4   -0.18    0.55
   4  -4  -4    1.19    0.99
  -3   4   4  169.14    6.55
  -3   4   4  168.18    6.88
  -3   4   4  171.35    6.52
  -3   4   4  171.10    6.69
   3  -4  -4  170.18    6.50
   3  -4  -4  174.31    6.98
   3  -4  -4  170.46    6.19
   3  -4  -4  172.47    6.47
   3  -4  -4  174.75    6.91
  -2   4   4   18.46    1.64
  -2   4   4   19.73    1.46
  -2   4   4   17.21    1.11
  -2   4   4   19.67    1.34
   2  -4  -4   19.72    1.57
   2  -4  -4   18.66    1.55
   2  -4  -4   16.68    1.11
   2  -4  -4   20.10    1.22
   2  -4  -4   19.61    0.99
  -1   4   4   85.52    4.09
  -1   4   4   89.36    3.94
  -1   4   4   86.30    3.44
  -1   4   4   92.91    3.73
  -1   4   4   86.14    3.99
   1  -4  -4   82.40    3.59
   1  -4  -4   90.83    4.03
   1  -4  -4   89.54    4.08
   1  -4  -4   85.95    3.36
   1  -4  -4   87.67    3.36
   0   4   4  186.23    7.34
   0   4   4  184.11    7.32
   0   4   4  182.53    6.93
   0   4   4  186.70    6.63
   0   4   4  186.65    6.99
   0   4   4  168.11    7.39
   0  -4  -4  181.12    6.92
   0  -4  -4  172.18    6.46
   0  -4  -4  181.78    6.66
   0  -4  -4  191.58    7.64
   1   4   4   19.43    1.41
   1   4   4   18.86    1.46
   1   4   4   19.98    1.82
  -1  -4  -4   19.65    2.18
  -1  -4  -4   19.96    1.60
  -1  -4  -4   16.71    1.23
  -1  -4  -4   19.72    1.47
   2   4   4  100.13    4.87
   2   4   4  101.10    4.37
   2   4   4  111.69    4.50
  -2  -4  -4  104.74    5.30
  -2  -4  -4  101.61    4.59
  -2  -4  -4  102.52    4.22
  -2  -4  -4  106.32    4.44
   3   4   4    0.10    0.85
   3   4   4    1.71    1.57
   3   4   4    0.41    0.78
  -3  -4  -4    0.29    0.67
  -3  -4  -4    0.11    2.14
  -3  -4  -4    1.44    0.99
   4   4   4   35.80    2.65
   4   4   4   29.03    4.06
   4   4   4   44.96    2.91
  -4  -4  -4   38.79    2.47
   5   4   4    9.81    1.85
   5   4   4    7.53    2.01
  -5  -4  -4    4.68    1.33
  -8   4   5    9.46    2.10
   8  -4  -5   12.02    5.45
   8  -4  -5   14.11    1.40
   8  -4  -5   22.72    3.81
  -7   4   5   -0.23    1.38
  -7   4   5    0.60    0.97
   7  -4  -5   -0.29    0.62
   7  -4  -5    2.67    2.56
   7  -4  -5    4.13    1.63
  -6   4   5   66.47    3.50
  -6   4   5   69.21    3.08
  -6   4   5   57.85    4.57
  -6   4   5   57.08    3.55
   6  -4  -5   63.49    2.68
   6  -4  -5   66.22    3.97
  -5   4   5   15.39    2.33
  -5   4   5   14.24    1.36
  -5   4   5   12.15    1.66
  -5   4   5   13.05    1.94
  -5   4   5   16.55    1.65
   5  -4  -5   16.87    2.32
   5  -4  -5   14.09    1.02
   5  -4  -5   13.11    1.91
  -4   4   5   70.72    3.08
  -4   4   5   69.52    3.25
  -4   4   5   68.02    3.77
  -4   4   5   71.68    3.21
   4  -4  -5   63.06    3.05
   4  -4  -5   65.46    3.43
   4  -4  -5   65.60    2.70
   4  -4  -5   66.72    2.99
   4  -4  -5   69.05    3.73
  -3   4   5   85.86    3.63
  -3   4   5   83.74    3.72
  -3   4   5   80.59    4.07
  -3   4   5   84.78    3.65
   3  -4  -5   88.64    4.10
   3  -4  -5   84.77    3.28
   3  -4  -5   85.53    3.56
   3  -4  -5   85.15    3.96
   3  -4  -5   82.48    3.55
  -2   4   5   34.97    2.05
  -2   4   5   34.74    1.78
  -2   4   5   36.92    2.40
  -2   4   5   35.59    1.99
   2  -4  -5   34.78    1.59
   2  -4  -5   32.98    1.72
   2  -4  -5   33.63    1.82
   2  -4  -5   35.65    2.29
   2  -4  -5   33.81    2.20
  -1   4   5  135.13    5.21
  -1   4   5  131.03    5.48
  -1   4   5  124.00    5.39
  -1   4   5  125.46    5.04
  -1   4   5  127.72    4.89
  -1   4   5  121.41    5.64
   1  -4  -5  128.17    4.76
   1  -4  -5  124.90    4.77
   1  -4  -5  120.93    5.03
   0   4   5    2.92    0.82
   0   4   5    2.95    0.86
   0   4   5    1.74    0.61
   0   4   5    1.16    1.09
   0   4   5    1.67    1.14
   0   4   5    1.61    1.13
   0  -4  -5    1.57    1.44
   0  -4  -5    2.08    0.65
   0  -4  -5    1.94    0.42
   0  -4  -5    1.00    0.45
   1   4   5  151.43    6.82
   1   4   5  146.14    6.65
   1   4   5  163.34    6.21
   1   4   5  139.15    6.74
   1   4   5  158.26    6.10
  -1  -4  -5  155.44    6.16
  -1  -4  -5  152.98    5.84
  -1  -4  -5  160.91    7.15
   2   4   5   27.39    2.80
   2   4   5   22.71    1.84
   2   4   5   22.66    1.80
  -2  -4  -5   21.91    1.97
  -2  -4  -5   22.59    3.42
  -2  -4  -5   21.55    1.52
  -2  -4  -5   22.37    2.12
   3   4   5   22.20    3.53
   3   4   5   27.33    2.55
   3   4   5   25.08    2.17
  -3  -4  -5   24.33    3.79
  -3  -4  -5   27.02    1.91
   4   4   5   32.18    2.73
   4   4   5   27.68    2.69
   4   4   5   19.45    3.36
  -4  -4  -5   25.04    2.31
   5   4   5    1.53    1.80
   5   4   5    4.92    2.14
  -5  -4  -5    4.13    1.50
  -8   4   6   -2.12    1.87
   8  -4  -6    1.22    0.82
   8  -4  -6   -1.40    2.25
  -7   4   6   18.49    2.01
  -7   4   6   20.22    2.50
   7  -4  -6   21.57    1.44
   7  -4  -6   21.44    3.27
   7  -4  -6   20.14    2.66
  -6   4   6   38.69    3.05
  -6   4   6   34.79    4.37
  -6   4   6   48.40    3.04
  -6   4   6   43.14    2.46
   6  -4  -6   49.08    3.47
   6  -4  -6   44.53    2.07
   6  -4  -6   48.80    3.96
  -5   4   6   10.21    1.63
  -5   4   6    8.64    1.29
  -5   4   6    9.59    1.54
  -5   4   6    9.82    2.09
   5  -4  -6    7.64    0.91
   5  -4  -6    9.21    1.49
   5  -4  -6   11.86    2.01
  -4   4   6   75.99    3.53
  -4   4   6   70.11    3.43
  -4   4   6   80.35    3.42
  -4   4   6   76.25    4.23
   4  -4  -6   73.74    3.27
   4  -4  -6   73.82    3.73
   4  -4  -6   66.81    3.36
   4  -4  -6   73.65    2.99
   4  -4  -6   77.74    4.06
  -3   4   6    9.24    1.20
  -3   4   6    6.65    1.02
  -3   4   6    7.88    1.05
  -3   4   6    9.35    1.65
   3  -4  -6    5.61    0.84
   3  -4  -6    8.26    1.37
   3  -4  -6    7.02    0.97
   3  -4  -6    7.11    0.80
   3  -4  -6    8.30    1.49
  -2   4   6  105.36    4.54
  -2   4   6  117.12    4.62
  -2   4   6   95.80    5.48
  -2   4   6  114.04    5.06
  -2   4   6  108.18    4.42
   2  -4  -6  106.53    4.82
   2  -4  -6  107.43    4.29
   2  -4  -6  106.57    4.11
   2  -4  -6  105.98    4.92
   2  -4  -6  101.79    4.39
  -1   4   6   18.06    2.65
  -1   4   6   16.84    2.11
  -1   4   6   14.97    1.31
  -1   4   6   14.78    1.15
  -1   4   6   13.17    1.70
  -1   4   6   13.83    1.51
   1  -4  -6   13.33    1.30
   1  -4  -6   14.39    1.10
   1  -4  -6   15.62    1.08
   0   4   6   73.83    3.31
   0   4   6   78.65    3.54
   0   4   6   74.89    4.16
   0   4   6   72.91    4.43
   0   4   6   75.07    3.30
   0   4   6   67.34    3.92
   0  -4  -6   79.71    3.03
   0  -4  -6   74.97    3.12
   1   4   6   47.39    2.70
   1   4   6   48.25    3.72
   1   4   6   49.97    2.54
   1   4   6   42.23    3.42
   1   4   6   42.63    3.68
  -1  -4  -6   51.82    2.31
  -1  -4  -6   50.17    4.38
   2   4   6   17.27    1.75
   2   4   6   12.81    2.28
   2   4   6   15.74    1.90
  -2  -4  -6   14.56    1.37
  -2  -4  -6   15.29    3.27
   3   4   6   26.52    2.41
   3   4   6   31.01    3.52
   3   4   6   31.23    2.66
  -3  -4  -6   29.13    2.03
  -3  -4  -6   23.19    3.99
   4   4   6    2.72    1.54
   4   4   6    3.76    1.61
  -4  -4  -6    0.34    1.09
   5   4   6   16.61    2.57
   5   4   6   15.04    2.70
  -5  -4  -6   24.48    2.98
  -8   4   7    4.32    2.03
   8  -4  -7    4.22    0.95
   8  -4  -7    6.37    2.46
  -7   4   7   24.23    2.69
  -7   4   7   17.09    2.18
   7  -4  -7   19.52    3.33
   7  -4  -7   22.31    3.31
   7  -4  -7   24.08    1.56
  -6   4   7    0.27    1.01
  -6   4   7   -2.07    1.06
  -6   4   7   -0.13    2.63
  -6   4   7    0.74    1.41
   6  -4  -7   -0.03    1.49
   6  -4  -7    0.00    0.51
   6  -4  -7   -0.20    2.17
  -5   4   7   78.76    3.55
  -5   4   7   75.34    3.85
  -5   4   7   68.73    4.83
   5  -4  -7   74.44    3.38
   5  -4  -7   72.63    4.04
   5  -4  -7   74.88    4.43
   5  -4  -7   74.51    3.08
  -4   4   7   20.86    1.81
  -4   4   7   25.55    3.01
  -4   4   7   22.82    1.83
  -4   4   7   22.21    1.78
   4  -4  -7   19.91    2.46
   4  -4  -7   19.70    2.09
   4  -4  -7   22.66    1.61
   4  -4  -7   24.38    1.35
  -3   4   7   38.17    2.18
  -3   4   7   36.28    3.15
  -3   4   7   35.60    2.13
  -3   4   7   37.08    2.26
   3  -4  -7   34.93    1.74
   3  -4  -7   34.82    2.05
   3  -4  -7   38.11    2.56
   3  -4  -7   34.07    2.73
   3  -4  -7   35.15    2.08
  -2   4   7   54.93    2.75
  -2   4   7   51.75    2.82
  -2   4   7   57.34    2.91
  -2   4   7   55.59    3.55
  -2   4   7   50.16    3.79
   2  -4  -7   56.96    3.45
   2  -4  -7   54.29    2.60
   2  -4  -7   57.95    3.24
   2  -4  -7   57.61    2.42
  -1   4   7   12.40    1.25
  -1   4   7   14.41    2.19
  -1   4   7   11.76    1.58
  -1   4   7   11.51    1.66
  -1   4   7   11.66    2.37
  -1   4   7    9.63    1.32
   1  -4  -7   12.06    1.20
   1  -4  -7    8.98    1.47
   1  -4  -7   12.11    1.02
   0   4   7  114.01    5.98
   0   4   7  126.81    5.25
   0   4   7  111.93    5.67
   0   4   7  109.48    4.97
   0   4   7  132.45    4.95
   0   4   7  111.57    5.84
   0  -4  -7  121.49    4.68
   0  -4  -7  123.91    4.73
   1   4   7    2.43    1.81
   1   4   7    3.47    1.02
   1   4   7    1.99    2.23
   1   4   7    3.55    1.65
   1   4   7    4.19    1.16
  -1  -4  -7    0.97    2.63
  -1  -4  -7    3.53    0.72
  -1  -4  -7    2.10    0.68
   2   4   7   30.05    2.41
   2   4   7   20.90    3.20
   2   4   7   29.96    2.34
  -2  -4  -7   22.96    3.88
  -2  -4  -7   28.70    1.85
   3   4   7   -0.09    2.46
   3   4   7    7.22    1.62
   3   4   7    4.86    1.47
  -3  -4  -7    3.29    0.98
   4   4   7   10.14    2.14
   4   4   7    5.60    2.00
  -4  -4  -7    6.81    1.45
  -7   4   8   -0.20    1.54
  -7   4   8    2.86    1.42
   7  -4  -8    1.80    0.71
   7  -4  -8    1.17    3.15
   7  -4  -8    1.86    1.98
  -6   4   8   30.16    2.81
  -6   4   8   30.51    2.70
  -6   4   8   33.08    2.42
   6  -4  -8   38.92    4.10
   6  -4  -8   30.72    3.29
   6  -4  -8   34.80    1.82
  -5   4   8   30.14    4.12
  -5   4   8   29.19    2.17
  -5   4   8   28.39    2.39
   5  -4  -8   27.57    2.07
   5  -4  -8   31.94    2.75
   5  -4  -8   23.67    3.22
   5  -4  -8   28.49    1.59
  -4   4   8   13.11    1.76
  -4   4   8   16.50    1.90
  -4   4   8   14.64    1.76
  -4   4   8   17.78    2.75
   4  -4  -8   13.21    2.17
   4  -4  -8   14.23    1.57
   4  -4  -8   13.79    1.11
   4  -4  -8   19.15    2.72
  -3   4   8   62.67    3.17
  -3   4   8   73.89    3.39
  -3   4   8   66.11    3.36
  -3   4   8   67.60    4.40
   3  -4  -8   53.33    3.05
   3  -4  -8   61.02    3.76
   3  -4  -8   62.47    3.14
   3  -4  -8   67.07    3.67
   3  -4  -8   64.18    2.79
  -2   4   8    4.14    1.11
  -2   4   8    6.33    1.85
  -2   4   8    4.67    1.96
  -2   4   8    5.12    1.07
  -2   4   8    5.14    1.27
  -2   4   8    4.71    0.96
   2  -4  -8    3.77    0.66
   2  -4  -8    5.81    1.00
  -1   4   8   62.34    3.34
  -1   4   8   57.82    4.36
  -1   4   8   59.57    3.33
  -1   4   8   49.73    4.02
  -1   4   8   57.94    3.15
  -1   4   8   61.31    2.87
   1  -4  -8   62.20    2.68
   1  -4  -8   61.39    2.85
   0   4   8   36.04    2.62
   0   4   8   35.36    3.46
   0   4   8   24.18    3.92
   0   4   8   35.63    2.11
   0   4   8   34.36    3.19
   0   4   8   33.29    2.46
   0  -4  -8   33.20    1.99
   0  -4  -8   34.63    1.90
   1   4   8   20.71    3.35
   1   4   8   22.72    2.32
   1   4   8   19.94    3.42
   1   4   8   24.40    1.97
  -1  -4  -8   22.19    1.67
  -1  -4  -8   24.03    4.14
  -1  -4  -8   20.55    1.70
  -1  -4  -8   24.49    1.54
   2   4   8   22.28    3.68
   2   4   8   16.49    2.35
   2   4   8   18.70    2.56
  -2  -4  -8   16.36    1.63
   3   4   8    3.67    1.62
   3   4   8    4.82    1.54
  -3  -4  -8    2.83    1.04
   4   4   8   30.20    3.87
   4   4   8   23.05    3.77
  -4  -4  -8   34.47    3.01
  -7   4   9    6.25    1.96
   7  -4  -9    4.42    0.80
   7  -4  -9    3.07    2.27
  -6   4   9   37.05    3.08
  -6   4   9   28.19    2.48
   6  -4  -9   34.09    1.86
   6  -4  -9   29.04    4.20
   6  -4  -9   32.95    3.37
  -5   4   9   -0.86    2.73
  -5   4   9   -0.41    1.13
  -5   4   9    2.36    1.35
   5  -4  -9    1.06    1.58
   5  -4  -9    1.31    1.99
   5  -4  -9    0.74    0.54
  -4   4   9   41.26    2.70
  -4   4   9   39.08    2.62
  -4   4   9   43.48    4.62
  -4   4   9   41.41    3.01
   4  -4  -9   41.18    3.76
   4  -4  -9   43.69    3.17
   4  -4  -9   41.17    2.08
  -3   4   9   24.45    2.04
  -3   4   9   19.01    2.22
  -3   4   9   24.23    2.20
  -3   4   9   21.21    3.54
  -3   4   9   25.39    3.31
   3  -4  -9   23.61    1.53
   3  -4  -9   18.89    3.09
   3  -4  -9   23.08    2.52
  -2   4   9   35.04    3.92
  -2   4   9   35.40    3.92
  -2   4   9   41.43    2.86
  -2   4   9   41.66    2.31
  -2   4   9   37.64    2.72
   2  -4  -9   36.70    2.43
   2  -4  -9   38.72    2.00
  -1   4   9   34.20    2.65
  -1   4   9   35.21    2.10
  -1   4   9   34.43    3.94
  -1   4   9   26.71    4.26
  -1   4   9   38.13    2.67
  -1   4   9   34.79    2.70
   1  -4  -9   34.93    2.24
   1  -4  -9   35.76    1.94
   0   4   9    0.46    1.47
   0   4   9    2.70    0.99
   0   4   9    2.20    1.14
   0   4   9    3.20    2.29
   0   4   9    2.00    2.99
   0   4   9    3.72    1.78
   0  -4  -9    2.65    1.06
   0  -4  -9    2.19    0.74
   1   4   9   43.56    2.70
   1   4   9   30.52    4.25
   1   4   9   42.56    2.98
  -1  -4  -9   41.23    2.33
  -1  -4  -9   41.82    2.32
   2   4   9    1.26    2.81
   2   4   9    1.43    1.50
   2   4   9   -0.26    1.42
  -2  -4  -9   -0.26    0.88
   3   4   9   13.07    2.16
   3   4   9   10.27    2.21
  -3  -4  -9   10.35    1.55
  -7   4  10   12.80    2.53
   7  -4 -10   20.71    1.72
   7  -4 -10   19.93    3.10
  -6   4  10    7.34    1.92
  -6   4  10    9.53    1.80
   6  -4 -10    6.77    2.26
   6  -4 -10    7.30    0.97
   6  -4 -10    6.73    3.29
  -5   4  10   13.11    2.18
  -5   4  10   13.42    1.92
   5  -4 -10    9.62    2.54
   5  -4 -10   13.12    1.25
   5  -4 -10   17.38    3.02
  -4   4  10   24.50    2.16
  -4   4  10   28.59    4.77
  -4   4  10   26.78    2.82
  -4   4  10   28.73    2.58
   4  -4 -10   27.41    3.96
   4  -4 -10   28.01    1.69
   4  -4 -10   27.31    3.07
  -3   4  10    4.69    2.64
  -3   4  10    5.76    2.98
  -3   4  10    6.61    1.84
  -3   4  10    9.65    1.65
  -3   4  10   12.90    1.85
   3  -4 -10   12.53    1.96
   3  -4 -10    8.97    1.10
  -2   4  10   99.02    4.68
  -2   4  10  113.94    5.13
  -2   4  10  113.54    6.66
  -2   4  10  106.54    5.28
  -2   4  10   95.28    6.45
  -2   4  10  108.52    4.53
   2  -4 -10  105.64    4.38
  -1   4  10    0.36    0.90
  -1   4  10   -2.46    2.43
  -1   4  10   -0.35    1.41
  -1   4  10    0.25    1.18
  -1   4  10    0.46    1.53
   1  -4 -10    0.05    1.18
   1  -4 -10    2.09    0.72
   0   4  10   22.43    2.51
   0   4  10   25.35    2.13
   0   4  10   24.80    3.52
   0   4  10   21.08    2.90
   0   4  10   18.99    2.48
   0  -4 -10   23.40    1.76
   1   4  10   16.94    2.35
   1   4  10   15.31    3.55
   1   4  10   14.96    2.27
  -1  -4 -10   10.92    1.38
  -1  -4 -10   13.82    1.73
   2   4  10    7.53    2.00
   2   4  10    8.08    1.90
  -2  -4 -10    7.12    1.39
  -6   4  11    4.93    1.95
  -6   4  11    6.35    1.81
   6  -4 -11    3.55    1.01
   6  -4 -11    4.33    2.50
  -5   4  11   24.10    2.65
  -5   4  11   20.87    3.22
   5  -4 -11   22.38    1.66
   5  -4 -11   19.95    3.58
   5  -4 -11   26.90    4.25
  -4   4  11    1.00    3.23
  -4   4  11   -3.08    1.67
  -4   4  11   -0.55    1.39
   4  -4 -11   -0.99    1.87
   4  -4 -11    1.13    2.70
   4  -4 -11   -0.96    0.64
  -3   4  11   37.98    3.05
  -3   4  11   38.87    2.62
  -3   4  11   32.34    3.53
   3  -4 -11   36.13    2.12
  -2   4  11   12.82    2.54
  -2   4  11   17.98    2.43
  -2   4  11   14.92    1.83
  -2   4  11   20.88    3.67
   2  -4 -11   15.66    1.47
  -1   4  11   17.11    2.75
  -1   4  11   20.31    2.61
  -1   4  11   22.34    4.03
  -1   4  11   19.23    2.01
   1  -4 -11   18.84    1.67
   0   4  11   13.95    3.49
   0   4  11   13.99    2.44
   0   4  11   15.93    2.25
   0   4  11   17.12    2.72
   0  -4 -11   15.07    1.73
   1   4  11    1.49    1.67
   1   4  11    1.11    1.75
  -1  -4 -11    0.55    1.05
  -5   4  12    7.19    1.80
  -5   4  12    9.02    2.57
   5  -4 -12    7.31    1.26
  -4   4  12   -0.01    3.90
  -4   4  12    9.00    2.46
  -4   4  12    9.37    1.79
   4  -4 -12    9.26    1.42
  -3   4  12   22.65    3.07
  -3   4  12   20.29    2.79
  -3   4  12   17.76    4.43
   3  -4 -12   17.01    1.74
  -2   4  12    4.34    1.56
  -2   4  12    2.85    3.79
  -2   4  12    3.65    2.47
   2  -4 -12    4.20    0.96
  -1   4  12   19.51    3.24
  -1   4  12   15.49    4.27
  -1   4  12   18.61    2.92
   1  -4 -12   17.22    1.96
   0   4  12    3.74    1.67
   0  -4 -12    1.68    1.26
  -4   4  13   18.66    2.42
  -4   4  13   23.28    3.59
   4  -4 -13   20.02    2.21
  -3   4  13    0.07    2.90
   3  -4 -13    0.96    1.14
  -2   4  13   22.05    3.61
  -2   4  13   22.63    3.36
   2  -4 -13   22.49    2.47
  -1   4  13    1.87    3.16
  -1   4  13    2.67    2.18
   1  -4 -13    4.32    1.39
  -1   5 -13    9.94    1.46
  -1   5 -13   12.49    2.30
   1  -5  13    1.89    4.27
   1  -5  13   11.57    2.63
   0   5 -13    4.19    0.98
   0  -5  13    5.89    2.24
   0  -5  13    4.85    3.40
   0  -5  13    3.45    3.85
   1   5 -13    2.42    0.97
  -1  -5  13    2.04    2.12
  -1  -5  13   -0.62    3.74
  -1  -5  13   -0.01    3.17
   2   5 -13   23.02    2.05
  -2  -5  13   26.75    3.97
  -2  -5  13   18.72    3.51
  -2  -5  13   13.74    4.67
  -3  -5  13    6.01    4.22
  -3  -5  13    3.38    3.60
  -2   5 -12    3.41    1.02
  -2   5 -12    2.50    2.01
   2  -5  12    1.73    3.99
   2  -5  12    2.65    2.25
  -1   5 -12   13.72    1.67
   1  -5  12   13.27    3.37
   1  -5  12   14.87    3.88
   1  -5  12   12.06    2.39
   0   5 -12    0.96    0.77
   0  -5  12    2.01    1.92
   0  -5  12   -1.78    3.12
   0  -5  12   -2.70    2.87
   1   5 -12   16.13    1.46
  -1  -5  12   16.03    2.47
  -1  -5  12   13.34    3.00
  -1  -5  12   20.23    3.75
   2   5 -12    3.46    0.85
  -2  -5  12    5.93    2.06
  -2  -5  12    6.36    2.80
  -2  -5  12    5.09    3.58
   3   5 -12   21.93    1.80
  -3  -5  12   19.79    3.52
   4   5 -12   10.96    1.58
  -4  -5  12   13.07    3.14
  -3   5 -11    2.17    1.98
  -3   5 -11   -0.71    1.55
   3  -5  11    0.61    4.06
   3  -5  11    0.40    2.10
  -2   5 -11   16.82    2.29
  -2   5 -11   11.05    1.48
   2  -5  11   19.22    3.82
   2  -5  11   13.48    2.55
  -1   5 -11    0.49    0.71
   1  -5  11    0.18    2.92
   1  -5  11    0.83    1.62
   1  -5  11    4.42    2.72
   0   5 -11   24.62    1.59
   0  -5  11   23.27    3.49
   0  -5  11   18.39    3.11
   0  -5  11   23.88    3.04
   1   5 -11   12.37    1.29
  -1  -5  11   16.69    2.80
  -1  -5  11   10.63    2.69
  -1  -5  11   14.43    3.14
   2   5 -11   14.49    1.29
   2   5 -11   10.80    1.71
  -2  -5  11   15.93    3.28
  -2  -5  11   14.99    2.79
  -2  -5  11   15.83    2.10
   3   5 -11   27.07    1.78
  -3  -5  11   24.42    2.70
  -3  -5  11   22.95    3.26
   4   5 -11    0.72    0.79
  -4  -5  11    3.81    2.58
   5   5 -11   32.65    2.38
  -5  -5  11   29.45    3.82
  -4   5 -10    1.57    1.97
   4  -5  10   -0.08    2.22
   4  -5  10   -0.86    4.16
  -3   5 -10   12.15    2.12
  -3   5 -10    9.80    1.13
   3  -5  10    9.38    2.24
   3  -5  10   11.72    3.44
  -2   5 -10    9.78    1.68
  -2   5 -10    8.15    0.98
   2  -5  10    9.39    2.88
   2  -5  10    8.49    1.96
  -1   5 -10    6.91    0.86
   1  -5  10    4.25    2.63
   1  -5  10    9.48    2.39
   1  -5  10    5.82    1.86
   1  -5  10    8.45    2.47
   0   5 -10   28.54    1.62
   0  -5  10   26.51    3.62
   0  -5  10   24.79    3.70
   0  -5  10   28.37    3.92
   0  -5  10   30.01    3.00
   1   5 -10    0.20    1.15
   1   5 -10    1.68    0.62
  -1  -5  10   -0.25    1.87
  -1  -5  10    2.20    2.31
  -1  -5  10    2.33    1.35
  -1  -5  10    1.49    2.18
   2   5 -10   69.99    2.96
   2   5 -10   62.28    3.27
  -2  -5  10   62.50    4.84
  -2  -5  10   68.87    3.62
   3   5 -10    2.39    0.64
  -3  -5  10    1.96    1.27
  -3  -5  10    1.37    2.02
   4   5 -10   24.59    1.86
   4   5 -10   25.79    1.71
  -4  -5  10   26.35    3.90
   5   5 -10   13.82    1.67
  -5  -5  10   11.62    3.09
  -5   5  -9    4.62    2.37
   5  -5   9    8.67    2.99
   5  -5   9    2.33    4.53
  -4   5  -9    6.66    1.86
   4  -5   9    5.56    2.31
   4  -5   9    6.15    2.11
   4  -5   9    6.93    3.66
  -3   5  -9   11.03    1.08
  -3   5  -9    9.63    1.93
   3  -5   9   10.10    2.06
   3  -5   9    8.77    1.71
   3  -5   9   12.52    3.23
  -2   5  -9    2.91    1.26
  -2   5  -9    0.55    0.65
   2  -5   9    1.97    1.47
   2  -5   9    1.28    2.25
  -1   5  -9   27.01    1.58
   1  -5   9   34.93    3.61
   1  -5   9   30.17    3.20
   1  -5   9   30.79    3.71
   1  -5   9   31.12    2.92
   0   5  -9    0.95    1.58
   0   5  -9    8.06    0.89
   0  -5   9    0.93    1.63
   0  -5   9    5.74    1.45
   0  -5   9    4.88    2.10
   0  -5   9    4.84    2.18
   1   5  -9   39.05    2.39
   1   5  -9   37.86    1.86
  -1  -5   9   38.81    3.73
  -1  -5   9   38.94    3.75
  -1  -5   9   32.72    3.62
  -1  -5   9   35.54    2.61
   2   5  -9   34.18    1.73
   2   5  -9   31.30    2.03
  -2  -5   9   31.72    2.34
  -2  -5   9   32.89    3.64
  -2  -5   9   22.30    3.11
   3   5  -9   11.53    1.16
   3   5  -9    9.49    1.49
   3   5  -9   12.95    1.97
   3   5  -9   10.82    1.13
  -3  -5   9   14.25    2.48
   4   5  -9   27.39    1.95
   4   5  -9   30.50    1.80
  -4  -5   9   30.21    3.64
  -5  -5   9    4.30    1.53
  -5  -5   9    2.63    2.30
   6   5  -9   39.41    3.47
   6   5  -9   40.17    2.66
  -6  -5   9   45.42    4.83
  -6  -5   9   40.74    4.20
  -5   5  -8   -2.02    1.94
   5  -5   8   -1.36    2.40
   5  -5   8   -0.18    2.40
   5  -5   8   -0.35    3.97
  -4   5  -8   26.78    2.69
  -4   5  -8   18.56    2.18
   4  -5   8   30.41    4.91
   4  -5   8   27.15    3.48
   4  -5   8   22.25    3.08
  -3   5  -8    2.00    1.27
  -3   5  -8    2.30    0.85
  -3   5  -8    2.58    0.64
   3  -5   8    0.03    1.25
   3  -5   8    3.32    2.40
   3  -5   8    2.20    1.53
  -2   5  -8   17.04    2.02
  -2   5  -8   13.04    1.14
  -2   5  -8   14.27    1.14
   2  -5   8   22.24    3.37
   2  -5   8   13.52    1.84
   2  -5   8   16.07    2.31
  -1   5  -8   21.98    1.34
   1  -5   8   24.10    2.84
   1  -5   8   25.27    3.11
   1  -5   8   24.49    2.35
   0   5  -8   19.52    1.19
   0   5  -8   19.40    1.89
   0  -5   8   22.38    2.84
   0  -5   8   20.83    2.78
   0  -5   8   16.84    2.00
   0  -5   8   20.14    2.47
   1   5  -8   56.41    2.80
   1   5  -8   57.67    2.45
  -1  -5   8   60.47    3.08
  -1  -5   8   55.05    3.66
  -1  -5   8   53.45    3.83
  -1  -5   8   52.98    3.65
   2   5  -8   -0.14    0.70
   2   5  -8    0.14    0.83
   2   5  -8   -0.25    0.52
   2   5  -8   -0.16    0.40
  -2  -5   8   -0.15    0.78
  -2  -5   8   -0.04    1.84
  -2  -5   8   -0.25    1.47
   3   5  -8   43.67    2.08
   3   5  -8   41.93    2.15
  -3  -5   8   38.04    3.58
  -3  -5   8   45.09    2.84
  -3  -5   8   42.10    2.42
   4   5  -8    5.24    1.17
  -4  -5   8    5.83    1.92
  -4  -5   8    5.42    1.85
  -4  -5   8    5.41    1.22
  -4  -5   8    5.12    1.32
   5   5  -8   26.99    2.58
  -5  -5   8   23.74    3.59
  -5  -5   8   25.84    2.93
   6   5  -8   38.55    3.26
  -6  -5   8   37.62    4.46
  -6  -5   8   40.54    4.35
  -6   5  -7    1.27    2.10
   6  -5   7    1.21    2.74
   6  -5   7    1.85    4.51
   6  -5   7    0.34    2.50
  -5   5  -7   13.15    2.11
   5  -5   7    5.99    2.39
   5  -5   7    8.80    2.54
   5  -5   7   13.58    3.58
  -4   5  -7   10.54    1.67
  -4   5  -7   12.57    1.81
   4  -5   7   10.75    2.20
   4  -5   7   11.64    1.84
   4  -5   7    7.79    2.73
  -3   5  -7    4.34    1.23
  -3   5  -7    3.13    0.55
  -3   5  -7    2.28    0.83
   3  -5   7    2.94    2.13
   3  -5   7    3.71    1.22
   3  -5   7    4.71    1.57
  -2   5  -7   37.98    1.90
  -2   5  -7   38.52    1.71
  -2   5  -7   39.20    2.37
   2  -5   7   38.19    3.10
   2  -5   7   41.56    2.92
   2  -5   7   38.43    2.22
  -1   5  -7   -0.15    0.34
  -1   5  -7    0.55    0.86
  -1   5  -7    0.20    1.48
   1  -5   7    0.50    0.95
   1  -5   7   -0.48    1.14
   1  -5   7    0.00    1.34
   0   5  -7  137.02    5.09
   0   5  -7  136.55    5.56
   0   5  -7  123.43    6.03
   0  -5   7  146.68    5.84
   0  -5   7  137.57    6.32
   1   5  -7   10.98    0.89
   1   5  -7    7.13    1.34
   1   5  -7   12.82    1.31
  -1  -5   7    9.32    1.74
  -1  -5   7   11.81    1.53
  -1  -5   7   11.27    1.45
   2   5  -7   52.48    2.71
   2   5  -7   50.18    2.24
   2   5  -7   52.53    2.40
   2   5  -7   48.02    3.12
  -2  -5   7   51.49    2.57
  -2  -5   7   51.77    2.95
  -2  -5   7   52.28    3.46
  -2  -5   7   54.60    3.24
   3   5  -7   66.88    3.02
  -3  -5   7   70.47    4.05
  -3  -5   7   67.93    3.14
  -3  -5   7   55.65    3.75
  -3  -5   7   76.23    3.67
   4   5  -7   13.99    1.66
  -4  -5   7   11.12    1.90
  -4  -5   7   11.50    1.82
  -4  -5   7   17.19    2.49
  -4  -5   7   11.94    1.88
   5   5  -7   45.62    3.30
  -5  -5   7   41.19    3.23
  -5  -5   7   43.00    3.79
   6   5  -7    0.48    1.59
  -6  -5   7    0.27    1.98
  -6  -5   7    0.92    2.18
  -6   5  -6    2.62    1.95
   6  -5   6    5.68    2.22
   6  -5   6    3.62    2.37
   6  -5   6   -0.45    3.58
  -5   5  -6   17.11    2.65
   5  -5   6   11.41    2.32
   5  -5   6   14.63    3.09
   5  -5   6   18.88    3.23
  -4   5  -6    1.57    1.21
  -4   5  -6    0.77    1.01
   4  -5   6    1.41    2.28
   4  -5   6    2.48    1.40
   4  -5   6   -0.92    1.24
  -3   5  -6   24.09    1.22
  -3   5  -6   24.45    1.71
  -3   5  -6   27.96    1.94
   3  -5   6   28.84    2.88
   3  -5   6   25.21    2.14
   3  -5   6   24.15    2.59
  -2   5  -6    9.94    1.47
  -2   5  -6   11.12    1.32
  -2   5  -6    9.54    0.74
  -2   5  -6    7.65    1.80
  -2   5  -6    9.68    1.14
   2  -5   6   10.85    1.69
   2  -5   6    5.89    1.44
   2  -5   6    8.21    1.30
  -1   5  -6   93.01    3.48
  -1   5  -6   87.81    3.36
  -1   5  -6   85.69    3.96
  -1   5  -6   77.79    4.39
   1  -5   6   93.19    4.66
   1  -5   6   92.78    4.19
   1  -5   6   94.00    3.84
   0   5  -6  111.57    4.16
   0   5  -6  100.53    4.13
   0   5  -6   99.14    4.94
   0   5  -6  115.04    4.12
   0   5  -6  111.90    4.56
   0  -5   6  114.90    4.76
   0  -5   6  110.84    5.23
   1   5  -6   25.93    1.65
   1   5  -6   23.82    1.96
   1   5  -6   25.08    1.60
   1   5  -6   25.44    1.36
  -1  -5   6   25.15    2.30
  -1  -5   6   23.30    1.69
  -1  -5   6   28.59    2.00
   2   5  -6   82.36    3.21
   2   5  -6   77.78    3.24
   2   5  -6   76.29    3.75
  -2  -5   6   77.97    4.08
  -2  -5   6   77.46    3.38
  -2  -5   6   78.98    3.78
   3   5  -6    0.34    0.64
   3   5  -6    0.31    0.92
  -3  -5   6    0.39    1.13
  -3  -5   6   -0.78    0.83
  -3  -5   6    0.20    1.13
  -3  -5   6    0.77    0.80
   4   5  -6   94.12    4.25
  -4  -5   6   91.31    4.28
  -4  -5   6   99.67    4.90
  -4  -5   6   90.93    4.58
  -4  -5   6   94.47    4.63
   5   5  -6    5.12    1.47
  -5  -5   6    7.10    1.61
  -5  -5   6    4.24    2.01
   6   5  -6   28.23    3.19
  -6  -5   6   26.13    3.57
  -6  -5   6   25.82    3.33
  -7   5  -5    1.14    2.11
   7  -5   5   -4.59    4.65
   7  -5   5    2.80    2.91
   7  -5   5    4.68    2.77
  -6   5  -5   14.36    2.08
   6  -5   5   18.28    2.63
   6  -5   5   12.03    3.44
   6  -5   5   14.56    2.62
  -5   5  -5    2.17    1.42
   5  -5   5    1.81    1.58
   5  -5   5   -1.35    2.47
   5  -5   5    3.57    1.61
  -4   5  -5   20.52    1.96
  -4   5  -5   29.28    2.08
   4  -5   5   23.74    2.98
   4  -5   5   24.12    2.76
   4  -5   5   28.07    2.42
  -3   5  -5   26.77    2.30
  -3   5  -5   26.93    1.77
  -3   5  -5   27.79    1.81
  -3   5  -5   24.65    2.86
  -3   5  -5   19.96    2.69
   3  -5   5   30.94    2.46
   3  -5   5   31.15    2.51
   3  -5   5   29.94    2.07
  -2   5  -5   19.97    1.34
  -2   5  -5   19.14    1.70
  -2   5  -5   21.17    2.30
  -2   5  -5   21.06    1.44
  -2   5  -5   19.11    0.96
   2  -5   5   21.01    1.57
   2  -5   5   21.10    1.95
   2  -5   5   20.32    1.90
  -1   5  -5  155.90    5.73
  -1   5  -5  155.43    6.11
  -1   5  -5  147.28    6.53
  -1   5  -5  152.03    5.48
   1  -5   5  153.65    6.26
   1  -5   5  152.49    5.97
   1  -5   5  149.08    6.54
   0   5  -5    2.81    0.61
   0   5  -5    2.92    1.09
   0   5  -5    2.73    0.72
   0   5  -5    3.17    0.64
   0  -5   5    2.10    1.06
   0  -5   5    3.02    0.76
   0  -5   5    2.00    0.75
   1   5  -5   65.77    2.72
   1   5  -5   63.98    3.08
   1   5  -5   58.58    3.21
   1   5  -5   67.38    2.87
  -1  -5   5   67.70    3.19
  -1  -5   5   68.07    2.99
  -1  -5   5   66.73    3.52
   2   5  -5   17.58    1.57
   2   5  -5   17.85    1.10
   2   5  -5   17.10    1.21
  -2  -5   5   18.14    1.42
  -2  -5   5   19.77    1.74
  -2  -5   5   15.63    1.83
   3   5  -5   70.30    3.30
   3   5  -5   76.45    3.30
  -3  -5   5   64.45    3.51
  -3  -5   5   79.14    3.83
  -3  -5   5   68.22    3.59
  -3  -5   5   71.64    3.30
   4   5  -5   68.43    3.27
   4   5  -5   72.44    3.42
  -4  -5   5   80.81    3.92
  -4  -5   5   67.16    3.69
  -4  -5   5   57.29    3.39
  -4  -5   5   69.19    3.78
   5   5  -5   10.51    1.66
  -5  -5   5   11.55    2.08
  -5  -5   5    8.18    1.58
   6   5  -5   37.31    3.40
  -6  -5   5   37.69    3.53
  -6  -5   5   40.15    3.92
  -7   5  -4    9.00    1.98
   7  -5   4    9.35    2.59
   7  -5   4    4.27    2.66
   7  -5   4   11.18    4.20
  -6   5  -4   15.98    2.41
   6  -5   4   10.81    2.52
   6  -5   4    8.67    3.05
  -5   5  -4    6.03    1.41
   5  -5   4    5.91    2.22
   5  -5   4    7.75    1.74
   5  -5   4    5.80    1.84
  -4   5  -4   39.36    2.29
  -4   5  -4   33.69    2.26
   4  -5   4   37.06    3.05
   4  -5   4   41.01    2.61
   4  -5   4   37.94    2.88
  -3   5  -4    2.24    1.27
  -3   5  -4    0.64    1.16
  -3   5  -4    0.91    0.79
  -3   5  -4    2.23    0.68
  -3   5  -4    0.26    0.66
   3  -5   4    2.30    1.08
   3  -5   4    0.56    0.79
   3  -5   4    0.40    0.88
  -2   5  -4   88.88    4.03
  -2   5  -4   84.84    4.28
  -2   5  -4   97.20    3.79
  -2   5  -4   91.28    3.72
   2  -5   4   92.29    4.17
   2  -5   4   90.65    3.87
   2  -5   4   85.69    3.88
  -1   5  -4   10.84    1.64
  -1   5  -4   14.01    1.12
  -1   5  -4   14.81    1.31
  -1   5  -4   12.92    1.05
   1  -5   4   13.61    1.38
   1  -5   4   12.94    1.23
   1  -5   4   14.06    1.33
   0   5  -4  213.76    8.22
   0   5  -4  222.08    8.62
   0   5  -4  218.52    8.07
   0   5  -4  224.96    8.27
   0  -5   4  220.07    8.18
   0  -5   4  227.15    8.71
   0  -5   4  214.82    8.33
   1   5  -4   70.60    3.32
   1   5  -4   66.37    2.91
   1   5  -4   77.08    3.01
   1   5  -4   68.57    3.31
  -1  -5   4   68.86    3.21
  -1  -5   4   70.54    3.08
  -1  -5   4   70.80    3.50
   2   5  -4    4.83    0.79
   2   5  -4    5.88    0.91
  -2  -5   4    5.00    0.82
  -2  -5   4    5.95    1.09
  -2  -5   4    8.89    1.42
   3   5  -4  133.59    5.42
   3   5  -4  129.65    5.28
  -3  -5   4  138.15    5.68
  -3  -5   4  132.72    5.66
  -3  -5   4  132.58    5.41
   4   5  -4    0.47    1.23
   4   5  -4    0.22    0.79
   4   5  -4   -0.99    0.73
  -4  -5   4   -1.26    1.23
  -4  -5   4   -0.69    1.01
  -4  -5   4    0.20    0.84
   5   5  -4   68.16    3.76
   5   5  -4   64.25    3.27
  -5  -5   4   71.00    3.94
  -5  -5   4   71.05    3.90
   6   5  -4   16.25    2.84
  -6  -5   4   20.14    2.68
  -6  -5   4   12.05    2.23
  -7   5  -3   11.20    2.01
   7  -5   3   16.86    2.72
   7  -5   3   13.69    2.82
   7  -5   3    6.93    3.71
  -6   5  -3    0.10    1.30
   6  -5   3   -0.67    1.92
   6  -5   3    0.62    1.78
   6  -5   3   -1.75    2.72
  -5   5  -3   21.07    2.00
   5  -5   3   18.38    2.41
   5  -5   3   15.51    2.60
   5  -5   3   18.06    2.95
  -4   5  -3    7.43    1.09
  -4   5  -3    7.27    1.17
  -4   5  -3    6.38    1.21
  -4   5  -3    6.00    1.60
   4  -5   3    9.87    1.43
   4  -5   3    5.70    0.87
   4  -5   3    8.30    1.60
   4  -5   3    8.79    1.52
  -3   5  -3   55.79    2.72
  -3   5  -3   56.50    2.97
  -3   5  -3   57.84    2.65
  -3   5  -3   57.77    3.00
   3  -5   3   54.33    2.54
   3  -5   3   60.31    2.91
   3  -5   3   59.26    3.13
   3  -5   3   60.95    3.00
  -2   5  -3   45.92    2.52
  -2   5  -3   50.17    2.23
  -2   5  -3   50.80    2.34
  -2   5  -3   46.35    2.77
   2  -5   3   48.91    2.63
   2  -5   3   48.29    2.43
  -1   5  -3   10.57    0.84
  -1   5  -3   12.02    1.47
  -1   5  -3    9.61    1.07
  -1   5  -3   10.61    1.21
   1  -5   3    8.86    1.17
   1  -5   3   11.11    1.30
   1  -5   3   11.74    1.03
   0   5  -3  176.47    6.97
   0   5  -3  169.57    6.59
   0   5  -3  182.25    6.86
   0   5  -3  180.02    6.70
   0  -5   3  172.11    6.98
   0  -5   3  177.68    6.74
   0  -5   3  171.56    6.58
   1   5  -3    0.64    0.47
   1   5  -3    0.24    0.68
   1   5  -3    0.26    0.30
   1   5  -3    0.49    0.63
   1   5  -3    0.31    0.39
  -1  -5   3    1.47    0.79
  -1  -5   3    0.08    0.61
   2   5  -3  131.19    4.99
   2   5  -3  126.64    4.78
   2   5  -3  130.65    5.07
  -2  -5   3  124.58    5.07
  -2  -5   3  111.20    5.14
  -2  -5   3  134.09    5.29
   3   5  -3   36.22    1.84
   3   5  -3   34.88    2.05
  -3  -5   3   38.06    2.16
  -3  -5   3   33.25    2.21
  -3  -5   3   36.92    2.30
   4   5  -3   47.14    2.84
   4   5  -3   43.91    2.68
   4   5  -3   46.05    2.24
  -4  -5   3   46.88    3.07
  -4  -5   3   45.21    2.71
  -4  -5   3   43.70    2.83
   5   5  -3   44.01    3.04
   5   5  -3   43.29    2.40
  -5  -5   3   49.95    3.14
  -5  -5   3   48.29    3.07
   6   5  -3    2.40    1.62
  -6  -5   3    1.24    1.48
  -6  -5   3    3.14    1.91
  -8   5  -2    3.53    2.26
   8  -5   2    6.89    4.56
   8  -5   2    5.25    2.95
  -7   5  -2    2.83    1.64
   7  -5   2    5.36    3.35
   7  -5   2   -2.29    1.90
   7  -5   2    0.46    2.21
  -6   5  -2   19.78    2.15
   6  -5   2   17.56    3.16
   6  -5   2   14.52    2.42
   6  -5   2   22.42    2.82
  -5   5  -2   41.36    2.52
   5  -5   2   41.29    3.25
   5  -5   2   42.70    3.11
   5  -5   2   45.77    2.99
  -4   5  -2    6.02    0.99
  -4   5  -2    6.33    1.54
  -4   5  -2    5.38    0.89
  -4   5  -2    4.37    1.11
   4  -5   2    5.86    1.21
   4  -5   2    6.54    0.93
   4  -5   2    6.31    1.20
   4  -5   2    6.09    1.27
  -3   5  -2   76.61    3.56
  -3   5  -2   81.09    3.36
  -3   5  -2   80.41    3.70
  -3   5  -2   81.32    3.51
   3  -5   2   74.70    3.24
   3  -5   2   78.70    3.58
   3  -5   2   79.99    3.61
   3  -5   2   82.43    3.82
  -2   5  -2    1.15    0.43
  -2   5  -2    0.92    0.66
  -2   5  -2    0.40    0.54
   2  -5   2    1.85    0.67
   2  -5   2   -0.22    0.51
   2  -5   2    0.75    0.41
  -1   5  -2  145.33    5.75
  -1   5  -2  140.42    5.63
  -1   5  -2  146.07    5.31
  -1   5  -2  145.08    5.63
   1  -5   2  132.24    5.24
   1  -5   2  141.11    5.76
   1  -5   2  144.31    5.66
   0   5  -2   68.80    3.07
   0   5  -2   71.18    3.34
   0   5  -2   71.91    2.87
   0   5  -2   69.70    3.03
   0  -5   2   71.90    3.21
   0  -5   2   71.37    2.94
   1   5  -2  148.42    5.65
   1   5  -2  152.98    5.83
   1   5  -2  155.46    5.90
   1   5  -2  158.30    6.37
   1   5  -2  149.57    5.90
  -1  -5   2  151.35    5.90
  -1  -5   2  159.96    6.07
   2   5  -2  139.62    5.11
   2   5  -2  132.93    4.98
   2   5  -2  127.42    5.35
  -2  -5   2  135.03    5.42
  -2  -5   2  142.20    5.41
  -2  -5   2  129.02    5.36
   3   5  -2   11.81    1.30
   3   5  -2   11.79    0.96
  -3  -5   2   11.14    1.43
  -3  -5   2   13.13    1.36
  -3  -5   2   12.08    1.61
  -3  -5   2   12.67    1.53
   4   5  -2   87.03    4.18
   4   5  -2   81.78    4.08
   4   5  -2   85.39    3.46
  -4  -5   2   86.35    4.10
  -4  -5   2   81.88    3.82
   5   5  -2    3.65    0.87
   5   5  -2    3.11    1.27
  -5  -5   2    3.13    1.38
  -5  -5   2    1.82    1.24
   6   5  -2   33.06    3.31
  -6  -5   2   32.63    3.39
  -8   5  -1    0.79    1.98
   8  -5   1    0.41    3.76
   8  -5   1    7.55    2.82
   8  -5   1    2.27    2.48
  -7   5  -1    1.24    1.51
   7  -5   1    4.29    2.08
   7  -5   1    4.17    2.96
   7  -5   1    5.07    2.00
  -6   5  -1   26.20    2.25
   6  -5   1   25.00    3.69
   6  -5   1   27.69    2.85
   6  -5   1   28.10    3.00
  -5   5  -1    0.10    1.61
  -5   5  -1    1.02    0.85
  -5   5  -1    1.60    1.31
   5  -5   1    0.14    1.12
   5  -5   1    1.36    1.34
   5  -5   1    0.83    1.04
  -4   5  -1  106.24    4.63
  -4   5  -1  102.75    4.26
  -4   5  -1   94.83    4.35
  -4   5  -1  100.70    4.66
   4  -5   1   98.80    4.15
   4  -5   1  104.49    4.66
   4  -5   1  108.03    4.72
   4  -5   1  108.05    4.63
  -3   5  -1   11.29    1.15
  -3   5  -1    9.78    1.32
  -3   5  -1   11.55    0.98
  -3   5  -1   10.36    1.33
   3  -5   1    9.90    1.24
   3  -5   1    9.94    0.89
   3  -5   1   11.85    1.27
   3  -5   1   12.18    1.37
  -2   5  -1   50.17    2.59
  -2   5  -1   53.50    2.54
  -2   5  -1   50.11    2.21
   2  -5   1   51.43    2.18
   2  -5   1   51.57    2.58
   2  -5   1   52.73    2.60
  -1   5  -1  175.80    6.71
  -1   5  -1  191.32    6.97
  -1   5  -1  178.09    7.05
  -1   5  -1  183.52    6.97
  -1   5  -1  181.41    6.59
   1  -5   1  181.22    7.17
   1  -5   1  177.42    6.55
   0   5  -1   25.98    1.63
   0   5  -1   32.33    1.34
   0   5  -1   33.32    1.76
   0   5  -1   26.54    1.42
   0   5  -1   30.02    1.69
   0   5  -1   33.90    2.10
   0  -5   1   30.52    1.51
   1   5  -1  254.25    9.10
   1   5  -1  237.59    9.33
   1   5  -1  263.19    9.13
  -1  -5   1  257.23    9.40
  -1  -5   1  254.27    9.27
  -1  -5   1  249.04    9.07
   2   5  -1    0.87    0.34
   2   5  -1   -0.29    0.50
   2   5  -1    0.94    0.44
  -2  -5   1   -0.17    0.62
  -2  -5   1    0.45    0.36
  -2  -5   1    2.35    0.91
  -2  -5   1   -0.43    0.60
  -2  -5   1    0.99    0.69
   3   5  -1   96.73    3.59
   3   5  -1   97.52    4.13
   3   5  -1   94.38    4.18
   3   5  -1   86.11    3.59
  -3  -5   1   82.67    4.09
  -3  -5   1   91.88    3.57
  -3  -5   1   97.11    3.91
  -3  -5   1   93.83    4.13
  -3  -5   1   96.89    4.44
   4   5  -1   34.70    1.66
   4   5  -1   35.21    2.61
   4   5  -1   25.92    2.33
  -4  -5   1   31.93    3.01
  -4  -5   1   33.47    2.06
  -4  -5   1   35.70    2.39
   5   5  -1   26.52    2.45
  -5  -5   1   23.24    2.24
  -5  -5   1   25.60    2.49
   6   5  -1   27.13    3.10
  -6  -5   1   23.68    3.16
  -8   5   0   -0.14    1.68
  -8   5   0   -2.79    1.95
   8  -5   0   -2.92    2.39
   8  -5   0   -4.79    3.70
  -7   5   0   16.91    2.37
   7  -5   0   14.83    3.45
   7  -5   0   14.62    2.35
   7  -5   0   14.58    2.49
  -6   5   0    7.72    1.53
   6  -5   0    6.82    1.74
   6  -5   0   10.89    1.81
   6  -5   0    9.15    2.20
  -5   5   0   35.83    2.12
  -5   5   0   36.43    2.49
  -5   5   0   29.32    2.95
   5  -5   0   33.98    2.55
   5  -5   0   32.11    2.68
   5  -5   0   35.07    2.43
  -4   5   0   72.56    3.45
  -4   5   0   77.01    3.65
  -4   5   0   75.05    3.33
  -4   5   0   75.54    3.73
   4  -5   0   76.83    3.69
   4  -5   0   72.72    3.20
   4  -5   0   76.29    3.69
   4  -5   0   81.12    3.76
  -3   5   0   25.03    1.40
  -3   5   0   25.22    1.68
  -3   5   0   23.13    1.59
  -3   5   0   23.17    1.75
   3  -5   0   23.70    1.69
   3  -5   0   22.79    1.64
   3  -5   0   23.86    1.34
   3  -5   0   21.52    1.66
  -2   5   0  127.84    5.07
  -2   5   0  122.97    4.79
  -2   5   0  123.27    4.67
  -2   5   0  126.86    5.04
   2  -5   0  123.84    4.79
   2  -5   0  123.91    5.13
   2  -5   0  125.21    4.63
   2  -5   0  111.97    4.43
  -1   5   0   24.87    1.61
  -1   5   0   26.27    1.38
  -1   5   0   24.87    1.19
  -1   5   0   24.22    1.77
   1  -5   0   24.40    1.14
   1  -5   0   24.07    1.80
   1  -5   0   25.73    1.20
   0   5   0  203.93    7.25
   0   5   0  192.41    7.69
   0   5   0  221.44    7.56
   0   5   0  215.19    8.16
   0   5   0  199.79    7.48
   0  -5   0  195.54    7.47
   0  -5   0  202.62    7.44
   1   5   0   83.81    3.73
   1   5   0   92.65    3.54
  -1  -5   0   88.22    3.61
  -1  -5   0   87.38    3.49
  -1  -5   0   89.92    3.80
   2   5   0   55.25    2.67
   2   5   0   46.83    2.27
   2   5   0   54.47    2.55
  -2  -5   0   52.97    2.56
  -2  -5   0   50.10    2.26
  -2  -5   0   58.17    2.81
  -2  -5   0   51.41    2.63
   3   5   0   52.71    2.45
   3   5   0   62.17    3.01
   3   5   0   57.52    2.99
  -3  -5   0   58.17    2.89
  -3  -5   0   54.23    2.43
   4   5   0    0.13    1.26
   4   5   0    3.45    1.22
   4   5   0    2.40    0.68
  -4  -5   0    2.39    1.57
  -4  -5   0    3.79    1.03
  -4  -5   0    1.64    0.72
   5   5   0   77.57    4.14
  -5  -5   0   77.04    4.09
   6   5   0    3.74    1.84
  -6  -5   0    2.97    1.78
  -8   5   1    4.50    1.96
   8  -5  -1   10.59    3.82
   8  -5  -1    5.62    2.43
  -7   5   1   18.87    2.27
  -7   5   1   19.73    2.25
   7  -5  -1   17.28    3.30
   7  -5  -1   21.07    3.06
  -6   5   1    4.23    1.04
  -6   5   1    5.52    1.32
  -6   5   1    4.10    1.66
   6  -5  -1    4.16    1.96
   6  -5  -1    5.13    1.52
  -5   5   1   59.19    2.92
  -5   5   1   51.42    3.17
  -5   5   1   52.36    3.53
  -5   5   1   62.18    2.83
   5  -5  -1   60.72    3.34
   5  -5  -1   56.83    3.45
  -4   5   1    2.58    0.66
  -4   5   1    4.96    1.12
  -4   5   1    2.97    0.84
  -4   5   1    3.23    0.77
  -4   5   1    2.64    0.75
   4  -5  -1    3.61    0.62
   4  -5  -1    4.14    0.98
   4  -5  -1    0.73    0.95
  -3   5   1  143.24    5.41
  -3   5   1  143.41    5.76
  -3   5   1  142.17    5.64
  -3   5   1  138.41    5.69
  -3   5   1  143.48    5.49
   3  -5  -1  140.13    5.84
   3  -5  -1  140.24    5.68
   3  -5  -1  141.27    5.35
   3  -5  -1  136.43    5.02
  -2   5   1   76.45    3.11
  -2   5   1   82.13    3.55
  -2   5   1   77.43    3.24
  -2   5   1   81.27    3.25
  -2   5   1   78.30    3.53
   2  -5  -1   76.87    2.92
   2  -5  -1   75.42    3.61
   2  -5  -1   76.57    3.07
  -1   5   1  194.40    7.68
  -1   5   1  194.84    6.99
  -1   5   1  188.26    7.20
   1  -5  -1  201.00    6.95
   1  -5  -1  200.03    7.25
   1  -5  -1  198.79    7.80
   1  -5  -1  186.70    7.20
   1  -5  -1  190.76    6.98
   0   5   1  230.97    8.57
   0   5   1  249.88    8.42
   0   5   1  234.23    9.23
   0   5   1  225.09    8.75
   0  -5  -1  225.58    8.52
   0  -5  -1  236.78    8.46
   1   5   1    6.42    0.92
   1   5   1    5.10    0.80
   1   5   1    5.44    0.87
  -1  -5  -1    5.31    0.73
  -1  -5  -1    5.51    1.00
  -1  -5  -1    5.62    0.97
  -1  -5  -1    4.52    0.67
   2   5   1  115.39    4.84
   2   5   1  115.99    4.79
   2   5   1  111.59    4.49
  -2  -5  -1  105.01    4.79
  -2  -5  -1  128.34    5.51
  -2  -5  -1  114.59    4.65
  -2  -5  -1  112.16    4.45
   3   5   1    5.68    1.13
   3   5   1    5.25    1.04
   3   5   1    6.85    0.88
  -3  -5  -1    4.55    1.52
  -3  -5  -1    3.75    0.84
  -3  -5  -1    5.01    0.81
   4   5   1   61.78    3.37
   4   5   1   59.32    3.50
   4   5   1   56.24    2.80
  -4  -5  -1   58.33    2.79
  -4  -5  -1   56.27    3.14
  -4  -5  -1   56.48    4.00
   5   5   1   26.84    2.11
   5   5   1   30.74    2.77
  -5  -5  -1   29.54    2.55
   6   5   1   12.73    2.17
  -6  -5  -1    8.55    2.21
  -8   5   2   16.57    2.75
  -8   5   2    9.92    2.04
   8  -5  -2   14.90    2.57
   8  -5  -2    6.30    3.71
  -7   5   2    1.21    1.25
  -7   5   2    1.59    1.13
   7  -5  -2    0.24    2.53
   7  -5  -2   -2.03    1.62
  -6   5   2   24.13    2.13
  -6   5   2   23.96    2.60
  -6   5   2   29.14    1.95
   6  -5  -2   30.10    2.81
   6  -5  -2   26.88    3.18
   6  -5  -2   22.32    1.23
  -5   5   2   13.50    1.85
  -5   5   2   10.36    1.80
  -5   5   2   14.92    1.39
  -5   5   2   12.20    1.49
   5  -5  -2   11.15    0.81
   5  -5  -2   12.47    1.72
   5  -5  -2   12.32    2.07
  -4   5   2   46.23    2.26
  -4   5   2   42.88    2.18
  -4   5   2   42.12    2.60
  -4   5   2   41.12    2.49
  -4   5   2   42.97    2.38
   4  -5  -2   41.47    1.73
   4  -5  -2   42.90    2.63
   4  -5  -2   43.93    2.59
   4  -5  -2   43.59    2.15
  -3   5   2   56.15    2.51
  -3   5   2   60.04    2.91
  -3   5   2   54.38    2.53
  -3   5   2   54.49    2.76
  -3   5   2   54.13    2.79
   3  -5  -2   58.91    2.96
   3  -5  -2   56.13    2.84
   3  -5  -2   56.58    2.16
   3  -5  -2   53.40    2.44
  -2   5   2   28.89    1.62
  -2   5   2   32.33    1.95
  -2   5   2   32.11    1.52
  -2   5   2   32.84    1.82
   2  -5  -2   31.38    1.49
   2  -5  -2   30.49    1.36
   2  -5  -2   29.27    1.62
   2  -5  -2   29.44    2.01
   2  -5  -2   33.40    1.90
  -1   5   2  554.28   19.48
  -1   5   2  540.89   19.20
  -1   5   2  554.68   19.50
  -1   5   2  546.34   19.99
  -1   5   2  573.02   19.66
   1  -5  -2  546.05   19.63
   1  -5  -2  553.17   20.10
   1  -5  -2  552.63   19.23
   1  -5  -2  544.10   19.46
   1  -5  -2  531.12   19.16
   0   5   2    9.08    1.12
   0   5   2   10.40    1.09
   0   5   2    8.41    1.05
   0   5   2   10.76    1.59
   0   5   2    9.59    0.94
   0  -5  -2    9.73    0.89
   0  -5  -2    9.36    0.81
   0  -5  -2    9.19    1.35
   1   5   2   91.37    3.83
   1   5   2   92.92    4.56
   1   5   2   92.61    3.96
   1   5   2   95.22    4.00
  -1  -5  -2   89.68    3.74
  -1  -5  -2   92.30    4.05
  -1  -5  -2   90.58    3.73
   2   5   2   32.44    2.01
   2   5   2   30.97    2.09
   2   5   2   32.17    1.78
  -2  -5  -2   32.94    2.52
  -2  -5  -2   28.85    1.78
  -2  -5  -2   28.44    2.05
  -2  -5  -2   32.68    1.80
   3   5   2   33.80    1.97
   3   5   2   37.16    2.43
   3   5   2   31.13    2.44
  -3  -5  -2   31.75    2.02
  -3  -5  -2   32.56    3.12
  -3  -5  -2   33.49    2.05
   4   5   2   45.24    3.23
   4   5   2   51.68    3.10
   4   5   2   49.35    2.62
  -4  -5  -2   46.99    2.70
  -4  -5  -2   46.13    2.78
  -4  -5  -2   45.52    4.18
   5   5   2    0.53    1.36
   5   5   2    0.63    1.24
  -5  -5  -2   -0.23    1.20
   6   5   2   16.88    2.55
  -6  -5  -2   15.06    2.67
  -8   5   3    3.43    1.74
  -8   5   3    5.60    1.60
   8  -5  -3   -1.51    3.39
   8  -5  -3    6.22    2.48
  -7   5   3   20.64    2.40
  -7   5   3   19.02    2.00
   7  -5  -3   18.61    2.48
   7  -5  -3   25.65    4.22
  -6   5   3   25.04    2.60
  -6   5   3   30.02    2.28
  -6   5   3   30.06    1.98
   6  -5  -3   26.81    1.42
   6  -5  -3   23.99    3.33
   6  -5  -3   28.36    2.86
  -5   5   3    4.10    0.84
  -5   5   3    3.89    1.01
  -5   5   3    6.34    1.61
  -5   5   3    3.51    1.10
   5  -5  -3    4.72    1.50
   5  -5  -3    3.69    1.19
   5  -5  -3    3.88    0.54
  -4   5   3   81.30    3.34
  -4   5   3   73.25    3.75
  -4   5   3   70.56    3.50
  -4   5   3   76.76    3.37
  -4   5   3   73.83    3.67
   4  -5  -3   77.96    3.86
   4  -5  -3   77.07    2.90
   4  -5  -3   74.11    3.30
   4  -5  -3   77.12    3.78
  -3   5   3    0.39    0.79
  -3   5   3    2.10    0.74
  -3   5   3    1.72    0.54
  -3   5   3    3.17    0.66
   3  -5  -3    1.27    0.85
   3  -5  -3    1.85    0.86
   3  -5  -3    2.18    0.39
   3  -5  -3    1.94    0.51
   3  -5  -3    1.84    0.51
  -2   5   3  178.53    7.00
  -2   5   3  178.48    7.18
  -2   5   3  180.90    6.69
  -2   5   3  182.54    6.88
   2  -5  -3  182.08    6.65
   2  -5  -3  176.18    7.09
   2  -5  -3  182.92    6.52
   2  -5  -3  183.23    6.87
  -1   5   3   89.41    3.94
  -1   5   3   96.05    4.12
  -1   5   3   84.47    4.23
  -1   5   3   99.47    3.90
  -1   5   3   96.07    3.55
   1  -5  -3   95.75    3.79
   1  -5  -3   89.59    3.46
   1  -5  -3   94.02    3.55
   1  -5  -3   87.61    4.34
   1  -5  -3   89.81    4.08
   0   5   3   92.00    4.17
   0   5   3   92.94    4.07
   0   5   3   98.01    4.23
   0   5   3  100.33    4.07
   0   5   3   92.89    4.61
   0  -5  -3   97.32    3.79
   0  -5  -3   93.01    3.94
   0  -5  -3  107.91    5.24
   1   5   3   78.78    4.21
   1   5   3   74.68    3.83
   1   5   3   77.62    3.43
   1   5   3   80.30    3.52
   1   5   3   77.22    3.66
  -1  -5  -3   78.11    3.38
  -1  -5  -3   76.87    3.25
  -1  -5  -3   80.20    4.02
   2   5   3    0.92    0.72
   2   5   3    1.86    0.96
   2   5   3    1.20    0.75
  -2  -5  -3    0.30    0.56
  -2  -5  -3    0.74    1.44
  -2  -5  -3    1.60    1.04
  -2  -5  -3    1.48    0.74
   3   5   3   89.75    4.37
   3   5   3   90.23    3.99
   3   5   3   90.64    4.53
  -3  -5  -3   91.54    4.01
  -3  -5  -3   86.27    5.21
   4   5   3    1.09    1.70
   4   5   3    4.04    1.12
   4   5   3    3.46    1.20
  -4  -5  -3    3.27    1.15
  -4  -5  -3    2.00    1.01
   5   5   3   21.03    2.94
   5   5   3   20.97    2.79
  -5  -5  -3   22.86    2.59
  -8   5   4    1.94    1.40
  -8   5   4    3.24    1.90
   8  -5  -4    3.99    3.60
   8  -5  -4    5.05    2.35
  -7   5   4   40.96    2.56
  -7   5   4   36.00    2.78
   7  -5  -4   38.96    3.57
   7  -5  -4   36.96    4.60
   7  -5  -4   31.67    1.87
  -6   5   4    0.28    1.00
  -6   5   4    0.84    1.37
  -6   5   4    2.77    0.94
   6  -5  -4    0.06    1.93
   6  -5  -4    2.44    0.56
   6  -5  -4    2.25    1.46
  -5   5   4   41.21    3.21
  -5   5   4   47.08    2.35
  -5   5   4   42.39    2.53
  -5   5   4   42.50    2.82
   5  -5  -4   45.45    2.97
   5  -5  -4   42.00    1.91
   5  -5  -4   42.14    3.26
  -4   5   4   25.55    1.60
  -4   5   4   24.66    1.79
  -4   5   4   22.49    1.95
  -4   5   4   24.87    1.69
  -4   5   4   25.46    2.26
   4  -5  -4   25.23    2.06
   4  -5  -4   24.99    2.23
   4  -5  -4   24.29    1.22
   4  -5  -4   21.48    1.56
  -3   5   4   60.86    3.05
  -3   5   4   64.50    2.83
  -3   5   4   62.26    2.89
  -3   5   4   59.21    3.21
   3  -5  -4   65.92    3.33
   3  -5  -4   62.45    2.85
   3  -5  -4   61.95    3.28
   3  -5  -4   63.82    2.51
   3  -5  -4   63.14    2.76
  -2   5   4   90.72    4.05
  -2   5   4   89.52    3.62
  -2   5   4   93.55    4.38
  -2   5   4   94.99    3.86
  -2   5   4   86.56    4.07
   2  -5  -4   89.21    3.44
   2  -5  -4   88.25    3.54
   2  -5  -4   85.55    4.30
   2  -5  -4   86.11    3.72
   2  -5  -4   90.21    4.13
  -1   5   4   13.42    0.90
  -1   5   4   13.34    1.48
  -1   5   4   14.21    1.60
  -1   5   4   13.95    1.31
   1  -5  -4   11.33    1.51
   1  -5  -4   12.68    1.10
   1  -5  -4   12.92    0.95
   1  -5  -4   12.53    1.69
   1  -5  -4   12.07    0.83
   0   5   4   91.60    4.72
   0   5   4  102.77    4.25
   0   5   4  101.22    4.22
   0   5   4   98.73    4.49
   0   5   4   95.64    4.44
   0  -5  -4  100.32    4.14
   0  -5  -4   98.94    4.85
   1   5   4    1.74    0.70
   1   5   4    0.77    0.70
   1   5   4    2.14    1.33
   1   5   4    2.06    1.27
   1   5   4    0.10    0.93
  -1  -5  -4    0.44    0.68
  -1  -5  -4    2.58    1.45
  -1  -5  -4    1.13    0.49
   2   5   4   59.00    3.00
   2   5   4   62.48    3.15
   2   5   4   60.56    3.44
  -2  -5  -4   61.77    4.22
  -2  -5  -4   62.97    2.89
   3   5   4   61.66    3.26
   3   5   4   69.54    3.58
   3   5   4   59.79    3.77
  -3  -5  -4   64.27    3.15
  -3  -5  -4   61.58    4.85
   4   5   4    9.72    1.74
   4   5   4    9.87    1.73
  -4  -5  -4    8.33    1.38
   5   5   4   29.29    3.16
   5   5   4   18.95    2.56
  -5  -5  -4   23.88    2.84
  -8   5   5   13.07    2.24
   8  -5  -5    6.94    4.08
   8  -5  -5   10.86    2.59
  -7   5   5    4.09    1.43
  -7   5   5    5.58    1.30
   7  -5  -5    4.73    1.97
   7  -5  -5    3.22    2.86
   7  -5  -5    5.19    0.77
  -6   5   5   13.47    1.94
  -6   5   5   11.94    1.91
  -6   5   5   15.09    1.67
   6  -5  -5   15.74    2.62
   6  -5  -5   15.70    2.16
   6  -5  -5   16.02    1.17
  -5   5   5   62.05    2.96
  -5   5   5   54.62    3.36
  -5   5   5   56.01    3.88
  -5   5   5   61.11    3.17
   5  -5  -5   61.94    3.85
   5  -5  -5   56.90    2.46
   5  -5  -5   58.53    3.47
  -4   5   5    2.18    0.78
  -4   5   5    2.34    0.92
  -4   5   5    2.91    1.35
  -4   5   5    2.10    0.79
   4  -5  -5    2.36    0.50
   4  -5  -5    2.79    1.30
   4  -5  -5    2.59    1.00
   4  -5  -5    1.70    0.75
   4  -5  -5    1.70    0.65
  -3   5   5  131.89    5.60
  -3   5   5  138.11    5.42
  -3   5   5  139.93    5.51
  -3   5   5  132.94    5.87
   3  -5  -5  139.84    5.96
   3  -5  -5  131.31    5.27
   3  -5  -5  133.98    5.04
   3  -5  -5  136.43    5.93
   3  -5  -5  132.36    5.39
  -2   5   5    7.98    1.29
  -2   5   5    7.56    1.21
  -2   5   5    5.82    0.81
  -2   5   5    5.07    1.38
  -2   5   5    7.11    1.30
   2  -5  -5    6.73    0.81
   2  -5  -5    7.42    1.29
   2  -5  -5    6.18    0.94
   2  -5  -5    5.54    0.84
   2  -5  -5    8.20    1.44
  -1   5   5   88.80    4.33
  -1   5   5   88.91    3.93
  -1   5   5   91.50    3.98
  -1   5   5   91.03    3.59
  -1   5   5   86.41    4.20
  -1   5   5   90.40    4.42
   1  -5  -5   92.22    3.56
   1  -5  -5   84.89    3.79
   1  -5  -5   85.25    3.45
   0   5   5   50.33    2.55
   0   5   5   48.26    3.24
   0   5   5   45.82    2.98
   0   5   5   53.64    2.72
   0   5   5   49.73    3.10
   0  -5  -5   49.22    3.55
   0  -5  -5   47.99    2.56
   0  -5  -5   49.14    2.26
   1   5   5   33.18    2.62
   1   5   5   28.06    3.06
   1   5   5   37.39    2.18
   1   5   5   33.83    2.14
   1   5   5   29.16    3.04
  -1  -5  -5   37.70    1.87
  -1  -5  -5   29.96    2.19
  -1  -5  -5   32.86    3.46
   2   5   5   63.03    3.83
   2   5   5   62.47    3.24
   2   5   5   67.25    3.38
  -2  -5  -5   63.44    4.78
  -2  -5  -5   59.94    2.95
   3   5   5    0.78    1.21
   3   5   5    1.53    1.25
   3   5   5   -0.32    1.88
  -3  -5  -5   -0.20    0.73
  -3  -5  -5   -1.43    3.23
   4   5   5   32.35    2.94
   4   5   5   25.60    2.78
  -4  -5  -5   28.91    2.46
   5   5   5   -2.71    2.09
   5   5   5    6.35    2.04
  -5  -5  -5    0.90    1.73
  -8   5   6   12.09    2.27
   8  -5  -6    9.81    4.57
   8  -5  -6    8.53    0.99
   8  -5  -6   11.71    2.58
  -7   5   6    3.77    1.55
  -7   5   6    3.03    1.32
   7  -5  -6    1.95    1.94
   7  -5  -6   -0.14    2.68
   7  -5  -6    5.02    0.78
  -6   5   6   29.64    2.20
  -6   5   6   26.20    2.97
  -6   5   6   32.47    2.58
   6  -5  -6   32.86    3.04
   6  -5  -6   30.97    3.69
   6  -5  -6   29.46    1.62
  -5   5   6    6.52    1.52
  -5   5   6    3.87    2.03
  -5   5   6    5.07    1.04
  -5   5   6    7.35    1.46
   5  -5  -6    4.66    1.82
   5  -5  -6    4.84    1.42
   5  -5  -6    6.41    0.84
  -4   5   6   82.14    3.93
  -4   5   6   81.54    4.56
  -4   5   6   91.33    3.90
  -4   5   6   86.42    3.94
   4  -5  -6   85.70    3.79
   4  -5  -6   87.02    3.41
   4  -5  -6   87.82    4.35
   4  -5  -6   76.67    3.73
   4  -5  -6   84.63    4.48
  -3   5   6   66.47    3.13
  -3   5   6   57.77    2.88
  -3   5   6   57.14    3.60
  -3   5   6   59.92    3.08
   3  -5  -6   63.66    2.57
   3  -5  -6   59.62    2.88
   3  -5  -6   59.50    3.51
   3  -5  -6   60.18    2.79
   3  -5  -6   60.81    3.47
  -2   5   6   21.18    2.31
  -2   5   6   18.66    1.67
  -2   5   6   17.69    2.68
  -2   5   6   16.80    1.83
  -2   5   6   17.85    1.36
   2  -5  -6   16.39    1.43
   2  -5  -6   17.03    1.16
   2  -5  -6   17.86    1.25
   2  -5  -6   23.12    2.11
   2  -5  -6   16.95    2.13
  -1   5   6  123.64    4.73
  -1   5   6  127.68    5.13
  -1   5   6  116.96    5.81
  -1   5   6  114.81    5.47
  -1   5   6  117.47    5.42
  -1   5   6  119.94    4.98
   1  -5  -6  109.57    4.92
   1  -5  -6  118.39    4.60
   1  -5  -6  115.36    4.54
   0   5   6    0.37    0.79
   0   5   6    1.06    1.37
   0   5   6   -0.28    0.87
   0   5   6   -0.58    1.51
   0   5   6    1.65    1.46
   0   5   6    0.29    0.69
   0  -5  -6    0.63    0.57
   0  -5  -6   -0.04    0.42
   0  -5  -6    0.15    0.69
   1   5   6   58.12    4.39
   1   5   6   65.44    3.38
   1   5   6   58.69    4.08
   1   5   6   67.38    3.31
  -1  -5  -6   65.74    2.94
  -1  -5  -6   66.03    5.14
   2   5   6    1.95    1.97
   2   5   6    2.64    1.24
   2   5   6    2.26    1.17
  -2  -5  -6   -0.88    2.88
  -2  -5  -6    1.63    0.77
   3   5   6   52.39    3.44
   3   5   6   39.94    3.01
  -3  -5  -6   43.95    2.65
   4   5   6   11.32    2.02
   4   5   6    9.57    1.94
  -4  -5  -6   12.84    1.77
  -8   5   7    2.81    2.09
   8  -5  -7    0.29    0.78
   8  -5  -7    1.15    2.55
  -7   5   7   21.90    2.76
  -7   5   7   18.30    2.30
   7  -5  -7   22.54    3.35
   7  -5  -7   22.86    3.66
   7  -5  -7   22.16    1.54
  -6   5   7   16.35    1.92
  -6   5   7   13.97    2.16
   6  -5  -7   14.61    1.22
   6  -5  -7   15.51    2.68
   6  -5  -7   16.41    2.74
  -5   5   7   20.41    2.94
  -5   5   7   17.34    1.86
  -5   5   7   18.29    1.95
   5  -5  -7   20.25    1.27
   5  -5  -7   19.99    2.55
   5  -5  -7   21.62    2.94
  -4   5   7  111.57    4.69
  -4   5   7  107.42    4.72
  -4   5   7   98.54    5.47
  -4   5   7  100.08    4.64
   4  -5  -7  101.62    5.34
   4  -5  -7  102.17    4.56
   4  -5  -7  105.16    4.14
   4  -5  -7  107.10    5.18
  -3   5   7    9.47    1.30
  -3   5   7   10.85    1.62
  -3   5   7   13.97    2.24
  -3   5   7    9.42    1.60
   3  -5  -7   15.47    2.19
   3  -5  -7   13.30    1.98
   3  -5  -7   11.00    1.31
   3  -5  -7   10.06    1.43
   3  -5  -7    9.24    0.95
  -2   5   7   59.77    3.11
  -2   5   7   55.42    2.76
  -2   5   7   56.65    3.15
  -2   5   7   57.87    3.76
  -2   5   7   48.65    4.26
   2  -5  -7   55.78    3.72
   2  -5  -7   54.27    2.46
   2  -5  -7   53.77    2.62
   2  -5  -7   55.44    3.38
  -1   5   7   17.56    2.62
  -1   5   7   20.70    1.89
  -1   5   7   15.38    2.97
  -1   5   7   19.38    1.62
  -1   5   7   17.33    1.54
  -1   5   7   15.09    2.26
   1  -5  -7   16.45    1.30
   1  -5  -7   18.66    1.29
   0   5   7   75.91    3.73
   0   5   7   65.33    4.66
   0   5   7   73.96    3.35
   0   5   7   70.32    4.94
   0   5   7   57.67    3.16
   0   5   7   62.91    4.34
   0  -5  -7   70.05    3.03
   1   5   7   37.00    2.66
   1   5   7   34.06    3.87
   1   5   7   37.96    2.51
  -1  -5  -7   35.18    4.66
  -1  -5  -7   36.23    2.07
   2   5   7    8.82    1.65
   2   5   7    4.33    2.37
  -2  -5  -7    4.66    0.96
   3   5   7   36.07    3.19
   3   5   7   34.73    2.98
  -3  -5  -7   32.86    2.49
   4   5   7    0.42    1.88
   4   5   7    2.85    1.99
  -4  -5  -7   -2.44    1.56
  -7   5   8   22.13    2.81
  -7   5   8   16.80    2.63
   7  -5  -8   28.64    3.67
   7  -5  -8   14.19    3.56
   7  -5  -8   23.27    1.63
  -6   5   8    0.85    1.31
  -6   5   8   -0.43    1.26
   6  -5  -8    0.15    0.60
   6  -5  -8   -0.95    1.73
   6  -5  -8   -2.99    2.19
  -5   5   8   35.71    2.55
  -5   5   8   34.32    2.61
   5  -5  -8   36.32    3.37
   5  -5  -8   33.33    1.85
   5  -5  -8   37.13    3.62
  -4   5   8    2.87    1.18
  -4   5   8    0.21    0.98
  -4   5   8    0.30    2.26
  -4   5   8    0.99    1.17
   4  -5  -8    1.82    1.42
   4  -5  -8   -2.43    1.57
   4  -5  -8    0.90    0.51
  -3   5   8  148.06    5.97
  -3   5   8  145.44    5.97
  -3   5   8  124.32    6.86
  -3   5   8  139.41    6.89
  -3   5   8  129.98    5.78
   3  -5  -8  140.85    6.68
   3  -5  -8  138.92    6.36
   3  -5  -8  130.98    5.64
   3  -5  -8  140.27    5.33
  -2   5   8   15.69    2.09
  -2   5   8   18.01    1.82
  -2   5   8   20.80    3.25
  -2   5   8   20.24    2.12
  -2   5   8   22.11    3.17
  -2   5   8   18.79    1.85
   2  -5  -8   18.48    1.56
   2  -5  -8   17.70    1.31
  -1   5   8   12.02    1.88
  -1   5   8   13.26    1.73
  -1   5   8   10.29    2.39
  -1   5   8   12.18    1.99
  -1   5   8   12.83    2.61
  -1   5   8   11.36    1.50
   1  -5  -8   13.22    1.19
   1  -5  -8   13.71    1.38
   0   5   8   61.70    4.41
   0   5   8   59.03    4.39
   0   5   8   56.09    3.23
   0   5   8   65.92    3.22
   0   5   8   68.87    3.62
   0  -5  -8   63.44    2.93
   0  -5  -8   63.09    2.81
   1   5   8   -0.05    1.20
   1   5   8    0.07    1.12
   1   5   8   -0.75    2.17
  -1  -5  -8    0.62    0.78
  -1  -5  -8   -0.72    3.14
   2   5   8   20.99    2.53
   2   5   8   24.78    2.58
  -2  -5  -8   22.22    1.93
   3   5   8    3.84    1.73
   3   5   8    1.00    1.84
  -3  -5  -8    2.65    1.28
  -7   5   9    1.47    1.78
  -7   5   9   -0.04    1.70
   7  -5  -9    0.22    2.28
   7  -5  -9   -0.54    0.74
  -6   5   9   19.90    2.63
  -6   5   9   15.10    2.60
   6  -5  -9   20.58    2.85
   6  -5  -9   19.88    3.20
   6  -5  -9   20.81    1.48
  -5   5   9   12.45    1.89
  -5   5   9   14.68    2.15
   5  -5  -9   16.05    1.31
   5  -5  -9   13.23    2.50
   5  -5  -9   11.75    2.64
  -4   5   9   14.97    2.33
  -4   5   9   15.21    2.27
   4  -5  -9   13.88    1.25
   4  -5  -9   17.06    2.97
   4  -5  -9   13.99    2.75
  -3   5   9   53.82    4.73
  -3   5   9   65.44    3.58
  -3   5   9   67.25    3.53
  -3   5   9   55.90    3.30
  -3   5   9   43.29    6.33
   3  -5  -9   61.63    2.78
   3  -5  -9   61.97    4.53
   3  -5  -9   67.22    4.06
  -2   5   9    1.72    2.16
  -2   5   9   -0.14    1.29
  -2   5   9   -0.88    1.11
  -2   5   9    1.93    1.00
  -2   5   9   -1.45    1.18
   2  -5  -9   -0.13    0.56
   2  -5  -9    0.05    0.94
  -1   5   9   38.00    3.10
  -1   5   9   37.85    4.18
  -1   5   9   44.29    2.49
  -1   5   9   45.59    2.93
  -1   5   9   37.62    2.83
   1  -5  -9   41.83    2.22
   1  -5  -9   37.92    2.34
   0   5   9   11.29    1.75
   0   5   9    6.67    2.36
   0   5   9   13.14    1.95
   0   5   9    8.91    1.64
   0  -5  -9    8.10    1.03
   1   5   9   23.80    2.61
   1   5   9   15.94    3.18
   1   5   9   21.59    2.62
  -1  -5  -9   22.14    1.83
   2   5   9   17.83    2.82
   2   5   9   11.46    2.17
  -2  -5  -9   10.11    1.44
   3   5   9    5.59    2.13
   3   5   9    5.02    2.07
  -7   5  10    6.24    2.34
   7  -5 -10    0.74    2.76
   7  -5 -10    7.19    1.07
  -6   5  10   17.65    2.70
  -6   5  10   21.19    3.11
   6  -5 -10   18.16    3.57
   6  -5 -10   20.32    1.63
   6  -5 -10   29.40    4.24
  -5   5  10    1.90    1.54
  -5   5  10   -2.16    1.24
   5  -5 -10    0.43    2.28
   5  -5 -10   -0.39    0.69
   5  -5 -10   -1.94    2.55
  -4   5  10   30.18    2.91
  -4   5  10   32.23    4.80
  -4   5  10   30.64    2.70
   4  -5 -10   30.55    3.75
   4  -5 -10   27.85    3.60
   4  -5 -10   32.12    1.88
  -3   5  10    6.76    1.66
  -3   5  10    3.67    1.35
  -3   5  10    4.66    2.72
  -3   5  10    0.66    1.25
  -3   5  10    3.81    1.93
   3  -5 -10    4.37    0.86
  -2   5  10   16.99    2.74
  -2   5  10   19.60    2.35
  -2   5  10   24.80    2.14
  -2   5  10   24.39    2.45
  -2   5  10   23.20    3.40
   2  -5 -10   21.77    1.63
  -1   5  10   17.55    2.85
  -1   5  10   28.67    4.57
  -1   5  10   33.30    2.31
  -1   5  10   25.46    2.65
   1  -5 -10   25.85    1.87
   0   5  10    9.62    3.11
   0   5  10    6.64    1.52
   0   5  10    5.32    1.82
   0   5  10    8.31    1.78
   0  -5 -10    8.11    1.25
   1   5  10   35.62    3.20
   1   5  10   37.80    3.08
  -1  -5 -10   32.29    2.46
   2   5  10   -1.49    1.69
   2   5  10    0.08    1.90
  -6   5  11   -3.71    1.99
  -6   5  11    2.04    1.74
   6  -5 -11   -1.25    2.60
   6  -5 -11    3.03    0.98
  -5   5  11   18.54    2.17
  -5   5  11   14.80    2.42
   5  -5 -11   23.55    3.42
   5  -5 -11   20.37    3.87
   5  -5 -11   19.21    1.69
  -4   5  11   11.90    3.80
  -4   5  11   14.94    2.34
  -4   5  11   17.06    2.59
   4  -5 -11   20.49    3.49
   4  -5 -11   16.52    1.49
   4  -5 -11   15.75    3.43
  -3   5  11    9.81    2.27
  -3   5  11   12.30    3.92
  -3   5  11   11.97    1.80
  -3   5  11   10.69    1.97
   3  -5 -11   10.54    1.27
  -2   5  11   25.42    2.84
  -2   5  11   18.49    2.90
  -2   5  11   26.07    2.33
  -2   5  11   19.21    4.07
   2  -5 -11   27.23    1.89
  -1   5  11    3.36    3.91
  -1   5  11    0.14    2.15
  -1   5  11    0.10    1.33
  -1   5  11    0.07    1.43
   1  -5 -11   -0.61    0.83
   0   5  11   24.73    2.92
   0   5  11   19.78    2.89
   0  -5 -11   19.17    2.09
   1   5  11   -0.38    2.06
   1   5  11    6.49    2.04
  -1  -5 -11    2.48    1.63
  -5   5  12   27.43    3.22
  -5   5  12   31.22    4.10
   5  -5 -12   27.52    2.55
  -4   5  12   -1.56    2.24
  -4   5  12   -0.13    1.66
   4  -5 -12   -1.12    0.81
  -3   5  12   39.27    3.40
  -3   5  12   33.30    4.18
   3  -5 -12   29.62    2.33
  -2   5  12    6.50    1.79
  -2   5  12    6.54    2.65
   2  -5 -12    6.10    1.24
  -1   5  12   11.36    2.07
  -1   5  12   12.00    3.18
   1  -5 -12    7.20    1.53
   0   5  12    5.89    2.20
   0  -5 -12    9.28    1.64
  -1   6 -13    6.36    2.24
  -1   6 -13    1.06    1.08
   1  -6  13    0.66    2.74
   1  -6  13   -2.45    4.18
   0   6 -13   16.67    1.77
   0  -6  13   11.83    3.94
   0  -6  13   16.53    4.22
   0  -6  13   12.92    2.73
   1   6 -13    0.60    0.92
  -1  -6  13    2.27    3.38
  -1  -6  13   -2.62    2.19
  -1  -6  13   -5.54    3.91
   2   6 -13    8.39    1.33
  -2  -6  13    8.88    2.46
  -2  -6  13   12.39    4.44
  -2  -6  13   10.78    3.58
  -2   6 -12   -2.13    1.85
  -2   6 -12    2.27    1.09
   2  -6  12    2.61    3.84
   2  -6  12    0.55    2.40
  -1   6 -12   14.54    1.68
  -1   6 -12   17.45    2.76
   1  -6  12   10.52    3.83
   1  -6  12   12.85    2.89
   0   6 -12    2.13    0.85
   0  -6  12    4.41    3.10
   0  -6  12    7.87    3.51
   0  -6  12    3.72    2.15
   1   6 -12   13.66    1.47
  -1  -6  12   11.25    2.21
  -1  -6  12   17.53    3.72
  -1  -6  12   12.09    3.36
   2   6 -12   12.05    1.50
  -2  -6  12    9.75    3.84
  -2  -6  12    7.55    3.04
  -2  -6  12   12.40    2.46
   3   6 -12    0.74    0.91
  -3  -6  12    2.12    3.01
  -4  -6  12   17.40    4.04
  -3   6 -11    3.01    2.09
   3  -6  11    0.37    3.94
   3  -6  11    4.67    2.60
  -2   6 -11    5.02    1.07
  -2   6 -11   10.20    1.91
   2  -6  11    6.70    2.28
   2  -6  11    9.09    3.42
  -1   6 -11   18.98    2.35
  -1   6 -11   13.60    1.45
   1  -6  11    9.21    3.11
   1  -6  11   11.20    2.37
   1  -6  11   12.05    3.32
   0   6 -11    3.19    0.77
   0  -6  11    1.10    2.73
   0  -6  11    3.52    2.67
   0  -6  11    5.02    1.99
   1   6 -11   30.44    1.76
  -1  -6  11   29.68    3.35
  -1  -6  11   27.71    4.23
  -1  -6  11   29.21    4.71
   2   6 -11    2.24    0.70
  -2  -6  11   -1.52    2.87
  -2  -6  11    3.18    2.49
  -2  -6  11    2.81    1.62
   3   6 -11   25.13    1.79
  -3  -6  11   23.08    3.50
   4   6 -11    7.69    1.20
  -4  -6  11    4.68    2.97
  -4   6 -10    6.03    2.47
   4  -6  10   15.54    4.21
   4  -6  10    0.14    2.39
  -3   6 -10    0.86    1.72
   3  -6  10   -0.26    2.14
   3  -6  10   -0.14    3.33
  -2   6 -10   21.44    1.61
  -2   6 -10   23.45    2.61
   2  -6  10   23.25    3.22
   2  -6  10   21.40    3.39
  -1   6 -10   -0.56    1.18
  -1   6 -10   -0.12    0.67
   1  -6  10    3.06    1.80
   1  -6  10    0.97    2.48
   1  -6  10   -0.12    2.30
   1  -6  10    1.83    3.22
   0   6 -10   16.32    1.25
   0  -6  10   16.54    2.80
   0  -6  10   12.53    3.06
   0  -6  10   16.57    2.86
   0  -6  10   18.01    2.84
   1   6 -10   10.24    1.11
  -1  -6  10    8.44    2.48
  -1  -6  10   12.31    2.60
  -1  -6  10    9.25    2.36
  -1  -6  10   10.39    1.78
   2   6 -10   15.87    2.11
   2   6 -10   21.11    1.41
  -2  -6  10   19.54    2.40
  -2  -6  10   20.11    2.68
  -2  -6  10   18.86    2.95
   3   6 -10   29.14    1.78
  -3  -6  10   27.21    4.01
   4   6 -10    3.96    0.84
  -4  -6  10    3.99    2.59
   5   6 -10   43.50    2.66
  -5  -6  10   32.97    5.08
  -5   6  -9    9.97    2.64
   5  -6   9    8.05    2.93
   5  -6   9    1.97    4.53
  -4   6  -9   -1.64    1.68
   4  -6   9    1.75    2.26
   4  -6   9    2.29    2.30
   4  -6   9    1.01    3.30
  -3   6  -9   19.02    2.46
   3  -6   9   14.53    2.04
   3  -6   9   20.77    3.31
   3  -6   9   19.87    3.13
  -2   6  -9    7.52    0.90
  -2   6  -9   12.59    1.70
   2  -6   9   12.87    2.75
   2  -6   9    9.63    2.03
  -1   6  -9   22.67    1.42
   1  -6   9   24.62    3.49
   1  -6   9   26.00    3.55
   1  -6   9   22.09    3.18
   1  -6   9   22.05    3.02
   0   6  -9   25.97    1.44
   0  -6   9   26.08    3.63
   0  -6   9   21.39    3.27
   0  -6   9   22.44    3.41
   0  -6   9   22.51    2.56
   1   6  -9    2.68    0.59
   1   6  -9    2.54    1.12
  -1  -6   9    1.70    1.89
  -1  -6   9    4.13    1.30
   2   6  -9   63.41    2.78
   2   6  -9   62.94    3.01
  -2  -6   9   60.85    3.37
  -2  -6   9   67.71    4.66
  -2  -6   9   57.98    3.76
   3   6  -9   -0.53    0.55
   3   6  -9    0.73    0.82
  -3  -6   9    1.24    1.16
  -3  -6   9    0.10    2.02
  -3  -6   9    0.13    1.92
   4   6  -9   38.35    2.39
   4   6  -9   36.02    2.09
  -4  -6   9   34.51    4.10
  -4  -6   9   39.26    3.16
   5   6  -9   17.48    2.64
   5   6  -9   18.55    1.81
  -5  -6   9   13.52    2.41
  -5  -6   9   14.38    3.18
  -5   6  -8    3.00    2.16
   5  -6   8    4.43    2.40
   5  -6   8    0.17    3.67
   5  -6   8    2.18    2.59
  -4   6  -8    9.22    1.71
   4  -6   8    9.30    3.04
   4  -6   8    7.18    2.03
   4  -6   8    7.48    2.31
  -3   6  -8   17.06    2.21
  -3   6  -8   15.27    1.21
  -3   6  -8   16.27    1.57
   3  -6   8   15.15    2.45
   3  -6   8   16.38    2.59
   3  -6   8   13.45    2.83
  -2   6  -8    4.69    0.68
  -2   6  -8    5.20    1.26
   2  -6   8    4.87    1.75
   2  -6   8    6.60    1.28
   2  -6   8    3.79    1.95
  -1   6  -8   65.16    2.66
  -1   6  -8   63.19    3.34
   1  -6   8   71.52    3.91
   1  -6   8   59.68    4.09
   1  -6   8   58.88    4.52
   0   6  -8    1.87    1.04
   0   6  -8    1.64    0.47
   0  -6   8    1.50    1.16
   0  -6   8   -0.69    1.65
   1   6  -8   50.54    2.61
   1   6  -8   48.14    2.21
  -1  -6   8   49.28    3.87
  -1  -6   8   48.94    2.92
   2   6  -8   23.06    2.10
   2   6  -8   24.34    1.45
   2   6  -8   26.16    1.50
   2   6  -8   24.81    1.70
  -2  -6   8   27.38    2.04
  -2  -6   8   19.74    2.94
  -2  -6   8   28.39    2.33
   3   6  -8   29.59    1.86
   3   6  -8   30.80    2.62
  -3  -6   8   25.81    2.58
  -3  -6   8   29.98    3.13
  -3  -6   8   27.04    3.57
   4   6  -8   27.64    2.17
  -4  -6   8   23.21    2.64
  -4  -6   8   25.45    3.48
  -4  -6   8   27.70    2.61
   5   6  -8    7.88    1.74
  -5  -6   8    5.66    2.30
  -5  -6   8    8.28    1.90
  -6   6  -7    4.24    2.29
   6  -6   7   13.22    4.44
   6  -6   7    6.27    2.88
   6  -6   7    6.00    2.93
  -5   6  -7    0.86    1.85
   5  -6   7    0.24    2.01
   5  -6   7   -3.82    3.07
   5  -6   7    1.35    2.46
  -4   6  -7   16.31    2.24
  -4   6  -7   11.96    2.00
   4  -6   7   17.08    2.68
   4  -6   7   16.14    2.96
   4  -6   7   12.20    2.03
  -3   6  -7    1.76    0.89
  -3   6  -7   -0.43    0.52
  -3   6  -7   -1.16    1.09
   3  -6   7    0.97    1.30
   3  -6   7    0.35    1.50
   3  -6   7   -0.61    1.86
  -2   6  -7   40.45    1.78
  -2   6  -7   38.44    2.60
  -2   6  -7   41.85    2.14
   2  -6   7   44.44    2.60
   2  -6   7   44.83    3.40
   2  -6   7   41.39    3.13
  -1   6  -7   21.83    1.32
  -1   6  -7   22.97    2.13
  -1   6  -7   23.50    1.79
  -1   6  -7   24.26    1.25
   1  -6   7   21.82    1.98
   1  -6   7   23.63    2.28
   1  -6   7   22.80    2.85
   0   6  -7   21.68    1.31
   0   6  -7   23.96    1.30
   0   6  -7   22.39    1.84
   0   6  -7   23.61    1.35
   0  -6   7   26.67    2.18
   0  -6   7   27.48    2.84
   1   6  -7   53.56    2.59
   1   6  -7   47.74    2.16
   1   6  -7   43.41    2.42
  -1  -6   7   51.93    2.80
  -1  -6   7   54.67    3.62
  -1  -6   7   52.74    2.91
   2   6  -7    1.92    0.66
   2   6  -7    2.81    0.74
   2   6  -7    4.12    1.14
  -2  -6   7    2.20    1.44
  -2  -6   7    3.37    0.91
  -2  -6   7    2.12    0.99
   3   6  -7   67.08    3.13
  -3  -6   7   68.25    3.73
  -3  -6   7   65.39    3.90
  -3  -6   7   67.59    3.40
  -3  -6   7   76.45    4.50
   4   6  -7    3.26    1.07
  -4  -6   7    2.70    1.94
  -4  -6   7    1.26    1.85
  -4  -6   7    1.92    1.26
   5   6  -7   36.91    3.08
  -5  -6   7   32.39    3.91
  -5  -6   7   36.66    3.26
   6   6  -7   21.22    3.36
  -6  -6   7   18.16    2.99
  -6  -6   7   14.72    3.07
  -6   6  -6    1.35    1.84
   6  -6   6   -2.52    2.38
   6  -6   6    3.01    3.89
   6  -6   6   -0.53    2.59
   5  -6   6   11.73    2.62
   5  -6   6   11.76    2.46
   5  -6   6   15.29    3.20
  -4   6  -6    5.99    1.43
  -4   6  -6    7.01    1.27
   4  -6   6    5.53    2.15
   4  -6   6    8.58    1.90
   4  -6   6    4.81    1.49
  -3   6  -6    6.34    1.06
  -3   6  -6    6.31    1.23
   3  -6   6    9.91    1.51
   3  -6   6    9.75    2.05
   3  -6   6    8.65    1.76
  -2   6  -6   33.14    2.63
  -2   6  -6   41.08    1.72
  -2   6  -6   43.09    2.39
  -2   6  -6   42.31    2.12
   2  -6   6   41.48    2.84
   2  -6   6   45.20    2.95
   2  -6   6   44.33    2.53
  -1   6  -6   19.24    1.02
  -1   6  -6   20.30    1.53
  -1   6  -6   16.45    1.27
  -1   6  -6   17.32    1.69
  -1   6  -6   15.34    2.36
   1  -6   6   20.21    1.77
   1  -6   6   18.12    1.89
   0   6  -6  104.26    4.25
   0   6  -6  102.83    4.48
   0   6  -6   97.18    4.93
   0   6  -6  110.51    4.13
   0  -6   6  108.95    5.21
   0  -6   6  106.43    4.66
   0  -6   6  107.11    4.56
   1   6  -6   11.30    1.04
   1   6  -6   10.75    1.30
   1   6  -6   11.69    1.73
   1   6  -6   10.16    1.49
  -1  -6   6   13.18    2.04
  -1  -6   6   12.38    1.46
  -1  -6   6   10.66    1.34
   2   6  -6   50.92    2.93
   2   6  -6   46.38    2.92
   2   6  -6   49.71    2.42
   2   6  -6   50.97    2.37
  -2  -6   6   54.52    3.41
  -2  -6   6   50.78    2.92
   3   6  -6   42.82    2.72
   3   6  -6   44.29    2.39
  -3  -6   6   43.79    2.82
  -3  -6   6   41.21    2.58
  -3  -6   6   43.85    3.23
   4   6  -6   31.66    2.33
  -4  -6   6   38.70    2.78
  -4  -6   6   35.43    3.18
   5   6  -6   41.46    3.10
  -5  -6   6   44.90    3.92
  -5  -6   6   42.79    3.35
   6   6  -6    1.25    1.84
  -6  -6   6    0.61    2.68
  -6  -6   6   -2.14    2.08
  -7   6  -5    0.18    2.11
   7  -6   5    4.33    2.95
   7  -6   5   -0.55    3.21
   7  -6   5    4.10    4.66
  -6   6  -5    6.59    1.78
   6  -6   5    1.33    3.22
   6  -6   5    1.92    2.26
   6  -6   5   -0.73    2.09
  -5   6  -5   14.27    2.25
   5  -6   5   15.60    2.40
   5  -6   5   21.42    3.22
   5  -6   5   15.07    2.96
  -4   6  -5    2.58    1.12
  -4   6  -5    0.67    1.10
   4  -6   5    2.10    1.93
   4  -6   5    4.19    1.86
   4  -6   5    2.33    1.40
  -3   6  -5   36.65    2.12
  -3   6  -5   36.42    2.24
   3  -6   5   39.16    2.53
   3  -6   5   38.41    2.84
   3  -6   5   34.69    2.75
  -2   6  -5    8.15    1.24
  -2   6  -5    6.04    1.53
  -2   6  -5    9.78    0.65
  -2   6  -5    8.06    1.10
  -2   6  -5    7.57    1.13
   2  -6   5   10.02    1.67
   2  -6   5    8.70    1.53
  -1   6  -5  111.15    4.48
  -1   6  -5  104.24    5.21
  -1   6  -5  110.56    4.77
  -1   6  -5  114.05    4.60
   1  -6   5  106.99    4.70
   1  -6   5  117.17    4.55
   1  -6   5  117.61    4.98
   0   6  -5   29.09    2.45
   0   6  -5   34.70    2.06
   0   6  -5   35.42    1.98
   0   6  -5   34.73    1.79
   0  -6   5   33.72    2.58
   0  -6   5   37.60    2.20
   0  -6   5   35.35    2.19
   1   6  -5   35.59    2.02
   1   6  -5   37.69    1.91
   1   6  -5   37.97    2.43
   1   6  -5   40.24    2.43
  -1  -6   5   38.15    2.69
  -1  -6   5   37.70    2.16
  -1  -6   5   40.43    2.37
   2   6  -5   92.45    3.64
   2   6  -5   91.87    3.82
   2   6  -5   86.65    4.04
   2   6  -5   91.40    3.51
  -2  -6   5   87.90    4.49
  -2  -6   5   87.40    4.14
   3   6  -5    1.02    0.84
   3   6  -5    1.70    0.69
  -3  -6   5    0.17    1.17
  -3  -6   5   -0.27    0.91
  -3  -6   5    0.72    0.93
   4   6  -5  109.86    4.88
   4   6  -5   98.20    4.58
  -4  -6   5  107.95    5.16
  -4  -6   5  111.82    5.25
   5   6  -5    2.99    1.46
  -5  -6   5    4.71    1.62
  -5  -6   5    4.64    2.07
   6   6  -5   11.09    2.27
  -6  -6   5   16.31    3.01
  -6  -6   5   11.86    2.64
  -7   6  -4    0.10    1.92
   7  -6   4    3.60    4.05
   7  -6   4    2.67    2.71
   7  -6   4    1.47    2.86
  -6   6  -4   13.52    1.91
   6  -6   4   13.10    3.26
   6  -6   4   15.99    2.91
  -5   6  -4    0.54    1.15
   5  -6   4   -0.07    1.61
   5  -6   4    4.05    1.77
   5  -6   4    1.03    2.12
  -4   6  -4   29.79    2.16
  -4   6  -4   25.35    2.14
   4  -6   4   29.64    2.84
   4  -6   4   29.39    2.46
   4  -6   4   29.79    2.95
  -3   6  -4   31.03    2.82
  -3   6  -4   34.51    1.97
  -3   6  -4   33.97    2.44
  -3   6  -4   34.95    1.97
   3  -6   4   30.42    2.29
   3  -6   4   31.59    2.51
   3  -6   4   35.61    2.33
  -2   6  -4   31.87    1.79
  -2   6  -4   27.85    2.02
  -2   6  -4   31.05    2.45
  -2   6  -4   28.88    1.27
  -2   6  -4   30.34    1.79
   2  -6   4   34.96    2.33
   2  -6   4   32.46    2.11
  -1   6  -4   92.59    3.86
  -1   6  -4   84.57    4.32
  -1   6  -4   92.92    3.78
  -1   6  -4   90.96    4.02
   1  -6   4   91.97    3.77
   1  -6   4   92.91    4.17
   1  -6   4   88.32    4.07
   0   6  -4   18.76    1.55
   0   6  -4   15.80    1.22
   0   6  -4   13.51    1.36
   0   6  -4   18.32    1.80
   0  -6   4   16.76    1.81
   0  -6   4   15.67    1.48
   0  -6   4   14.35    1.47
   1   6  -4  128.04    5.25
   1   6  -4  111.67    5.05
   1   6  -4  117.43    4.59
   1   6  -4  113.85    4.74
   1   6  -4  121.43    4.78
  -1  -6   4  127.06    5.34
  -1  -6   4  119.93    5.00
   2   6  -4    6.41    1.04
   2   6  -4    8.67    1.19
   2   6  -4    9.73    1.06
  -2  -6   4    8.20    1.41
  -2  -6   4    8.15    1.22
  -2  -6   4    7.57    1.28
   3   6  -4   97.74    4.33
   3   6  -4   98.26    4.13
  -3  -6   4  103.70    4.67
  -3  -6   4   92.66    4.36
  -3  -6   4   95.87    4.54
  -3  -6   4  102.78    4.90
   4   6  -4   54.56    3.18
   4   6  -4   51.67    2.61
  -4  -6   4   53.68    3.43
  -4  -6   4   54.13    3.64
  -4  -6   4   54.89    3.26
   5   6  -4   17.44    2.35
  -5  -6   4   18.11    2.46
  -5  -6   4   19.05    2.46
   6   6  -4   29.06    3.30
  -6  -6   4   30.09    3.42
  -7   6  -3    4.55    1.73
   7  -6   3   10.16    2.79
   7  -6   3   11.67    3.69
   7  -6   3    8.67    2.57
  -6   6  -3   11.04    1.65
   6  -6   3    8.23    2.16
   6  -6   3    7.80    2.84
   6  -6   3    5.08    2.32
  -5   6  -3   15.05    1.95
   5  -6   3   12.35    2.07
   5  -6   3   15.88    2.37
   5  -6   3   14.77    2.51
  -4   6  -3   34.66    2.33
  -4   6  -3   41.67    2.37
   4  -6   3   45.50    3.08
   4  -6   3   40.76    2.87
   4  -6   3   43.68    2.75
  -3   6  -3    2.18    0.69
  -3   6  -3    2.47    0.84
  -3   6  -3    0.90    0.88
  -3   6  -3    3.75    1.30
   3  -6   3    2.83    1.14
   3  -6   3    2.41    0.60
   3  -6   3    2.23    0.98
   3  -6   3    2.71    0.91
  -2   6  -3  146.06    6.43
  -2   6  -3  156.34    6.09
  -2   6  -3  153.43    6.28
  -2   6  -3  158.28    5.94
   2  -6   3  152.90    6.25
   2  -6   3  148.29    5.70
   2  -6   3  162.92    6.43
  -1   6  -3   18.79    1.55
  -1   6  -3   20.07    1.22
  -1   6  -3   19.55    1.60
  -1   6  -3   17.31    1.85
   1  -6   3   18.46    1.33
   1  -6   3   17.99    1.68
   1  -6   3   18.70    1.61
   0   6  -3   67.70    3.28
   0   6  -3   69.60    3.33
   0   6  -3   64.09    3.06
   0   6  -3   65.94    2.96
   0  -6   3   70.14    3.34
   0  -6   3   61.93    2.94
   1   6  -3   24.09    1.28
   1   6  -3   23.35    1.47
   1   6  -3   21.77    1.98
   1   6  -3   25.72    1.56
   1   6  -3   20.50    1.58
  -1  -6   3   25.50    1.76
  -1  -6   3   22.96    1.87
   2   6  -3   59.57    2.60
   2   6  -3   55.12    2.79
   2   6  -3   61.77    2.67
   2   6  -3   55.50    2.38
  -2  -6   3   53.66    2.85
  -2  -6   3   60.30    3.02
  -2  -6   3   60.69    3.09
   3   6  -3  142.06    5.40
   3   6  -3  139.92    5.81
  -3  -6   3  144.04    5.87
  -3  -6   3  135.37    5.97
  -3  -6   3  139.86    5.95
  -3  -6   3  132.23    5.81
   4   6  -3    1.83    1.05
   4   6  -3    1.16    0.79
  -4  -6   3   -1.70    0.91
  -4  -6   3    1.80    1.47
  -4  -6   3    2.64    1.29
   5   6  -3   38.21    2.92
  -5  -6   3   44.70    3.36
  -5  -6   3   39.84    3.13
   6   6  -3    6.18    1.90
  -6  -6   3    8.19    2.14
  -7   6  -2    4.93    1.71
   7  -6   2    5.04    3.32
   7  -6   2    7.29    2.17
   7  -6   2    6.08    2.44
  -6   6  -2    2.45    1.21
   6  -6   2   -2.03    1.67
   6  -6   2    1.35    2.30
   6  -6   2   -0.32    1.72
  -5   6  -2   51.31    2.85
   5  -6   2   47.66    3.41
   5  -6   2   44.17    3.52
   5  -6   2   40.58    3.37
  -4   6  -2    4.43    1.23
  -4   6  -2    3.36    0.83
  -4   6  -2    4.08    1.42
  -4   6  -2    2.69    0.91
   4  -6   2    4.93    1.17
   4  -6   2    4.68    1.28
   4  -6   2    3.51    0.76
   4  -6   2    6.05    1.19
  -3   6  -2   90.34    4.14
  -3   6  -2   89.86    3.71
  -3   6  -2   86.34    3.87
   3  -6   2   88.45    3.89
   3  -6   2   82.60    3.56
   3  -6   2   87.87    4.19
   3  -6   2   90.37    4.12
  -2   6  -2   60.24    2.60
  -2   6  -2   62.67    3.04
  -2   6  -2   58.98    2.89
  -2   6  -2   59.20    3.15
   2  -6   2   63.76    3.12
   2  -6   2   59.66    3.04
   2  -6   2   53.63    2.46
   2  -6   2   59.92    2.54
  -1   6  -2   27.50    1.43
  -1   6  -2   28.85    1.86
  -1   6  -2   27.97    1.96
  -1   6  -2   30.54    1.95
   1  -6   2   29.75    1.56
   1  -6   2   28.15    2.05
   1  -6   2   26.37    1.79
   0   6  -2  165.46    6.58
   0   6  -2  170.22    6.98
   0   6  -2  173.79    6.41
   0   6  -2  171.55    6.78
   0   6  -2  173.07    6.29
   0   6  -2  171.35    6.64
   0  -6   2  168.63    6.46
   1   6  -2    1.07    0.92
   1   6  -2    1.24    0.40
   1   6  -2    2.31    0.67
   1   6  -2    2.41    0.63
   1   6  -2    1.25    0.61
  -1  -6   2    1.82    0.66
  -1  -6   2    1.30    0.80
   2   6  -2  133.79    5.14
   2   6  -2  131.30    5.40
   2   6  -2  132.68    5.04
   2   6  -2  130.92    4.96
  -2  -6   2  135.72    5.40
  -2  -6   2  124.77    5.41
  -2  -6   2  128.30    5.40
   3   6  -2   11.35    1.45
   3   6  -2   11.45    0.98
  -3  -6   2   11.51    1.53
  -3  -6   2   11.02    1.52
   4   6  -2   87.83    3.56
   4   6  -2   86.98    4.30
  -4  -6   2   89.23    4.64
  -4  -6   2   85.72    4.33
  -4  -6   2   84.84    4.07
   5   6  -2   24.49    2.58
  -5  -6   2   25.48    2.75
  -5  -6   2   27.52    2.67
   6   6  -2    3.36    1.82
  -6  -6   2    1.14    2.06
  -8   6  -1    7.95    2.23
   8  -6   1    4.65    4.24
   8  -6   1    6.30    2.88
   8  -6   1    7.30    2.78
  -7   6  -1    3.90    1.66
   7  -6   1   -1.77    2.83
   7  -6   1    6.89    2.11
   7  -6   1    2.16    2.05
  -6   6  -1   17.66    2.02
   6  -6   1   15.80    2.79
   6  -6   1   14.47    2.94
   6  -6   1   18.56    3.00
  -5   6  -1   11.37    1.61
   5  -6   1   15.90    2.50
   5  -6   1   13.42    1.96
   5  -6   1   13.83    1.94
  -4   6  -1   29.84    1.82
  -4   6  -1   28.82    2.36
  -4   6  -1   26.54    2.30
  -4   6  -1   26.20    1.98
   4  -6   1   26.61    1.65
   4  -6   1   26.21    2.20
   4  -6   1   31.29    2.22
   4  -6   1   29.43    2.32
  -3   6  -1   93.98    4.31
  -3   6  -1   97.93    3.94
  -3   6  -1   90.43    4.14
   3  -6   1  100.48    4.42
   3  -6   1   96.31    4.08
   3  -6   1   93.21    3.83
   3  -6   1   96.90    4.37
  -2   6  -1   14.30    1.49
  -2   6  -1   16.07    1.03
  -2   6  -1   17.85    1.48
  -2   6  -1   12.62    1.08
   2  -6   1   16.27    1.54
   2  -6   1   15.84    0.98
   2  -6   1   13.60    0.98
  -1   6  -1  131.54    5.45
  -1   6  -1  134.68    5.62
  -1   6  -1  140.64    5.46
  -1   6  -1  131.50    5.20
  -1   6  -1  133.24    5.01
   1  -6   1  133.15    5.05
   1  -6   1  136.32    5.78
   0   6  -1   39.18    2.12
   0   6  -1   37.71    1.64
   0   6  -1   38.60    1.83
   0   6  -1   36.72    2.47
   0   6  -1   38.87    2.09
   0   6  -1   37.81    2.13
   0  -6   1   39.20    1.90
   1   6  -1  112.30    4.16
   1   6  -1  103.53    4.13
   1   6  -1  108.81    5.00
   1   6  -1  100.50    4.42
  -1  -6   1  104.72    4.33
   2   6  -1   60.39    3.00
   2   6  -1   57.65    2.57
   2   6  -1   59.75    2.42
  -2  -6   1   63.93    2.91
  -2  -6   1   63.43    3.13
  -2  -6   1   57.13    2.92
  -2  -6   1   60.57    2.54
  -2  -6   1   57.26    3.02
   3   6  -1   26.19    2.07
   3   6  -1   22.19    1.43
   3   6  -1   30.23    1.37
  -3  -6   1   26.69    2.00
  -3  -6   1   29.36    2.07
  -3  -6   1   26.63    2.37
  -3  -6   1   27.42    1.48
   4   6  -1   74.78    3.86
   4   6  -1   74.69    2.89
   4   6  -1   69.68    3.80
  -4  -6   1   72.64    3.76
  -4  -6   1   66.87    3.37
  -4  -6   1   63.52    4.10
   5   6  -1    2.22    1.37
  -5  -6   1    1.15    1.29
   6   6  -1   22.89    3.36
  -6  -6   1   24.00    3.14
  -8   6   0    4.59    1.94
  -8   6   0    4.94    1.88
   8  -6   0    0.80    2.56
   8  -6   0   -2.97    3.90
  -7   6   0    0.89    1.43
  -7   6   0    2.77    1.34
   7  -6   0   -0.41    2.83
   7  -6   0   -0.44    1.84
  -6   6   0   33.76    2.44
  -6   6   0   33.13    2.45
   6  -6   0   24.84    3.81
   6  -6   0   30.89    3.05
   6  -6   0   28.19    3.02
  -5   6   0    0.56    0.87
  -5   6   0    0.36    0.76
  -5   6   0    1.38    1.35
   5  -6   0    1.61    1.10
   5  -6   0   -0.39    1.39
   5  -6   0    2.28    1.25
  -4   6   0   60.03    2.80
  -4   6   0   57.67    3.19
  -4   6   0   56.73    3.02
  -4   6   0   60.66    2.83
  -4   6   0   57.01    3.13
   4  -6   0   57.22    2.69
   4  -6   0   63.40    3.23
   4  -6   0   57.66    3.21
  -3   6   0    8.87    1.39
  -3   6   0    8.20    0.92
  -3   6   0   10.53    1.02
  -3   6   0    8.95    1.22
   3  -6   0    7.64    1.31
   3  -6   0    7.55    0.85
   3  -6   0    8.35    1.12
  -2   6   0  192.79    7.73
  -2   6   0  195.30    7.43
  -2   6   0  201.57    7.28
  -2   6   0  201.27    7.75
   2  -6   0  201.66    7.94
   2  -6   0  194.69    7.21
   2  -6   0  193.93    7.08
  -1   6   0  106.60    4.34
  -1   6   0  112.15    4.87
  -1   6   0  111.57    4.65
  -1   6   0  108.68    4.12
   1  -6   0  108.56    4.16
   1  -6   0  110.45    4.98
   1  -6   0  108.02    4.09
   0   6   0   38.48    2.19
   0   6   0   45.63    2.08
   0   6   0   41.62    1.66
   0   6   0   40.32    2.63
   0   6   0   37.95    1.91
   0  -6   0   40.76    1.94
   0  -6   0   37.14    1.90
   1   6   0  174.27    7.44
   1   6   0  175.75    6.57
   1   6   0  171.46    6.83
  -1  -6   0  172.52    6.65
  -1  -6   0  170.54    6.51
  -1  -6   0  179.28    6.85
   2   6   0    1.66    0.73
   2   6   0    2.11    0.61
  -2  -6   0    1.07    0.66
  -2  -6   0    1.06    0.83
  -2  -6   0    1.63    0.57
  -2  -6   0    2.14    1.09
   3   6   0   69.42    3.38
   3   6   0   60.08    2.83
   3   6   0   65.93    3.46
  -3  -6   0   62.96    2.79
  -3  -6   0   68.05    3.29
  -3  -6   0   66.90    3.74
   4   6   0    8.59    1.69
   4   6   0    9.54    1.26
   4   6   0   11.64    1.94
  -4  -6   0   12.17    2.49
  -4  -6   0   13.15    1.25
  -4  -6   0    9.98    1.41
   5   6   0   16.55    2.44
  -5  -6   0   13.43    1.82
   6   6   0   12.41    2.37
  -6  -6   0   12.55    2.58
  -8   6   1    2.58    1.79
  -8   6   1   -0.89    1.86
   8  -6  -1   -0.23    3.52
   8  -6  -1    2.55    2.44
  -7   6   1   22.73    2.60
  -7   6   1   16.16    2.28
   7  -6  -1   19.11    3.47
   7  -6  -1   20.93    3.56
  -6   6   1    6.38    1.35
  -6   6   1    7.28    1.38
   6  -6  -1    5.94    1.78
   6  -6  -1    4.88    2.03
  -5   6   1   41.28    2.96
  -5   6   1   42.93    2.40
  -5   6   1   44.08    2.53
   5  -6  -1   44.11    3.01
   5  -6  -1   39.77    3.02
  -4   6   1   20.97    1.92
  -4   6   1   17.17    1.87
  -4   6   1   23.54    1.60
  -4   6   1   17.65    1.68
  -4   6   1   20.57    1.42
   4  -6  -1   21.08    1.94
   4  -6  -1   20.00    1.37
   4  -6  -1   19.49    1.92
   4  -6  -1   18.19    0.99
  -3   6   1   33.96    1.75
  -3   6   1   35.44    1.99
  -3   6   1   32.50    2.08
  -3   6   1   33.88    1.88
  -3   6   1   36.88    2.24
   3  -6  -1   32.08    1.67
   3  -6  -1   31.82    1.45
   3  -6  -1   34.43    2.09
   3  -6  -1   34.10    2.27
  -2   6   1  178.14    7.38
  -2   6   1  185.64    7.03
  -2   6   1  183.77    7.33
  -2   6   1  188.09    6.84
   2  -6  -1  189.95    6.68
   2  -6  -1  185.09    6.79
  -1   6   1    4.68    0.76
  -1   6   1    5.64    0.55
  -1   6   1    5.41    1.17
   1  -6  -1    3.75    0.71
   1  -6  -1    4.75    0.62
   1  -6  -1    4.25    0.53
   1  -6  -1    3.83    1.05
   0   6   1  173.92    7.27
   0   6   1  166.51    6.10
   0   6   1  180.54    6.36
   0   6   1  177.37    6.55
   0   6   1  171.21    6.77
   0  -6  -1  161.32    6.38
   0  -6  -1  168.11    6.49
   1   6   1   31.24    2.54
   1   6   1   32.07    1.78
   1   6   1   32.19    1.97
  -1  -6  -1   31.35    1.66
  -1  -6  -1   31.31    1.77
   2   6   1   85.59    3.61
   2   6   1   92.27    3.89
   2   6   1   89.02    3.99
  -2  -6  -1   89.53    4.22
  -2  -6  -1   72.86    3.94
  -2  -6  -1   80.89    3.70
  -2  -6  -1   79.76    3.48
   3   6   1   54.62    2.60
   3   6   1   49.40    3.13
   3   6   1   57.43    3.13
  -3  -6  -1   57.74    2.61
  -3  -6  -1   51.59    2.88
   4   6   1   12.72    1.82
   4   6   1   11.07    1.46
  -4  -6  -1   12.43    1.59
  -4  -6  -1    9.16    1.45
   5   6   1   33.99    3.03
   5   6   1   29.09    2.41
  -5  -6  -1   25.91    2.87
  -8   6   2    4.12    1.77
  -8   6   2    9.12    1.84
   8  -6  -2    3.23    3.80
   8  -6  -2    6.50    2.61
  -7   6   2   14.06    2.36
  -7   6   2   17.53    2.40
   7  -6  -2   15.86    2.51
   7  -6  -2   16.93    3.51
  -6   6   2    7.05    1.20
  -6   6   2    5.37    1.24
   6  -6  -2    5.99    2.23
   6  -6  -2    7.44    1.71
  -5   6   2   48.95    2.68
  -5   6   2   51.60    2.63
  -5   6   2   43.46    3.01
   5  -6  -2   52.14    3.27
   5  -6  -2   45.19    1.95
   5  -6  -2   48.18    3.32
  -4   6   2    2.30    0.72
  -4   6   2    2.69    0.97
  -4   6   2    1.91    0.63
  -4   6   2    2.82    0.84
  -4   6   2    3.72    1.18
   4  -6  -2    1.67    0.62
   4  -6  -2    2.30    1.06
   4  -6  -2    1.38    0.98
   4  -6  -2    2.15    0.42
  -3   6   2   56.64    3.03
  -3   6   2   59.50    2.60
  -3   6   2   59.21    2.70
  -3   6   2   56.24    2.92
  -3   6   2   56.25    2.85
   3  -6  -2   57.19    3.14
   3  -6  -2   58.04    2.27
   3  -6  -2   56.12    2.50
   3  -6  -2   55.12    2.93
  -2   6   2   38.40    1.91
  -2   6   2   30.34    2.19
  -2   6   2   30.47    1.89
  -2   6   2   33.46    2.18
  -2   6   2   33.37    1.65
   2  -6  -2   34.17    2.04
   2  -6  -2   34.90    2.46
   2  -6  -2   40.01    1.93
   2  -6  -2   39.44    1.62
   2  -6  -2   33.81    1.63
  -1   6   2   83.13    3.59
  -1   6   2   87.95    3.65
  -1   6   2   88.44    3.73
  -1   6   2   87.49    4.21
  -1   6   2   84.44    3.29
   1  -6  -2   93.50    3.26
   1  -6  -2   84.98    3.37
   1  -6  -2   81.45    3.59
   1  -6  -2   83.95    3.79
   1  -6  -2   81.79    4.26
   0   6   2   58.59    2.62
   0   6   2   51.61    2.57
   0   6   2   51.70    2.72
   0   6   2   53.65    2.58
   0   6   2   54.11    3.25
   0  -6  -2   54.03    2.41
   0  -6  -2   50.65    2.96
   0  -6  -2   55.16    2.50
   1   6   2   19.31    2.27
   1   6   2   18.45    1.49
   1   6   2   17.57    1.79
   1   6   2   17.23    1.40
   1   6   2   18.04    1.54
  -1  -6  -2   16.14    1.31
  -1  -6  -2   18.20    2.00
  -1  -6  -2   15.71    1.26
   2   6   2  162.60    6.54
   2   6   2  156.54    6.23
   2   6   2  162.34    6.57
  -2  -6  -2  156.16    6.26
  -2  -6  -2  154.91    6.14
   3   6   2    2.82    0.82
   3   6   2    0.72    0.95
   3   6   2    1.22    1.35
  -3  -6  -2    1.29    0.73
  -3  -6  -2    3.23    0.88
  -3  -6  -2    5.60    1.85
   4   6   2   54.92    2.95
   4   6   2   60.77    3.59
  -4  -6  -2   53.32    3.15
  -4  -6  -2   48.79    2.71
   5   6   2    9.45    1.76
   5   6   2    6.92    1.72
  -5  -6  -2    6.82    1.72
  -8   6   3   11.84    1.94
  -8   6   3   12.12    1.96
   8  -6  -3   12.23    4.26
   8  -6  -3   16.11    2.78
  -7   6   3   -0.38    1.20
  -7   6   3    0.57    1.39
   7  -6  -3   -0.77    1.78
   7  -6  -3   -0.41    2.93
  -6   6   3   39.91    2.44
  -6   6   3   37.44    2.63
   6  -6  -3   40.04    3.99
   6  -6  -3   41.38    3.36
   6  -6  -3   34.77    1.72
  -5   6   3    4.21    1.66
  -5   6   3    9.05    1.37
  -5   6   3    8.99    1.29
  -5   6   3    7.73    1.59
   5  -6  -3    8.55    0.83
   5  -6  -3    9.07    1.83
   5  -6  -3   11.53    1.98
  -4   6   3   90.86    3.82
  -4   6   3   88.96    4.18
  -4   6   3   83.15    4.15
  -4   6   3   94.29    3.85
  -4   6   3   82.40    4.01
   4  -6  -3   82.18    3.67
   4  -6  -3   91.64    4.38
   4  -6  -3   83.60    3.30
  -3   6   3   85.43    3.53
  -3   6   3   74.32    3.71
  -3   6   3   76.86    3.79
  -3   6   3   78.12    3.38
   3  -6  -3   79.50    3.86
   3  -6  -3   85.59    3.54
   3  -6  -3   81.72    3.11
   3  -6  -3   80.01    4.04
   3  -6  -3   80.70    3.33
  -2   6   3   18.48    1.84
  -2   6   3   22.27    1.70
  -2   6   3   18.84    1.38
  -2   6   3   19.60    1.19
  -2   6   3   22.41    1.94
   2  -6  -3   22.30    1.75
   2  -6  -3   20.58    1.18
   2  -6  -3   19.71    1.14
   2  -6  -3   18.95    2.04
   2  -6  -3   18.99    1.34
  -1   6   3  181.44    7.20
  -1   6   3  194.64    7.41
  -1   6   3  194.97    7.23
  -1   6   3  193.23    6.78
  -1   6   3  167.75    7.65
   1  -6  -3  188.02    6.69
   1  -6  -3  183.83    7.46
   1  -6  -3  182.28    7.10
   1  -6  -3  184.60    7.85
   1  -6  -3  188.83    6.86
   0   6   3    1.83    0.93
   0   6   3    1.17    1.06
   0   6   3    1.50    0.66
   0   6   3    2.08    0.77
   0   6   3    2.62    0.91
   0  -6  -3    1.12    0.57
   0  -6  -3    1.80    0.58
   1   6   3  109.12    5.73
   1   6   3  109.82    5.21
   1   6   3  116.02    4.85
   1   6   3  122.25    5.01
   1   6   3  116.43    5.06
  -1  -6  -3  117.18    4.76
  -1  -6  -3  121.78    4.72
   2   6   3   34.84    2.10
   2   6   3   38.05    2.46
   2   6   3   33.28    2.47
  -2  -6  -3   36.15    2.15
  -2  -6  -3   34.13    3.08
  -2  -6  -3   34.98    2.05
   3   6   3   33.02    2.47
   3   6   3   28.47    2.08
   3   6   3   28.39    2.70
  -3  -6  -3   25.18    2.22
  -3  -6  -3   29.44    3.55
  -3  -6  -3   31.17    2.11
   4   6   3   34.96    2.98
   4   6   3   36.28    2.66
  -4  -6  -3   42.47    2.70
   5   6   3    4.29    1.71
   5   6   3    2.57    1.89
  -5  -6  -3    0.51    1.64
  -8   6   4    3.76    1.80
  -8   6   4    2.64    1.56
   8  -6  -4   -1.04    2.37
   8  -6  -4   -0.55    3.65
  -7   6   4   12.86    1.69
  -7   6   4    7.04    1.43
   7  -6  -4    8.64    1.12
   7  -6  -4   11.20    3.33
   7  -6  -4    9.25    2.14
  -6   6   4   22.82    1.98
  -6   6   4   21.98    2.14
   6  -6  -4   19.50    1.37
   6  -6  -4   22.35    3.72
   6  -6  -4   22.51    2.77
  -5   6   4   22.70    1.98
  -5   6   4   19.94    2.39
  -5   6   4   24.57    1.77
   5  -6  -4   20.70    1.29
   5  -6  -4   25.19    2.78
   5  -6  -4   21.37    2.49
  -4   6   4  103.00    4.21
  -4   6   4   89.34    4.57
  -4   6   4  101.13    4.19
  -4   6   4   91.43    4.54
  -4   6   4   89.22    4.38
   4  -6  -4   97.62    4.75
   4  -6  -4   95.06    4.06
   4  -6  -4  100.45    3.69
   4  -6  -4   95.70    4.70
  -3   6   4   -0.21    0.86
  -3   6   4    1.61    1.05
  -3   6   4   -0.36    0.53
  -3   6   4   -0.07    0.48
   3  -6  -4   -0.29    0.50
   3  -6  -4    0.68    0.96
   3  -6  -4   -0.12    0.53
   3  -6  -4   -0.36    0.98
   3  -6  -4    0.12    0.41
  -2   6   4  164.13    7.04
  -2   6   4  164.96    6.79
  -2   6   4  173.15    6.39
  -2   6   4  172.45    6.67
  -2   6   4  169.73    7.12
   2  -6  -4  162.41    7.24
   2  -6  -4  169.18    6.58
   2  -6  -4  168.87    6.29
   2  -6  -4  170.74    6.25
   2  -6  -4  172.60    6.97
  -1   6   4   48.94    2.85
  -1   6   4   51.76    2.63
  -1   6   4   50.35    2.66
  -1   6   4   46.71    2.70
  -1   6   4   43.96    3.03
  -1   6   4   48.90    2.12
   1  -6  -4   47.74    2.02
   1  -6  -4   48.33    2.43
   1  -6  -4   52.46    2.24
   0   6   4   51.93    3.07
   0   6   4   52.77    2.98
   0   6   4   52.28    2.75
   0   6   4   54.73    2.80
   0   6   4   49.71    3.43
   0  -6  -4   50.41    2.60
   0  -6  -4   59.33    3.65
   0  -6  -4   53.40    2.44
   1   6   4   34.32    2.19
   1   6   4   33.17    2.11
   1   6   4   30.64    2.44
  -1  -6  -4   30.39    3.09
  -1  -6  -4   31.77    2.07
  -1  -6  -4   32.12    1.84
   2   6   4   42.00    2.72
   2   6   4   37.18    2.77
   2   6   4   34.34    2.29
  -2  -6  -4   36.84    2.18
  -2  -6  -4   40.07    3.81
   3   6   4   41.34    3.30
   3   6   4   48.84    2.95
   3   6   4   56.16    3.31
  -3  -6  -4   46.65    2.74
   4   6   4    0.11    1.47
   4   6   4    0.57    1.44
  -4  -6  -4   -0.20    1.07
   5   6   4   17.50    2.47
   5   6   4   11.07    2.30
  -5  -6  -4   14.39    2.34
  -8   6   5   -2.34    1.67
  -8   6   5    4.98    1.69
   8  -6  -5    2.16    3.88
   8  -6  -5    6.05    2.55
  -7   6   5   16.36    2.35
  -7   6   5   21.94    2.41
   7  -6  -5   18.07    1.45
   7  -6  -5   16.20    3.70
   7  -6  -5   26.29    3.30
  -6   6   5   -0.03    1.04
  -6   6   5   -1.00    1.09
   6  -6  -5    0.52    1.48
   6  -6  -5   -2.07    2.04
   6  -6  -5   -0.53    0.56
  -5   6   5   78.30    4.59
  -5   6   5   98.18    4.47
  -5   6   5  102.51    4.29
   5  -6  -5   93.10    4.92
   5  -6  -5   97.00    5.10
   5  -6  -5   93.01    3.69
  -4   6   5    6.45    1.62
  -4   6   5    7.48    1.10
  -4   6   5    9.53    1.27
  -4   6   5    7.14    1.34
   4  -6  -5    7.58    0.90
   4  -6  -5   10.40    1.68
   4  -6  -5    8.47    1.34
   4  -6  -5    9.55    1.76
   4  -6  -5    6.48    1.12
  -3   6   5   24.10    2.10
  -3   6   5   25.08    2.35
  -3   6   5   21.99    1.80
  -3   6   5   26.07    1.59
   3  -6  -5   24.04    1.56
   3  -6  -5   25.08    1.39
   3  -6  -5   27.62    2.31
   3  -6  -5   23.52    1.72
   3  -6  -5   24.69    2.37
  -2   6   5   77.56    3.46
  -2   6   5   68.19    3.65
  -2   6   5   67.82    3.68
  -2   6   5   68.11    3.88
  -2   6   5   72.88    3.04
   2  -6  -5   62.85    3.67
   2  -6  -5   67.26    3.23
   2  -6  -5   70.72    2.95
   2  -6  -5   68.67    2.90
   2  -6  -5   70.83    3.95
  -1   6   5   14.10    1.50
  -1   6   5   13.72    1.02
  -1   6   5   12.13    1.88
  -1   6   5   13.77    1.98
  -1   6   5   12.90    2.07
  -1   6   5   12.55    1.54
   1  -6  -5   11.91    1.07
   1  -6  -5   11.85    1.34
   1  -6  -5   12.20    0.96
   0   6   5   90.33    3.92
   0   6   5   69.06    4.58
   0   6   5   82.86    4.23
   0   6   5   80.95    4.42
   0   6   5   91.36    3.99
   0  -6  -5   72.92    3.73
   0  -6  -5   90.06    5.01
   0  -6  -5   84.93    3.50
   1   6   5    1.10    0.92
   1   6   5    1.56    1.31
  -1  -6  -5    1.68    2.09
  -1  -6  -5   -0.28    0.55
   2   6   5   69.59    4.16
   2   6   5   71.82    3.73
   2   6   5   78.18    3.88
  -2  -6  -5   69.49    5.25
  -2  -6  -5   69.17    3.38
   3   6   5   10.05    1.80
   3   6   5   15.92    2.41
  -3  -6  -5   13.44    1.76
   4   6   5    9.05    1.98
   4   6   5    6.16    1.76
  -4  -6  -5    5.87    1.47
  -8   6   6   16.23    2.76
   8  -6  -6   20.80    3.21
   8  -6  -6   15.29    4.01
  -7   6   6    0.94    1.54
  -7   6   6    2.15    1.59
   7  -6  -6    2.18    3.15
   7  -6  -6    6.21    2.03
   7  -6  -6    3.63    0.83
  -6   6   6   16.46    2.08
  -6   6   6   17.05    2.24
   6  -6  -6   15.91    2.78
   6  -6  -6   15.97    3.08
   6  -6  -6   17.51    1.31
  -5   6   6   37.04    2.48
  -5   6   6   35.29    2.58
   5  -6  -6   32.35    3.36
   5  -6  -6   31.49    3.18
   5  -6  -6   36.47    1.79
  -4   6   6   61.04    3.14
  -4   6   6   55.76    3.94
  -4   6   6   61.55    3.13
   4  -6  -6   58.85    3.74
   4  -6  -6   60.47    3.75
   4  -6  -6   58.68    2.55
  -3   6   6   41.51    2.76
  -3   6   6   43.13    2.33
  -3   6   6   44.75    2.61
  -3   6   6   42.87    3.22
  -3   6   6   42.46    3.57
   3  -6  -6   42.54    3.03
   3  -6  -6   42.94    2.23
   3  -6  -6   45.51    2.06
   3  -6  -6   44.72    3.30
  -2   6   6    1.61    1.44
  -2   6   6    3.33    1.59
  -2   6   6    1.08    1.13
  -2   6   6    2.09    0.69
  -2   6   6    1.77    0.93
   2  -6  -6    2.48    0.68
   2  -6  -6   -0.46    1.23
   2  -6  -6    1.63    0.52
   2  -6  -6    1.29    1.31
  -1   6   6   81.15    3.56
  -1   6   6   88.11    4.66
  -1   6   6   80.55    4.61
  -1   6   6   79.46    4.51
  -1   6   6   94.70    4.11
  -1   6   6   91.52    4.18
   1  -6  -6   86.52    3.46
   1  -6  -6   91.92    3.63
   0   6   6   31.04    2.86
   0   6   6   35.27    2.44
   0   6   6   37.56    2.29
   0   6   6   24.85    3.32
   0  -6  -6   33.13    1.88
   1   6   6   25.73    2.32
   1   6   6   29.29    2.36
   1   6   6   27.79    2.90
  -1  -6  -6   26.30    1.79
  -1  -6  -6   28.17    4.00
   2   6   6   35.61    2.72
   2   6   6   31.90    3.09
   2   6   6   28.45    2.47
  -2  -6  -6   34.66    2.22
   3   6   6    1.58    1.30
   3   6   6   -0.32    1.41
  -3  -6  -6    1.49    0.97
   4   6   6   27.94    3.38
   4   6   6   26.02    3.32
  -4  -6  -6   27.79    3.12
  -8   6   7    3.04    2.62
   8  -6  -7    4.41    3.02
  -7   6   7    2.24    1.52
  -7   6   7    4.13    1.64
   7  -6  -7    1.72    0.74
   7  -6  -7    2.90    3.55
   7  -6  -7    4.04    2.11
  -6   6   7   24.83    2.43
  -6   6   7   20.96    2.55
   6  -6  -7   23.54    1.53
   6  -6  -7   28.53    3.30
   6  -6  -7   23.24    3.39
  -5   6   7    1.88    1.19
  -5   6   7   -0.34    1.14
   5  -6  -7    0.34    0.55
   5  -6  -7   -2.39    1.73
   5  -6  -7   -0.87    1.70
  -4   6   7   84.10    4.15
  -4   6   7   83.02    4.01
   4  -6  -7   82.87    3.42
   4  -6  -7   81.37    4.83
   4  -6  -7   87.31    4.79
  -3   6   7   28.65    2.29
  -3   6   7   20.20    3.22
  -3   6   7   22.64    3.73
  -3   6   7   23.86    1.83
  -3   6   7   22.80    2.37
   3  -6  -7   25.53    2.87
   3  -6  -7   27.58    2.79
   3  -6  -7   23.69    1.80
   3  -6  -7   26.83    1.52
  -2   6   7   21.65    3.08
  -2   6   7   19.20    1.98
  -2   6   7   12.95    2.70
  -2   6   7   18.62    2.08
  -2   6   7   16.59    1.54
  -2   6   7   15.59    2.33
   2  -6  -7   18.97    2.46
   2  -6  -7   18.72    1.51
   2  -6  -7   20.28    1.34
  -1   6   7   63.65    3.14
  -1   6   7   60.40    4.37
  -1   6   7   47.17    3.22
  -1   6   7   54.50    3.88
  -1   6   7   58.09    2.77
   1  -6  -7   58.99    2.67
   1  -6  -7   57.91    2.59
   0   6   7    9.92    1.71
   0   6   7    8.85    1.47
   0   6   7    8.22    2.37
   0  -6  -7    7.08    0.97
   1   6   7   52.43    4.25
   1   6   7   60.36    3.43
   1   6   7   52.87    3.28
  -1  -6  -7   52.70    2.72
  -1  -6  -7   43.60    5.71
   2   6   7    2.14    1.30
   2   6   7    1.54    1.30
  -2  -6  -7    1.08    0.88
   3   6   7   10.87    2.04
   3   6   7   10.58    1.98
  -3  -6  -7   11.46    1.70
  -7   6   8   27.76    3.01
   7  -6  -8   21.93    3.93
   7  -6  -8   23.49    3.88
   7  -6  -8   19.81    1.63
  -6   6   8    9.84    1.70
  -6   6   8    8.84    1.85
   6  -6  -8    5.53    2.69
   6  -6  -8    7.54    0.90
   6  -6  -8   10.21    2.57
  -5   6   8   17.08    2.22
  -5   6   8   15.96    2.18
   5  -6  -8   18.19    3.00
   5  -6  -8   19.14    3.29
   5  -6  -8   17.78    1.34
  -4   6   8   33.00    2.75
  -4   6   8   37.46    2.76
   4  -6  -8   33.38    3.56
   4  -6  -8   35.15    1.88
   4  -6  -8   37.81    3.58
  -3   6   8    4.00    2.57
  -3   6   8    0.27    1.47
  -3   6   8    1.71    1.08
  -3   6   8    2.81    1.35
   3  -6  -8    0.47    1.59
   3  -6  -8    0.74    1.81
   3  -6  -8    1.97    1.07
   3  -6  -8    0.80    0.59
  -2   6   8   71.24    4.31
  -2   6   8   74.83    5.44
  -2   6   8   83.46    4.02
  -2   6   8   81.37    3.83
  -2   6   8   83.94    4.14
   2  -6  -8   76.10    3.54
   2  -6  -8   80.81    3.43
  -1   6   8    1.43    1.06
  -1   6   8    2.44    1.08
  -1   6   8    4.25    2.59
  -1   6   8    2.84    1.16
   1  -6  -8    2.70    0.67
   1  -6  -8    2.99    0.91
   0   6   8   61.40    3.58
   0   6   8   47.85    4.93
   0   6   8   62.74    3.38
   0  -6  -8   56.14    2.85
   1   6   8   12.08    1.87
   1   6   8   10.03    1.76
  -1  -6  -8   12.92    1.61
   2   6   8   14.11    2.11
   2   6   8   19.35    2.71
  -2  -6  -8   11.24    1.71
   3   6   8   12.79    2.29
   3   6   8   16.55    2.53
  -3  -6  -8   18.62    2.53
  -7   6   9    9.28    2.08
  -7   6   9    9.88    2.18
   7  -6  -9    5.37    3.61
   7  -6  -9   14.02    2.92
   7  -6  -9   11.84    1.19
  -6   6   9    0.77    1.53
  -6   6   9    8.58    1.86
   6  -6  -9    4.52    0.79
   6  -6  -9    6.23    2.56
   6  -6  -9    6.25    3.13
  -5   6   9   32.62    2.92
  -5   6   9   32.91    2.82
   5  -6  -9   37.26    4.58
   5  -6  -9   31.16    1.86
   5  -6  -9   34.82    4.05
  -4   6   9   -1.46    2.58
  -4   6   9   -0.08    1.41
  -4   6   9    0.68    1.25
   4  -6  -9   -2.18    1.95
   4  -6  -9    0.31    0.57
   4  -6  -9   -0.39    1.94
  -3   6   9   37.93    2.91
  -3   6   9   39.74    4.43
  -3   6   9   39.95    2.91
   3  -6  -9   36.48    3.70
   3  -6  -9   35.27    4.45
   3  -6  -9   40.50    2.10
  -2   6   9   16.85    3.12
  -2   6   9   21.40    2.34
  -2   6   9   20.69    2.29
  -2   6   9   19.29    2.17
   2  -6  -9   18.20    1.53
   2  -6  -9   19.38    1.81
  -1   6   9   27.06    4.18
  -1   6   9   29.98    2.38
  -1   6   9   29.40    2.62
  -1   6   9   28.36    2.57
   1  -6  -9   30.22    2.47
   1  -6  -9   26.87    1.89
   0   6   9   22.87    4.71
   0   6   9   37.75    2.98
   0   6   9   36.54    2.94
   0  -6  -9   30.44    2.13
   1   6   9    1.12    1.43
   1   6   9    3.43    1.64
  -1  -6  -9    1.37    0.98
   2   6   9   20.86    3.29
  -2  -6  -9   22.22    2.69
  -6   6  10   23.41    3.39
  -6   6  10   23.29    2.80
   6  -6 -10   20.02    4.39
   6  -6 -10   25.01    1.80
   6  -6 -10   31.97    4.32
  -5   6  10    3.05    1.84
  -5   6  10    3.94    1.52
   5  -6 -10    9.27    3.31
   5  -6 -10    4.92    0.87
   5  -6 -10    4.73    2.75
  -4   6  10   24.41    2.94
  -4   6  10   17.30    3.89
  -4   6  10   17.66    2.46
   4  -6 -10   18.27    3.65
   4  -6 -10   22.90    3.38
   4  -6 -10   20.49    1.51
  -3   6  10   30.54    5.17
  -3   6  10   40.48    3.08
  -3   6  10   38.19    2.99
  -3   6  10   39.92    3.55
   3  -6 -10   36.44    2.15
  -2   6  10    3.84    1.42
  -2   6  10    2.63    1.31
  -2   6  10    1.00    3.02
  -2   6  10    3.59    1.67
   2  -6 -10    3.81    0.90
  -1   6  10   27.28    3.16
  -1   6  10   36.76    2.91
  -1   6  10   31.72    2.92
   1  -6 -10   32.66    2.17
   0   6  10    0.42    1.50
   0   6  10    2.57    1.43
   0  -6 -10    0.26    0.95
   1   6  10   17.49    3.07
   1   6  10   18.63    3.00
  -6   6  11    9.91    2.54
  -6   6  11   15.99    2.38
   6  -6 -11   10.51    3.29
  -5   6  11    2.04    1.75
  -5   6  11    2.33    1.89
   5  -6 -11   -1.24    2.65
   5  -6 -11   -0.09    0.90
   5  -6 -11   -2.39    3.90
  -4   6  11   27.46    3.56
  -4   6  11   30.45    2.98
   4  -6 -11   24.21    1.89
   4  -6 -11   28.16    4.77
   4  -6 -11   28.04    4.38
  -3   6  11    2.80    2.04
  -3   6  11    4.82    1.72
  -3   6  11    1.77    1.57
   3  -6 -11    2.78    0.92
  -2   6  11   21.69    2.76
  -2   6  11   19.62    2.93
  -2   6  11   21.92    2.66
   2  -6 -11   21.10    1.98
  -1   6  11    4.85    1.87
  -1   6  11    8.24    1.87
   1  -6 -11    9.37    1.43
   0   6  11    7.54    1.85
   0   6  11   10.12    2.03
   0  -6 -11    9.61    1.84
  -4   6  12   14.82    2.36
  -4   6  12    8.99    2.71
   4  -6 -12   12.34    1.70
  -3   6  12    6.05    1.92
  -3   6  12    7.96    2.64
   3  -6 -12    4.55    1.46
  -2   6  12   13.86    2.93
  -2   6  12   15.72    2.30
   2  -6 -12   13.32    1.77
  -1   6  12   -0.44    1.80
   0  -7  13    7.39    4.87
   0  -7  13    1.33    4.22
   0  -7  13    8.91    2.83
   1   7 -13    7.06    1.37
  -1  -7  13    1.01    3.84
  -1  -7  13    4.45    2.61
  -1  -7  13    4.06    4.90
  -2   7 -12    3.53    1.16
  -2   7 -12    4.33    2.17
   2  -7  12    6.69    2.87
   2  -7  12    1.42    4.07
  -1   7 -12    0.74    0.98
  -1   7 -12   -1.30    1.89
   1  -7  12    3.83    2.32
   1  -7  12   -2.23    3.38
   0   7 -12   14.53    1.55
   0  -7  12   11.77    3.41
   0  -7  12   13.95    3.47
   0  -7  12    9.94    2.60
   1   7 -12    0.07    0.79
  -1  -7  12   -0.40    2.03
  -1  -7  12    3.18    2.97
  -1  -7  12   -1.38    3.21
   2   7 -12   19.03    1.86
  -2  -7  12   16.57    3.52
  -2  -7  12   20.88    4.22
  -2  -7  12   17.87    3.13
   3   7 -12    2.47    1.23
  -3  -7  12    1.14    3.48
  -3   7 -11   13.86    2.37
   3  -7  11    9.08    2.80
   3  -7  11   11.88    4.03
  -2   7 -11    3.30    1.74
  -2   7 -11   -1.99    0.94
   2  -7  11    0.36    2.34
   2  -7  11    2.96    3.33
  -1   7 -11   13.04    1.47
  -1   7 -11   15.43    2.45
   1  -7  11   14.85    3.31
   1  -7  11    9.63    2.50
   0   7 -11    3.52    0.77
   0  -7  11   -0.08    1.87
   0  -7  11    4.26    2.85
   0  -7  11    5.66    2.71
   1   7 -11   13.38    1.34
  -1  -7  11   15.44    2.58
  -1  -7  11   12.38    2.95
  -1  -7  11   15.76    3.20
  -2  -7  11    5.14    2.65
  -2  -7  11    7.88    2.02
   3   7 -11   10.59    1.34
  -3  -7  11    7.14    3.23
   4   7 -11   20.18    2.03
  -4  -7  11   21.72    4.18
  -4   7 -10    3.82    2.37
   4  -7  10   11.94    4.07
   4  -7  10    2.25    2.59
  -3   7 -10    1.75    1.76
   3  -7  10   -0.22    2.24
   3  -7  10    1.98    3.58
  -2   7 -10   17.85    1.50
  -2   7 -10   16.56    2.22
   2  -7  10   16.35    3.20
   2  -7  10   14.08    2.43
  -1   7 -10   10.93    1.89
  -1   7 -10   10.79    1.24
   1  -7  10    6.52    2.08
   1  -7  10    6.78    2.42
   1  -7  10    7.54    2.68
   0   7 -10    3.36    0.73
   0  -7  10    3.38    1.86
   0  -7  10    3.27    2.51
   0  -7  10    4.94    2.43
   1   7 -10   30.68    1.77
  -1  -7  10   30.02    3.93
  -1  -7  10   26.63    2.91
   2   7 -10   -0.06    0.58
  -2  -7  10   -0.30    1.46
  -2  -7  10   -0.26    2.27
   3   7 -10   27.39    1.85
  -3  -7  10   30.05    4.46
   4   7 -10    2.66    0.93
  -4  -7  10    1.06    2.95
  -5   7  -9    2.84    2.59
   5  -7   9    2.50    2.90
   5  -7   9   -4.37    4.28
  -4   7  -9    4.85    1.99
   4  -7   9    5.62    2.33
   4  -7   9    4.44    3.39
  -3   7  -9    5.57    1.73
   3  -7   9    6.29    1.96
   3  -7   9    2.87    1.93
   3  -7   9    5.91    2.92
  -2   7  -9   19.40    1.46
  -2   7  -9   24.85    2.37
   2  -7   9   23.61    3.84
   2  -7   9   23.09    3.17
  -1   7  -9    0.86    0.58
  -1   7  -9   -0.28    1.18
   1  -7   9    0.34    1.66
   1  -7   9    1.41    2.19
   0   7  -9   33.31    1.72
   0  -7   9   33.21    4.02
   0  -7   9   31.77    2.94
   1   7  -9   12.74    1.11
   1   7  -9   12.50    1.96
  -1  -7   9    8.85    2.47
  -1  -7   9   13.85    1.88
   2   7  -9   27.76    1.65
   2   7  -9   31.54    1.72
   2   7  -9   29.34    2.13
  -2  -7   9   31.85    3.91
  -2  -7   9   28.49    2.61
   3   7  -9   24.11    1.65
   3   7  -9   23.35    1.79
  -3  -7   9   26.10    2.61
  -3  -7   9   21.13    3.37
   4   7  -9    8.01    1.43
  -4  -7   9    6.72    1.81
  -4  -7   9   10.56    3.01
   5   7  -9   27.38    2.98
  -5  -7   9   24.08    3.16
  -5  -7   9   21.74    3.44
  -5   7  -8   10.12    2.29
   5  -7   8    8.19    2.61
   5  -7   8    7.35    2.94
   5  -7   8    1.91    3.62
  -4   7  -8   -1.84    1.65
   4  -7   8   -0.78    2.83
   4  -7   8   -2.78    2.07
   4  -7   8   -2.07    2.10
  -3   7  -8   13.73    1.82
  -3   7  -8   20.67    2.33
   3  -7   8   20.67    3.12
   3  -7   8   17.99    2.80
   3  -7   8   21.64    3.04
  -2   7  -8    3.84    0.93
  -2   7  -8    2.53    1.23
  -2   7  -8    2.87    0.63
   2  -7   8    1.59    1.58
   2  -7   8    3.13    1.37
   2  -7   8    3.15    1.85
  -1   7  -8   23.90    1.36
  -1   7  -8   23.32    1.45
  -1   7  -8   22.32    1.61
  -1   7  -8   24.33    2.16
   1  -7   8   23.10    2.76
   0   7  -8   31.82    1.56
   0   7  -8   26.40    2.43
   0  -7   8   27.94    3.69
   0  -7   8   29.37    2.56
   1   7  -8   11.47    1.05
   1   7  -8   10.67    1.65
   1   7  -8   11.12    1.45
  -1  -7   8   10.67    2.42
  -1  -7   8   10.83    1.52
  -1  -7   8    9.96    1.62
   2   7  -8   69.11    3.01
   2   7  -8   70.95    3.16
   2   7  -8   65.70    3.56
  -2  -7   8   70.30    3.79
  -2  -7   8   67.11    3.49
  -2  -7   8   63.83    4.68
   3   7  -8    1.98    1.76
   3   7  -8    2.49    0.90
  -3  -7   8    0.16    2.11
  -3  -7   8    1.12    1.18
   4   7  -8   38.41    2.71
  -4  -7   8   30.93    4.12
  -4  -7   8   37.16    3.19
  -5  -7   8    8.68    2.90
  -5  -7   8    6.71    2.54
  -6   7  -7    8.24    2.38
   6  -7   7   -1.10    4.24
   6  -7   7    6.08    2.99
   6  -7   7    0.68    2.84
  -5   7  -7    1.37    1.93
   5  -7   7   -3.76    3.29
   5  -7   7    0.62    2.56
   5  -7   7    4.11    2.31
  -4   7  -7   10.59    1.81
   4  -7   7    7.50    2.16
   4  -7   7    7.35    2.73
   4  -7   7   12.38    2.17
  -3   7  -7   17.98    2.11
  -3   7  -7   14.85    1.85
   3  -7   7   16.73    2.84
   3  -7   7   12.70    2.31
   3  -7   7   18.13    2.70
  -2   7  -7    6.99    1.41
  -2   7  -7    7.50    1.01
  -2   7  -7    6.44    0.84
   2  -7   7    7.40    1.61
   2  -7   7   10.53    2.12
  -1   7  -7   59.96    3.19
  -1   7  -7   60.37    2.70
  -1   7  -7   58.67    2.48
   1  -7   7   59.08    3.53
   0   7  -7    0.22    0.44
   0   7  -7    0.00    0.80
   0   7  -7    0.10    0.56
   0   7  -7    2.33    1.06
   0  -7   7    0.33    1.55
   0  -7   7    0.79    1.01
   0  -7   7    1.32    1.10
   1   7  -7   60.93    2.90
   1   7  -7   58.78    2.65
   1   7  -7   59.47    2.99
  -1  -7   7   59.90    3.26
  -1  -7   7   58.53    3.27
  -1  -7   7   56.07    3.99
   2   7  -7   17.46    1.44
   2   7  -7   17.71    1.56
   2   7  -7   19.47    2.23
  -2  -7   7   14.89    2.48
  -2  -7   7   16.19    1.86
   3   7  -7   49.25    3.73
   3   7  -7   55.12    2.84
  -3  -7   7   56.37    3.37
  -3  -7   7   58.71    4.36
   4   7  -7   37.28    2.71
  -4  -7   7   36.40    2.96
  -4  -7   7   31.20    3.84
   5   7  -7    2.26    1.57
  -5  -7   7    0.08    2.42
  -5  -7   7    1.51    1.78
  -6   7  -6    7.75    2.14
   6  -7   6    4.90    2.86
   6  -7   6    5.67    3.85
   6  -7   6    5.42    2.53
  -5   7  -6    5.73    1.77
   5  -7   6    3.42    2.33
   5  -7   6    4.11    2.37
   5  -7   6    7.53    2.95
  -4   7  -6   19.04    2.38
  -4   7  -6   21.65    2.31
   4  -7   6   23.63    3.07
   4  -7   6   25.09    3.14
   4  -7   6   19.30    2.86
  -3   7  -6    0.63    1.13
  -3   7  -6   -0.62    0.95
   3  -7   6   -0.87    1.44
   3  -7   6   -1.05    1.64
   3  -7   6   -0.61    1.28
  -2   7  -6   47.67    2.76
  -2   7  -6   51.27    2.47
  -2   7  -6   46.88    2.00
   2  -7   6   51.76    3.10
   2  -7   6   51.10    3.29
  -1   7  -6   13.64    1.82
  -1   7  -6   12.66    0.90
  -1   7  -6   13.54    1.49
  -1   7  -6    9.13    1.28
   1  -7   6   12.63    1.76
   1  -7   6   10.91    1.88
   1  -7   6   13.03    1.43
   0   7  -6   61.39    2.90
   0   7  -6   61.65    2.72
   0   7  -6   54.48    3.67
   0   7  -6   59.30    3.06
   0  -7   6   61.67    3.23
   0  -7   6   58.64    3.82
   0  -7   6   64.29    3.34
   1   7  -6   42.89    2.31
   1   7  -6   40.18    2.46
   1   7  -6   37.07    2.82
   1   7  -6   40.29    2.08
  -1  -7   6   40.66    2.65
  -1  -7   6   38.86    2.50
  -1  -7   6   38.34    3.07
   2   7  -6   15.32    1.41
   2   7  -6   16.04    2.10
   2   7  -6   12.70    1.06
   2   7  -6   13.08    2.16
   2   7  -6   13.54    1.37
  -2  -7   6   16.82    1.91
  -2  -7   6   17.16    2.52
   3   7  -6   86.79    3.90
  -3  -7   6   77.24    4.11
  -3  -7   6   84.43    4.75
  -3  -7   6   90.15    4.41
   4   7  -6    1.77    1.20
  -4  -7   6   -0.11    1.92
  -4  -7   6   -0.85    1.11
  -4  -7   6   -1.69    1.89
   5   7  -6   44.95    3.37
  -5  -7   6   50.17    4.01
  -5  -7   6   40.97    4.46
  -7   7  -5    3.72    2.19
   7  -7   5    4.87    3.15
   7  -7   5   10.66    4.45
   7  -7   5    7.51    3.18
  -6   7  -5    1.63    1.77
   6  -7   5   -0.19    3.27
   6  -7   5   -0.98    2.30
   6  -7   5    3.91    2.65
  -5   7  -5   12.16    1.89
   5  -7   5   11.43    2.73
   5  -7   5   10.88    2.45
   5  -7   5   12.67    2.60
  -4   7  -5    2.68    1.15
  -4   7  -5    3.28    1.26
   4  -7   5    3.81    1.97
   4  -7   5    4.84    1.72
   4  -7   5    3.90    1.48
  -3   7  -5   31.89    2.07
  -3   7  -5   34.82    2.28
   3  -7   5   40.33    3.11
   3  -7   5   31.92    2.81
   3  -7   5   36.61    2.78
  -2   7  -5   51.75    3.24
  -2   7  -5   55.54    2.11
  -2   7  -5   54.26    2.76
  -2   7  -5   42.76    3.60
  -2   7  -5   57.81    2.67
   2  -7   5   54.79    3.22
   2  -7   5   57.33    3.36
  -1   7  -5    9.72    1.81
  -1   7  -5    9.96    1.36
  -1   7  -5    6.42    1.19
  -1   7  -5    9.34    1.17
   1  -7   5    9.85    1.49
   1  -7   5    9.91    1.65
   1  -7   5   10.00    1.25
   0   7  -5   45.13    2.52
   0   7  -5   49.39    2.34
   0   7  -5   42.53    2.48
   0   7  -5   43.46    2.98
   0  -7   5   47.23    2.72
   0  -7   5   47.17    2.70
   0  -7   5   42.50    3.05
   1   7  -5    1.75    0.68
   1   7  -5    1.14    0.65
   1   7  -5    0.58    0.46
   1   7  -5    1.01    1.06
   1   7  -5    1.47    1.08
  -1  -7   5    2.42    0.94
  -1  -7   5   -0.06    1.19
   2   7  -5  102.30    4.15
   2   7  -5  104.39    4.98
   2   7  -5   99.67    4.56
   2   7  -5  100.63    4.35
   2   7  -5   97.42    3.94
  -2  -7   5  102.61    5.04
  -2  -7   5  105.53    4.70
   3   7  -5   16.48    1.74
   3   7  -5   15.93    1.72
  -3  -7   5   17.96    2.07
  -3  -7   5   20.89    2.51
   4   7  -5   32.67    2.58
  -4  -7   5   33.31    2.79
  -4  -7   5   35.85    3.19
  -4  -7   5   32.67    3.60
   5   7  -5   34.10    2.99
  -5  -7   5   35.45    3.32
  -5  -7   5   32.12    3.98
  -7   7  -4   -2.34    1.87
   7  -7   4   -0.09    2.83
   7  -7   4    2.24    3.90
   7  -7   4   -0.17    2.99
  -6   7  -4    7.78    1.88
   6  -7   4   13.13    3.12
   6  -7   4   10.76    2.64
   6  -7   4    8.10    2.43
  -5   7  -4   14.73    1.88
   5  -7   4   13.80    2.58
   5  -7   4   11.70    2.35
   5  -7   4   11.03    2.35
  -4   7  -4    4.03    1.18
  -4   7  -4    5.34    1.29
   4  -7   4    3.73    1.77
   4  -7   4    4.64    1.79
   4  -7   4    6.47    1.52
  -3   7  -4   58.92    2.96
  -3   7  -4   59.28    2.94
   3  -7   4   62.68    3.49
   3  -7   4   62.41    3.72
  -2   7  -4    1.58    0.98
  -2   7  -4    2.91    0.90
  -2   7  -4    2.39    1.45
  -2   7  -4    3.13    0.79
   2  -7   4    3.13    0.90
   2  -7   4    1.53    1.11
   2  -7   4    2.73    1.02
  -1   7  -4   80.71    4.31
  -1   7  -4   89.15    3.88
  -1   7  -4   86.59    3.65
  -1   7  -4   84.47    3.96
   1  -7   4   87.37    4.12
   1  -7   4   85.02    3.73
   1  -7   4   90.18    4.22
   0   7  -4   20.61    1.51
   0   7  -4   20.87    1.76
   0   7  -4   18.23    1.67
   0   7  -4   18.05    2.02
   0  -7   4   18.25    2.08
   0  -7   4   18.67    1.70
   0  -7   4   17.12    1.71
   1   7  -4   43.72    2.57
   1   7  -4   44.66    2.12
   1   7  -4   44.36    2.39
   1   7  -4   43.42    2.32
   1   7  -4   47.33    2.87
  -1  -7   4   44.17    2.56
  -1  -7   4   50.05    2.90
   2   7  -4   82.87    3.70
   2   7  -4   81.71    3.49
   2   7  -4   76.44    3.63
   2   7  -4   77.00    4.28
   2   7  -4   76.75    3.19
  -2  -7   4   85.55    4.14
  -2  -7   4   83.68    3.91
   3   7  -4   20.83    1.90
   3   7  -4   25.44    1.68
  -3  -7   4   21.39    2.08
  -3  -7   4   20.39    2.36
   4   7  -4   53.20    3.10
   4   7  -4   48.67    2.55
  -4  -7   4   55.82    3.34
  -4  -7   4   43.60    4.11
  -4  -7   4   46.99    3.45
   5   7  -4    0.98    1.40
  -5  -7   4    3.56    2.16
  -5  -7   4    1.31    1.32
  -7   7  -3   -0.99    1.65
   7  -7   3    2.04    2.59
   7  -7   3    3.21    3.53
   7  -7   3   -2.43    2.70
  -6   7  -3   12.29    1.78
   6  -7   3   10.95    2.49
   6  -7   3   11.67    2.66
   6  -7   3   12.21    2.98
  -5   7  -3   -0.42    1.06
   5  -7   3   -1.21    1.49
   5  -7   3    0.21    1.98
   5  -7   3   -0.71    1.60
  -4   7  -3   52.60    2.87
  -4   7  -3   43.51    2.84
   4  -7   3   55.36    3.56
   4  -7   3   52.86    3.32
   4  -7   3   50.30    3.39
  -3   7  -3   12.39    1.94
  -3   7  -3   13.51    1.33
  -3   7  -3   13.47    1.54
  -3   7  -3   12.59    2.02
   3  -7   3   16.64    1.99
   3  -7   3   12.96    1.99
  -2   7  -3   43.78    2.16
  -2   7  -3   37.61    2.57
  -2   7  -3   36.75    2.76
  -2   7  -3   45.85    2.46
   2  -7   3   44.09    2.20
   2  -7   3   46.87    2.78
   2  -7   3   41.74    2.77
  -1   7  -3   65.19    3.25
  -1   7  -3   57.64    3.41
  -1   7  -3   70.05    2.88
  -1   7  -3   67.42    3.28
   1  -7   3   62.51    2.94
   1  -7   3   65.53    3.56
   1  -7   3   68.79    3.35
   0   7  -3    6.26    0.85
   0   7  -3    8.52    1.30
   0   7  -3    7.05    0.85
   0   7  -3    6.75    1.09
   0   7  -3    7.33    1.10
   0   7  -3    9.12    1.45
   0  -7   3    8.11    1.11
   1   7  -3  117.67    4.80
   1   7  -3  105.32    5.23
   1   7  -3  109.31    4.84
   1   7  -3  122.56    4.56
   1   7  -3  116.56    4.82
  -1  -7   3  122.04    5.15
  -1  -7   3  116.17    4.90
   2   7  -3    0.65    0.77
   2   7  -3   -0.15    0.64
   2   7  -3    0.51    0.46
   2   7  -3    0.98    1.30
   2   7  -3    0.87    0.74
  -2  -7   3    0.99    0.78
  -2  -7   3    0.34    1.07
   3   7  -3   95.96    4.59
   3   7  -3  102.79    4.09
  -3  -7   3   99.14    5.02
  -3  -7   3  100.80    4.70
  -3  -7   3  102.34    4.76
   4   7  -3   18.98    2.09
   4   7  -3   15.27    1.54
  -4  -7   3   18.97    2.27
  -4  -7   3   17.56    2.50
   5   7  -3   12.48    1.92
  -5  -7   3   10.96    2.05
  -7   7  -2   10.79    2.06
   7  -7   2    6.15    2.51
   7  -7   2   13.40    3.45
   7  -7   2    8.32    2.52
  -6   7  -2    5.29    1.41
   6  -7   2    3.59    2.00
   6  -7   2    1.46    1.76
   6  -7   2    4.91    2.43
  -5   7  -2   19.77    2.02
   5  -7   2   20.51    3.26
   5  -7   2   18.27    3.01
   5  -7   2   23.29    2.96
  -4   7  -2   53.33    2.81
  -4   7  -2   50.19    3.00
   4  -7   2   50.42    3.16
   4  -7   2   59.49    3.49
   4  -7   2   59.11    3.40
  -3   7  -2   11.82    1.83
  -3   7  -2   13.53    1.21
  -3   7  -2   14.68    1.63
   3  -7   2   13.13    1.81
   3  -7   2   12.22    1.13
   3  -7   2   15.69    1.87
  -2   7  -2   78.39    3.67
  -2   7  -2   74.03    3.74
  -2   7  -2   77.40    3.18
  -2   7  -2   72.42    3.53
   2  -7   2   75.43    3.86
   2  -7   2   72.36    3.68
   2  -7   2   72.17    3.09
  -1   7  -2   -0.26    0.86
  -1   7  -2   -0.10    0.39
  -1   7  -2   -0.13    0.74
  -1   7  -2   -0.76    0.84
  -1   7  -2    0.36    0.40
   1  -7   2    0.42    0.62
   1  -7   2   -0.48    0.87
   0   7  -2  118.88    4.53
   0   7  -2  116.36    4.68
   0   7  -2  121.22    5.39
   0   7  -2  117.23    4.98
   0   7  -2  116.21    4.93
   0   7  -2  121.97    5.08
   0  -7   2  119.59    4.82
   1   7  -2   64.11    3.73
   1   7  -2   71.01    3.24
   1   7  -2   72.16    2.96
   1   7  -2   65.35    3.12
   1   7  -2   71.97    3.32
  -1  -7   2   73.78    3.33
   2   7  -2   48.86    2.48
   2   7  -2   52.24    2.28
   2   7  -2   47.54    2.71
   2   7  -2   45.42    2.20
  -2  -7   2   47.80    2.71
  -2  -7   2   53.89    2.74
  -2  -7   2   45.25    2.83
   3   7  -2   61.44    2.57
   3   7  -2   56.77    2.84
   3   7  -2   64.45    3.37
  -3  -7   2   46.73    4.06
  -3  -7   2   60.96    3.30
  -3  -7   2   62.07    3.20
   4   7  -2    1.89    1.10
  -4  -7   2    1.69    1.50
  -4  -7   2    2.32    1.19
  -4  -7   2    2.53    1.94
   5   7  -2   29.43    2.94
  -5  -7   2   32.37    3.13
  -8   7  -1    1.37    2.04
  -8   7  -1    0.77    2.06
   8  -7   1   -4.00    2.96
   8  -7   1   -3.88    4.12
  -7   7  -1   11.10    1.94
   7  -7   1    4.85    3.15
   7  -7   1   11.38    2.53
   7  -7   1   10.47    2.38
  -6   7  -1    2.08    1.27
   6  -7   1    3.82    1.72
   6  -7   1    0.66    2.18
   6  -7   1    3.60    1.71
  -5   7  -1   32.36    2.42
   5  -7   1   38.16    3.29
   5  -7   1   40.40    3.26
   5  -7   1   41.74    3.20
  -4   7  -1    0.00    1.18
  -4   7  -1    0.96    0.96
  -4   7  -1    1.33    0.71
  -4   7  -1   -0.60    1.16
   4  -7   1    0.43    0.70
   4  -7   1    0.93    1.08
   4  -7   1   -0.61    0.96
   4  -7   1   -0.30    1.00
  -3   7  -1   90.42    4.22
  -3   7  -1   91.98    4.38
  -3   7  -1   97.98    4.05
  -3   7  -1   99.68    3.96
   3  -7   1   85.65    3.56
   3  -7   1   98.58    4.54
   3  -7   1   90.94    3.78
  -2   7  -1   45.07    2.23
  -2   7  -1   43.38    2.05
  -2   7  -1   42.48    2.50
  -2   7  -1   41.91    2.53
   2  -7   1   42.60    1.98
   2  -7   1   41.72    1.97
   2  -7   1   42.93    2.81
  -1   7  -1   46.00    2.55
  -1   7  -1   42.03    2.22
  -1   7  -1   48.16    2.03
  -1   7  -1   46.98    2.76
  -1   7  -1   49.86    2.58
   1  -7   1   45.74    2.96
   1  -7   1   44.08    2.14
   0   7  -1  129.44    5.25
   0   7  -1  126.77    5.75
   0   7  -1  124.30    5.28
   0   7  -1  129.69    5.30
   0   7  -1  129.06    5.01
   0   7  -1  125.44    4.74
   0  -7   1  125.83    5.05
   1   7  -1   17.33    0.91
   1   7  -1   18.56    1.21
   1   7  -1   15.77    1.16
   1   7  -1   13.76    1.46
   1   7  -1   16.72    2.11
   1   7  -1   16.05    1.47
  -1  -7   1   12.97    1.42
   2   7  -1  135.12    5.82
   2   7  -1  132.47    5.31
   2   7  -1  138.78    5.09
  -2  -7   1  138.63    5.70
  -2  -7   1  139.88    6.08
   3   7  -1    3.18    1.13
  -3  -7   1    2.71    0.95
  -3  -7   1    1.83    1.51
   4   7  -1   32.75    2.77
  -4  -7   1   35.61    2.68
   5   7  -1   20.40    2.73
  -5  -7   1   17.21    2.32
  -8   7   0    7.19    2.15
  -8   7   0    4.54    1.99
   8  -7   0    8.37    2.96
   8  -7   0   10.68    3.98
  -7   7   0    0.21    1.39
  -7   7   0   -0.42    1.32
   7  -7   0   -0.47    2.02
   7  -7   0   -1.49    2.93
  -6   7   0   27.12    2.41
  -6   7   0   33.29    2.59
   6  -7   0   31.24    4.04
   6  -7   0   31.35    3.31
  -5   7   0    8.40    1.26
  -5   7   0    5.47    1.20
   5  -7   0    6.18    1.62
   5  -7   0    5.67    1.77
  -4   7   0   21.10    1.56
  -4   7   0   16.85    2.15
  -4   7   0   22.37    1.69
  -4   7   0   21.03    1.97
  -4   7   0   21.46    2.25
   4  -7   0   22.50    2.10
   4  -7   0   26.22    2.25
   4  -7   0   20.41    1.54
  -3   7   0   67.97    2.94
  -3   7   0   61.34    3.26
  -3   7   0   67.10    3.47
  -3   7   0   71.41    3.13
   3  -7   0   61.66    2.81
   3  -7   0   65.07    3.18
   3  -7   0   64.44    2.60
  -2   7   0    5.24    0.76
  -2   7   0    3.16    0.91
  -2   7   0    2.59    0.72
  -2   7   0    4.71    1.07
   2  -7   0    3.46    1.24
   2  -7   0    4.88    0.65
   2  -7   0    3.26    0.58
  -1   7   0  154.98    6.06
  -1   7   0  150.22    5.65
  -1   7   0  150.57    6.24
  -1   7   0  155.44    6.54
  -1   7   0  151.81    5.92
   1  -7   0  154.84    6.75
   1  -7   0  148.96    5.75
   0   7   0    5.31    0.93
   0   7   0    5.96    0.84
   0   7   0    5.05    0.90
   0   7   0    3.45    1.11
   0   7   0    3.58    0.48
   0  -7   0    5.45    0.85
   0  -7   0    4.14    0.82
   1   7   0  187.48    6.90
   1   7   0  172.46    7.82
   1   7   0  181.19    7.20
  -1  -7   0  180.99    6.98
  -1  -7   0  175.93    6.81
   2   7   0   57.46    3.19
   2   7   0   59.07    2.76
  -2  -7   0   60.14    2.98
  -2  -7   0   57.75    2.68
   3   7   0   37.13    2.18
   3   7   0   45.34    2.86
  -3  -7   0   41.31    2.19
  -3  -7   0   41.88    2.63
  -3  -7   0   46.51    3.37
   4   7   0   47.84    3.27
   4   7   0   45.35    2.43
  -4  -7   0   44.84    2.99
   5   7   0   -2.18    1.47
  -5  -7   0   -2.53    1.53
  -8   7   1    4.19    1.97
  -8   7   1    6.71    2.02
   8  -7  -1   -1.91    3.84
   8  -7  -1   10.82    2.79
  -7   7   1    9.21    1.85
  -7   7   1    7.92    1.70
   7  -7  -1    4.22    2.12
   7  -7  -1    4.64    2.87
  -6   7   1   28.96    2.43
  -6   7   1   26.68    2.55
   6  -7  -1   31.76    3.27
   6  -7  -1   26.29    3.87
  -5   7   1   15.22    1.83
  -5   7   1   13.13    1.69
   5  -7  -1   18.50    2.30
   5  -7  -1   17.51    2.59
  -4   7   1   37.56    2.74
  -4   7   1   41.94    2.18
  -4   7   1   35.18    2.66
  -4   7   1   33.18    2.47
  -4   7   1   43.90    2.35
   4  -7  -1   38.31    1.71
   4  -7  -1   43.53    2.88
   4  -7  -1   43.14    2.76
   4  -7  -1   38.29    2.09
  -3   7   1    1.73    0.56
  -3   7   1    1.17    0.87
  -3   7   1    1.25    0.90
  -3   7   1    2.14    0.74
   3  -7  -1    1.39    0.50
   3  -7  -1    0.61    0.91
   3  -7  -1    1.87    0.48
   3  -7  -1    0.97    0.98
  -2   7   1  146.66    5.51
  -2   7   1  140.33    6.06
  -2   7   1  142.33    6.20
  -2   7   1  145.41    5.75
   2  -7  -1  147.03    5.46
   2  -7  -1  147.89    5.42
   2  -7  -1  142.06    5.77
   2  -7  -1  150.96    6.54
  -1   7   1   42.48    1.89
  -1   7   1   43.33    2.87
  -1   7   1   47.24    2.26
   1  -7  -1   43.87    2.08
   1  -7  -1   43.67    1.88
   1  -7  -1   44.39    3.04
   1  -7  -1   45.20    2.24
   0   7   1  106.79    4.45
   0   7   1  103.40    4.70
   0   7   1  106.52    5.28
   0   7   1  113.69    4.32
   0  -7  -1  114.11    4.38
   0  -7  -1  104.00    4.40
   1   7   1   93.46    3.93
   1   7   1   83.92    4.87
   1   7   1   97.38    4.22
  -1  -7  -1   91.04    3.85
  -1  -7  -1   87.26    3.90
   2   7   1    0.04    0.70
   2   7   1    0.37    0.93
  -2  -7  -1   -1.40    0.63
  -2  -7  -1    0.16    0.62
  -2  -7  -1   -1.25    1.33
   3   7   1   86.08    4.27
   3   7   1   83.60    3.69
   3   7   1   88.11    4.26
  -3  -7  -1   83.11    3.99
  -3  -7  -1   76.09    4.57
  -3  -7  -1   79.85    3.63
   4   7   1    1.46    1.32
   4   7   1    2.42    0.98
  -4  -7  -1    3.05    1.24
   5   7   1   19.32    2.89
  -5  -7  -1   17.46    2.59
  -8   7   2    2.85    1.71
  -8   7   2    0.45    1.58
   8  -7  -2   -1.30    2.41
   8  -7  -2   -3.68    3.72
  -7   7   2   22.84    2.47
  -7   7   2   22.89    2.58
   7  -7  -2   20.75    3.58
   7  -7  -2   20.44    3.50
  -6   7   2   -0.40    1.10
  -6   7   2   -0.13    1.13
   6  -7  -2   -0.62    1.49
   6  -7  -2   -2.86    2.24
  -5   7   2   46.12    2.56
  -5   7   2   43.15    2.67
   5  -7  -2   41.40    3.41
   5  -7  -2   46.32    3.49
   5  -7  -2   41.64    1.86
  -4   7   2   16.36    2.15
  -4   7   2   17.07    1.45
  -4   7   2   19.59    1.53
  -4   7   2   16.05    2.13
   4  -7  -2   18.11    2.23
   4  -7  -2   14.94    2.22
   4  -7  -2   17.49    1.39
   4  -7  -2   19.13    1.11
  -3   7   2   42.40    2.65
  -3   7   2   42.48    2.27
  -3   7   2   37.88    2.67
  -3   7   2   43.29    2.40
  -3   7   2   44.35    2.14
   3  -7  -2   42.58    1.89
   3  -7  -2   46.32    2.99
   3  -7  -2   42.92    2.59
   3  -7  -2   42.94    2.06
  -2   7   2  159.85    6.00
  -2   7   2  144.20    6.71
  -2   7   2  164.63    6.29
   2  -7  -2  166.75    6.30
   2  -7  -2  161.67    5.94
   2  -7  -2  155.64    6.41
   2  -7  -2  165.97    7.12
   2  -7  -2  157.47    5.92
  -1   7   2   10.69    1.88
  -1   7   2    8.57    1.36
  -1   7   2    9.14    1.12
  -1   7   2   10.54    0.76
   1  -7  -2   10.54    1.85
   1  -7  -2    7.55    1.05
   1  -7  -2   10.55    0.76
   1  -7  -2    9.75    1.00
   1  -7  -2   10.55    1.50
   0   7   2   94.72    4.27
   0   7   2   84.96    4.80
   0   7   2  100.68    4.12
   0  -7  -2   94.80    3.90
   0  -7  -2   93.30    3.97
   1   7   2    0.56    0.69
   1   7   2    1.50    0.79
  -1  -7  -2    0.19    0.57
  -1  -7  -2    0.41    1.25
  -1  -7  -2    0.54    0.61
   2   7   2   26.31    1.87
   2   7   2   28.81    2.34
   2   7   2   28.84    2.46
  -2  -7  -2   31.51    2.01
  -2  -7  -2   26.65    1.83
  -2  -7  -2   28.73    2.94
   3   7   2   43.97    3.14
   3   7   2   42.81    2.41
   3   7   2   42.67    2.87
  -3  -7  -2   40.38    2.59
  -3  -7  -2   36.85    2.37
  -3  -7  -2   41.91    4.55
   4   7   2   16.80    2.02
   4   7   2   17.90    2.61
  -4  -7  -2   17.65    2.27
   5   7   2   27.44    3.21
  -5  -7  -2   19.83    2.93
  -8   7   3    9.96    1.89
  -8   7   3    6.74    1.97
   8  -7  -3   11.54    4.08
   8  -7  -3    9.50    2.86
  -7   7   3    9.01    1.77
  -7   7   3   10.19    1.69
   7  -7  -3    8.88    2.32
   7  -7  -3    8.40    3.08
  -6   7   3   27.69    2.37
  -6   7   3   24.75    2.34
   6  -7  -3   24.95    4.16
   6  -7  -3   24.71    1.40
   6  -7  -3   29.96    3.16
  -5   7   3   22.81    2.05
  -5   7   3   28.51    2.03
   5  -7  -3   27.72    2.85
   5  -7  -3   22.98    3.14
   5  -7  -3   27.52    1.44
  -4   7   3    2.49    0.84
  -4   7   3    0.47    1.13
  -4   7   3    1.00    1.20
  -4   7   3    0.47    0.69
   4  -7  -3    1.15    1.13
   4  -7  -3    1.35    0.51
   4  -7  -3    1.00    0.70
   4  -7  -3    1.63    1.25
  -3   7   3   78.94    4.20
  -3   7   3   90.49    3.72
  -3   7   3   79.53    4.01
  -3   7   3   96.73    3.96
   3  -7  -3   93.53    3.48
   3  -7  -3   86.32    3.87
   3  -7  -3   90.08    4.63
   3  -7  -3   90.48    4.21
   3  -7  -3   85.94    3.61
  -2   7   3   11.38    0.95
  -2   7   3    8.16    1.49
  -2   7   3   13.62    1.78
  -2   7   3    9.20    1.50
  -2   7   3   13.35    1.34
   2  -7  -3   11.74    0.95
   2  -7  -3   13.22    2.03
   2  -7  -3   12.91    1.27
   2  -7  -3    9.69    1.60
   2  -7  -3   12.79    1.05
  -1   7   3   86.53    4.74
  -1   7   3   92.19    4.16
  -1   7   3   99.41    3.71
  -1   7   3   96.27    4.21
  -1   7   3   99.59    4.31
  -1   7   3   97.25    4.37
   1  -7  -3   97.47    3.87
   1  -7  -3  100.69    3.62
   1  -7  -3   91.50    4.08
   0   7   3   20.17    1.90
   0   7   3   22.81    1.73
   0   7   3   16.31    2.67
   0   7   3   22.27    1.83
   0   7   3   22.12    1.80
   0  -7  -3   20.80    1.56
   0  -7  -3   23.13    2.48
   0  -7  -3   20.83    1.44
   1   7   3   49.65    2.73
   1   7   3   55.73    2.97
   1   7   3   55.12    3.03
  -1  -7  -3   52.15    2.59
  -1  -7  -3   48.30    2.65
  -1  -7  -3   54.00    3.66
   2   7   3   87.60    4.26
   2   7   3   78.64    3.84
   2   7   3   90.75    4.28
  -2  -7  -3   76.58    5.00
  -2  -7  -3   82.95    3.82
   3   7   3   -1.68    1.11
   3   7   3   -0.62    0.97
  -3  -7  -3    1.07    0.89
   4   7   3   38.17    3.09
   4   7   3   41.77    3.45
  -4  -7  -3   38.07    3.05
  -8   7   4   12.02    1.98
  -8   7   4    7.17    1.97
   8  -7  -4   12.26    4.19
   8  -7  -4   10.13    2.72
  -7   7   4    0.26    1.38
  -7   7   4   -0.79    1.26
   7  -7  -4   -1.31    3.02
   7  -7  -4   -0.59    1.95
  -6   7   4   35.91    2.73
  -6   7   4   38.96    2.66
   6  -7  -4   34.14    4.58
   6  -7  -4   34.25    1.81
   6  -7  -4   31.18    3.41
  -5   7   4    1.27    1.11
  -5   7   4    0.69    0.86
   5  -7  -4    0.89    1.51
   5  -7  -4   -1.40    1.52
   5  -7  -4    0.78    0.59
  -4   7   4   30.11    2.00
  -4   7   4   27.55    1.87
   4  -7  -4   26.70    2.79
   4  -7  -4   28.03    2.68
   4  -7  -4   28.31    1.52
   4  -7  -4   24.97    1.82
  -3   7   4   55.69    2.81
  -3   7   4   47.55    3.02
  -3   7   4   47.03    3.08
  -3   7   4   52.51    2.50
   3  -7  -4   49.33    2.40
   3  -7  -4   52.40    3.18
   3  -7  -4   50.80    3.53
   3  -7  -4   53.69    2.29
   3  -7  -4   47.36    2.70
  -2   7   4   34.49    2.62
  -2   7   4   29.99    2.58
  -2   7   4   34.17    1.72
  -2   7   4   32.45    2.10
  -2   7   4   31.20    2.39
   2  -7  -4   32.14    1.64
   2  -7  -4   33.54    2.53
   2  -7  -4   29.25    2.75
   2  -7  -4   34.31    1.71
   2  -7  -4   28.52    1.98
  -1   7   4   97.67    4.25
  -1   7   4   95.18    4.36
  -1   7   4   90.05    4.36
  -1   7   4   96.08    3.61
  -1   7   4   84.19    4.28
   1  -7  -4   83.30    4.02
   1  -7  -4   93.96    3.50
   1  -7  -4   94.38    3.78
   0   7   4    2.04    1.09
   0   7   4    1.53    0.96
   0   7   4    1.23    0.88
   0  -7  -4    0.32    0.51
   0  -7  -4    0.31    0.71
   1   7   4   70.69    3.72
   1   7   4   82.74    3.92
   1   7   4   74.35    3.95
  -1  -7  -4   75.73    4.77
  -1  -7  -4   74.13    3.44
   2   7   4   23.13    2.55
   2   7   4   23.00    2.27
   2   7   4   20.08    2.08
  -2  -7  -4   21.95    1.87
  -2  -7  -4   21.71    3.55
   3   7   4   51.24    3.33
   3   7   4   45.18    3.12
  -3  -7  -4   42.81    2.85
   4   7   4   13.32    2.12
   4   7   4   10.16    2.01
  -4  -7  -4   12.16    1.92
  -8   7   5    1.78    1.78
  -8   7   5   -1.91    1.83
   8  -7  -5   -1.69    2.66
   8  -7  -5   -0.63    3.74
  -7   7   5   16.61    2.31
  -7   7   5    9.05    1.93
   7  -7  -5   13.86    3.50
   7  -7  -5   14.17    2.75
   7  -7  -5   13.68    1.32
  -6   7   5    9.77    1.67
  -6   7   5    9.87    1.72
   6  -7  -5    9.10    2.77
   6  -7  -5   13.43    2.50
   6  -7  -5    9.52    1.18
  -5   7   5   36.30    2.57
  -5   7   5   36.27    2.55
   5  -7  -5   33.46    1.83
   5  -7  -5   39.95    3.44
   5  -7  -5   41.92    3.62
  -4   7   5  136.14    5.58
  -4   7   5  125.73    5.40
   4  -7  -5  127.66    6.30
   4  -7  -5  131.78    4.95
   4  -7  -5  126.74    6.08
  -3   7   5   -0.36    0.88
  -3   7   5    0.08    0.62
  -3   7   5    1.73    1.27
  -3   7   5    2.37    1.48
   3  -7  -5    0.45    1.38
   3  -7  -5    0.23    0.49
   3  -7  -5   -0.01    0.67
   3  -7  -5    0.49    1.21
  -2   7   5   97.35    3.95
  -2   7   5   98.23    4.41
  -2   7   5   95.85    4.91
  -2   7   5   85.56    4.86
   2  -7  -5   95.45    3.85
   2  -7  -5   96.47    5.19
   2  -7  -5  103.49    4.93
   2  -7  -5   91.95    3.81
  -1   7   5   10.03    1.55
  -1   7   5    6.77    0.87
  -1   7   5    7.17    1.52
  -1   7   5    7.54    1.93
  -1   7   5   11.28    1.62
   1  -7  -5    6.97    0.85
   1  -7  -5    8.94    1.04
   0   7   5   61.32    3.27
   0   7   5   63.11    3.37
   0   7   5   57.80    3.50
   0  -7  -5   59.05    2.83
   1   7   5   42.06    3.15
   1   7   5   49.75    3.05
   1   7   5   37.84    2.74
  -1  -7  -5   44.88    4.28
  -1  -7  -5   45.26    2.44
   2   7   5    4.63    1.26
   2   7   5    6.45    1.52
  -2  -7  -5    5.33    1.13
   3   7   5   37.19    3.05
   3   7   5   43.26    3.32
  -3  -7  -5   33.19    2.70
   4   7   5    1.19    1.88
   4   7   5   -1.74    1.84
  -4  -7  -5    3.23    2.04
  -8   7   6    1.13    2.05
  -8   7   6    2.32    1.87
   8  -7  -6    0.31    2.93
   8  -7  -6    1.77    3.88
  -7   7   6   12.54    2.03
  -7   7   6    8.80    1.75
   7  -7  -6   15.70    2.71
   7  -7  -6   14.49    3.63
   7  -7  -6   13.03    1.38
  -6   7   6    1.03    1.43
  -6   7   6    2.66    1.32
   6  -7  -6    0.90    0.63
   6  -7  -6    1.52    2.63
   6  -7  -6    1.05    1.83
  -5   7   6   57.21    3.10
  -5   7   6   42.10    3.10
   5  -7  -6   50.65    4.08
   5  -7  -6   55.10    4.05
   5  -7  -6   53.27    2.35
  -4   7   6   13.17    1.69
  -4   7   6   13.74    2.04
   4  -7  -6   12.32    1.16
   4  -7  -6   16.54    2.51
   4  -7  -6   10.25    2.14
  -3   7   6   79.29    4.93
  -3   7   6   93.45    4.33
  -3   7   6   88.87    3.93
   3  -7  -6   86.08    4.82
   3  -7  -6   91.77    3.64
   3  -7  -6   88.59    5.03
   3  -7  -6   87.78    3.82
  -2   7   6   27.11    2.32
  -2   7   6   26.51    1.69
  -2   7   6   25.18    2.85
   2  -7  -6   27.42    1.62
   2  -7  -6   29.36    3.14
   2  -7  -6   28.80    1.70
   2  -7  -6   25.91    2.84
  -1   7   6   31.60    1.75
  -1   7   6   33.07    2.93
  -1   7   6   30.91    2.65
  -1   7   6   33.84    2.45
   1  -7  -6   34.04    1.68
   1  -7  -6   31.66    1.85
   0   7   6   54.56    3.69
   0   7   6   58.51    3.39
   0   7   6   65.24    3.41
   0  -7  -6   57.37    2.85
   1   7   6    1.16    1.17
   1   7   6    2.38    1.11
   1   7   6    0.71    1.66
  -1  -7  -6    1.15    0.74
   2   7   6   43.77    3.05
   2   7   6   50.16    3.32
  -2  -7  -6   44.10    2.77
   3   7   6    2.86    1.68
   3   7   6    2.69    1.80
  -3  -7  -6    2.65    1.39
  -7   7   7    2.16    1.78
  -7   7   7    1.04    1.55
   7  -7  -7   -0.99    3.29
   7  -7  -7    3.17    2.33
   7  -7  -7   -0.26    0.78
  -6   7   7   17.86    2.34
  -6   7   7   16.73    2.12
   6  -7  -7   19.42    3.46
   6  -7  -7   20.15    3.55
   6  -7  -7   16.42    1.39
  -5   7   7   16.40    2.06
  -5   7   7   15.40    2.18
   5  -7  -7   10.39    2.53
   5  -7  -7   14.37    1.24
   5  -7  -7   14.06    2.55
  -4   7   7   16.89    1.89
  -4   7   7   16.91    2.12
   4  -7  -7   19.85    3.24
   4  -7  -7   16.04    2.83
   4  -7  -7   14.44    1.26
  -3   7   7   45.66    2.61
  -3   7   7   44.77    3.00
  -3   7   7   46.91    4.07
   3  -7  -7   47.29    3.77
   3  -7  -7   43.11    2.50
   3  -7  -7   48.54    3.89
   3  -7  -7   46.79    2.26
  -2   7   7    4.91    1.43
  -2   7   7    4.59    1.53
  -2   7   7    1.79    1.86
  -2   7   7    3.53    0.97
   2  -7  -7    4.51    0.96
   2  -7  -7    3.75    0.70
  -1   7   7   57.10    4.19
  -1   7   7   65.51    3.66
  -1   7   7   62.62    2.98
  -1   7   7   69.97    3.59
   1  -7  -7   60.56    2.75
   1  -7  -7   63.71    2.98
   0   7   7   16.15    2.21
   0   7   7   13.89    2.08
   0   7   7   15.86    2.45
   0  -7  -7   14.54    1.49
   1   7   7   29.44    2.65
   1   7   7   34.53    2.90
  -1  -7  -7   30.42    2.13
   2   7   7   22.59    2.83
   2   7   7   23.02    2.93
  -2  -7  -7   24.90    2.25
   3   7   7    5.46    2.01
   3   7   7    4.60    2.05
  -3  -7  -7    1.72    1.80
  -7   7   8    5.99    1.91
  -7   7   8    5.45    1.89
   7  -7  -8   10.31    2.85
   7  -7  -8    7.07    3.38
   7  -7  -8    7.83    1.04
  -6   7   8   22.62    2.74
  -6   7   8   21.50    2.59
   6  -7  -8   21.27    3.69
   6  -7  -8   26.21    1.66
   6  -7  -8   23.39    3.29
  -5   7   8    1.17    1.32
  -5   7   8    2.27    1.54
   5  -7  -8    2.98    2.49
   5  -7  -8    4.01    2.25
   5  -7  -8    2.14    0.66
  -4   7   8   40.37    2.97
  -4   7   8   40.52    2.99
  -4   7   8   36.11    5.20
   4  -7  -8   54.69    4.67
   4  -7  -8   41.79    4.17
   4  -7  -8   41.21    2.16
  -3   7   8    2.77    1.23
  -3   7   8    2.05    1.39
  -3   7   8    6.05    2.78
   3  -7  -8    4.77    2.18
   3  -7  -8    4.48    2.70
   3  -7  -8    2.47    0.67
   3  -7  -8    2.27    1.00
  -2   7   8   43.77    4.55
  -2   7   8   41.74    2.96
  -2   7   8   46.94    2.73
  -2   7   8   49.00    3.25
   2  -7  -8   43.92    2.41
   2  -7  -8   45.25    2.37
  -1   7   8   29.15    2.30
  -1   7   8   33.00    2.66
  -1   7   8   34.56    4.11
  -1   7   8   33.37    2.73
   1  -7  -8   31.50    1.96
   0   7   8    5.06    1.58
   0   7   8    3.03    1.38
   0  -7  -8    4.06    0.88
   1   7   8   35.38    3.13
   1   7   8   37.10    3.14
  -1  -7  -8   37.19    2.44
   2   7   8   -0.16    1.77
   2   7   8    0.72    1.85
  -2  -7  -8   -0.79    1.30
  -7   7   9    8.70    2.17
  -7   7   9    6.98    2.16
   7  -7  -9   13.11    3.81
   7  -7  -9   13.07    3.26
  -6   7   9    4.84    1.79
  -6   7   9    7.39    2.04
   6  -7  -9    8.17    3.39
   6  -7  -9    6.82    2.69
   6  -7  -9    6.48    0.93
  -5   7   9   17.32    2.21
  -5   7   9   20.57    2.67
   5  -7  -9   21.12    1.56
   5  -7  -9   27.02    3.98
   5  -7  -9   25.53    3.55
  -4   7   9   18.43    2.51
  -4   7   9   24.31    2.74
   4  -7  -9   18.75    1.53
   4  -7  -9   20.58    3.70
   4  -7  -9   25.37    3.50
  -3   7   9    3.92    1.66
  -3   7   9    3.23    1.45
  -3   7   9    1.10    3.19
  -3   7   9    3.82    1.56
   3  -7  -9    3.58    0.81
  -2   7   9   32.98    2.80
  -2   7   9   39.94    3.04
  -2   7   9   37.98    2.87
   2  -7  -9   36.17    2.15
  -1   7   9    0.55    1.29
  -1   7   9    0.59    1.33
  -1   7   9   -0.50    1.49
   1  -7  -9    1.20    0.70
   0   7   9   34.88    2.96
   0   7   9   27.20    2.90
   0  -7  -9   27.99    2.19
   1   7   9    4.26    1.77
   1   7   9    2.29    1.75
  -1  -7  -9    4.40    1.33
  -6   7  10    0.23    2.13
  -6   7  10    3.83    2.28
   6  -7 -10    6.94    3.31
   6  -7 -10    0.53    3.48
   6  -7 -10    2.25    0.86
  -5   7  10   26.66    3.01
  -5   7  10   30.25    3.47
   5  -7 -10   29.09    1.94
   5  -7 -10   33.84    4.82
   5  -7 -10   23.22    3.75
  -4   7  10    1.28    1.68
  -4   7  10   -1.06    1.61
   4  -7 -10   -0.58    0.69
   4  -7 -10    2.05    2.63
   4  -7 -10    7.01    3.43
  -3   7  10   28.49    2.88
  -3   7  10   28.45    3.49
  -3   7  10   27.00    3.00
   3  -7 -10   29.08    1.95
  -2   7  10   10.30    1.88
  -2   7  10   11.41    1.84
  -2   7  10   12.28    2.03
   2  -7 -10   10.03    1.37
  -1   7  10   26.04    2.79
  -1   7  10   24.41    2.82
   1  -7 -10   26.38    2.23
   0   7  10   16.84    2.30
   0   7  10   13.62    2.15
   0  -7 -10   16.30    2.16
  -5   7  11    2.37    1.87
  -5   7  11   -0.25    2.12
   5  -7 -11    2.56    1.00
   5  -7 -11    9.07    4.10
   5  -7 -11    2.24    3.06
  -4   7  11   18.08    2.63
  -4   7  11   15.22    2.49
  -4   7  11   17.97    2.98
   4  -7 -11   16.38    1.94
  -3   7  11   18.51    2.72
  -3   7  11   18.53    3.00
  -3   7  11   20.32    2.53
   3  -7 -11   16.55    1.96
  -2   7  11    6.41    1.78
  -2   7  11    1.54    2.70
  -2   7  11    2.71    1.74
   2  -7 -11    3.61    1.33
  -1   7  11   21.34    3.30
  -1   7  11   31.27    3.32
   1  -7 -11   27.46    2.62
  -1   8 -12   -0.27    1.91
  -1   8 -12   -0.54    0.98
   1  -8  12    2.26    2.53
   1  -8  12    1.61    3.55
   0   8 -12    9.53    1.22
   0  -8  12    8.22    2.45
   0  -8  12   15.17    3.71
   1   8 -12    3.23    0.93
  -1  -8  12    5.61    2.52
  -1  -8  12   13.57    3.67
   2   8 -12    9.36    1.41
  -2  -8  12    6.35    3.67
  -3   8 -11    5.55    2.51
   3  -8  11    4.42    3.99
   3  -8  11   -0.41    2.83
  -2   8 -11    5.98    2.06
  -2   8 -11    3.69    1.02
   2  -8  11    8.29    3.40
   2  -8  11    4.90    2.63
  -1   8 -11    6.74    0.97
  -1   8 -11    9.62    1.88
   1  -8  11    5.50    2.41
   1  -8  11    9.06    3.03
   0   8 -11   12.27    1.41
   0  -8  11    9.20    2.34
   0  -8  11   19.57    3.51
   1   8 -11    1.16    0.75
  -1  -8  11    4.43    3.13
  -1  -8  11    2.46    2.14
   2   8 -11   28.46    1.94
  -2  -8  11   20.93    3.58
   3   8 -11   -0.63    1.07
  -3  -8  11   -0.91    3.17
  -4   8 -10   -1.09    2.21
   4  -8  10    7.67    4.22
   4  -8  10    0.18    2.92
  -3   8 -10   14.09    2.43
   3  -8  10   11.47    3.44
   3  -8  10    7.22    2.68
  -2   8 -10    2.60    1.61
  -2   8 -10    0.03    0.82
   2  -8  10   -1.67    1.93
   2  -8  10    1.36    2.85
  -1   8 -10   16.03    1.40
  -1   8 -10   17.16    2.51
   1  -8  10   13.81    2.35
   0   8 -10    2.16    0.67
   0  -8  10    4.44    2.66
   0  -8  10    0.20    1.80
   1   8 -10   29.76    1.81
  -1  -8  10   31.16    3.28
  -1  -8  10   35.29    4.33
   2   8 -10   11.27    1.34
  -2  -8  10   10.90    2.97
  -2  -8  10   11.49    2.00
   3   8 -10   14.78    1.67
  -3  -8  10    9.75    3.01
   4   8 -10   20.68    2.14
  -4  -8  10   17.70    2.82
  -4  -8  10   23.55    3.83
  -4   8  -9    5.84    2.11
   4  -8   9   10.88    2.51
   4  -8   9    8.71    3.66
  -3   8  -9    2.46    1.75
   3  -8   9    1.62    2.11
   3  -8   9   -1.54    2.75
  -2   8  -9   16.38    1.37
  -2   8  -9   18.56    2.43
   2  -8   9   14.40    2.33
  -1   8  -9   10.06    1.67
  -1   8  -9    5.95    0.79
   1  -8   9    6.04    1.86
   0   8  -9    8.58    1.09
   0  -8   9    9.65    2.10
   0  -8   9    4.85    2.36
   1   8  -9   39.74    2.02
  -1  -8   9   40.10    3.18
  -1  -8   9   37.09    4.13
   2   8  -9    5.65    0.79
   2   8  -9    4.18    0.93
  -2  -8   9    9.66    1.77
  -2  -8   9    5.34    2.46
  -2  -8   9    4.10    1.30
   3   8  -9   36.20    2.33
  -3  -8   9   36.36    3.07
  -3  -8   9   28.53    4.51
   4   8  -9    3.09    1.72
  -4  -8   9    7.98    3.13
  -4  -8   9    2.58    2.23
  -5   8  -8    6.00    2.37
   5  -8   8    5.84    3.18
   5  -8   8   10.49    4.05
   5  -8   8    4.60    2.85
  -4   8  -8    4.72    1.65
   4  -8   8    3.20    2.98
   4  -8   8    4.69    2.52
   4  -8   8    3.31    2.27
  -3   8  -8    4.32    1.58
   3  -8   8    3.38    2.02
   3  -8   8    7.18    2.08
   3  -8   8    2.71    2.32
  -2   8  -8   16.75    1.29
  -2   8  -8   16.76    1.79
  -2   8  -8   16.36    2.17
   2  -8   8   20.72    2.82
   2  -8   8   20.69    3.08
  -1   8  -8    1.45    0.88
  -1   8  -8    1.67    0.56
  -1   8  -8    4.30    1.25
  -1   8  -8    1.18    0.90
   1  -8   8    2.09    1.76
   0   8  -8   43.99    2.08
   0   8  -8   43.93    2.18
   0   8  -8   45.97    2.39
   0  -8   8   41.79    4.06
   0  -8   8   47.05    3.26
   1   8  -8    4.51    1.14
   1   8  -8    2.21    0.79
   1   8  -8    3.63    1.17
  -1  -8   8    1.49    1.98
  -1  -8   8    5.46    1.49
  -1  -8   8    1.97    1.16
   2   8  -8   41.03    2.12
   2   8  -8   39.18    2.26
   2   8  -8   38.27    2.61
   2   8  -8   36.20    2.97
  -2  -8   8   37.15    4.01
  -2  -8   8   38.41    2.88
   3   8  -8   18.63    1.89
  -3  -8   8   13.44    3.03
  -3  -8   8   16.11    2.04
   4   8  -8   12.46    1.78
  -4  -8   8   14.27    3.01
  -4  -8   8   10.31    2.15
  -6   8  -7   -0.32    2.41
   6  -8   7   -0.73    3.25
   6  -8   7    5.93    4.48
  -5   8  -7    7.13    2.25
   5  -8   7    7.45    2.94
   5  -8   7   13.34    3.01
   5  -8   7   12.19    3.66
  -4   8  -7    1.07    1.43
   4  -8   7    0.06    1.89
   4  -8   7   -1.96    2.34
   4  -8   7   -1.04    2.19
  -3   8  -7   23.81    2.15
  -3   8  -7   22.57    2.34
   3  -8   7   25.56    3.21
   3  -8   7   23.81    3.51
   3  -8   7   26.72    3.19
  -2   8  -7    2.03    0.51
  -2   8  -7    2.78    1.14
  -2   8  -7    2.66    0.97
   2  -8   7   -0.04    1.63
   2  -8   7    0.00    1.50
  -1   8  -7   30.90    1.59
  -1   8  -7   33.49    2.46
  -1   8  -7   30.63    1.96
  -1   8  -7   31.13    2.06
   1  -8   7   34.21    2.93
   0   8  -7   25.28    1.92
   0   8  -7   27.98    1.70
   0   8  -7   29.37    2.38
   0  -8   7   26.15    3.32
   0  -8   7   25.79    2.36
   0  -8   7   26.33    2.56
   1   8  -7   23.56    2.09
   1   8  -7   30.22    2.30
   1   8  -7   28.01    1.87
  -1  -8   7   24.56    2.39
  -1  -8   7   37.40    3.76
  -1  -8   7   29.79    2.43
   2   8  -7   37.40    1.99
   2   8  -7   41.66    2.29
   2   8  -7   40.46    3.17
   2   8  -7   34.29    2.21
  -2  -8   7   31.07    3.83
  -2  -8   7   40.08    2.86
   3   8  -7    0.99    1.01
  -3  -8   7    0.76    2.22
  -3  -8   7   -0.91    1.22
   4   8  -7   51.45    3.23
  -4  -8   7   41.56    4.54
  -4  -8   7   46.89    3.64
   5   8  -7    7.73    1.94
  -5  -8   7    8.26    2.40
  -5  -8   7    3.82    3.23
  -6   8  -6    8.45    2.30
   6  -8   6   10.03    2.99
   6  -8   6    1.00    3.85
   6  -8   6    5.87    3.02
  -5   8  -6    1.60    1.71
   5  -8   6    3.92    2.41
   5  -8   6   -0.41    2.85
   5  -8   6    1.37    2.31
  -4   8  -6   13.44    2.12
   4  -8   6   10.93    2.49
   4  -8   6   11.43    2.31
   4  -8   6   14.57    2.56
  -3   8  -6   14.30    1.78
  -3   8  -6   17.07    2.02
   3  -8   6   15.28    2.22
   3  -8   6   17.39    2.53
  -2   8  -6   10.37    1.64
  -2   8  -6   13.41    1.65
  -2   8  -6   14.20    0.95
   2  -8   6   16.82    2.49
   2  -8   6   14.06    1.91
  -1   8  -6   44.19    2.44
  -1   8  -6   44.95    2.63
  -1   8  -6   44.25    2.47
   1  -8   6   44.03    3.16
   1  -8   6   42.09    2.81
   0   8  -6    6.50    1.17
   0   8  -6    3.91    0.91
   0   8  -6    4.33    1.16
   0  -8   6    8.50    1.83
   0  -8   6    2.08    1.17
   0  -8   6    5.42    1.34
   1   8  -6   86.07    3.87
   1   8  -6   84.17    3.61
   1   8  -6   80.58    3.71
   1   8  -6   84.21    4.16
  -1  -8   6   86.31    4.84
  -1  -8   6   86.91    4.16
   2   8  -6   -0.51    1.69
   2   8  -6    2.95    0.63
   2   8  -6    1.78    0.89
   2   8  -6    1.94    0.92
  -2  -8   6    1.40    1.68
  -2  -8   6    2.06    1.10
   3   8  -6   26.44    2.24
  -3  -8   6   23.42    3.27
  -3  -8   6   26.51    2.54
   4   8  -6   26.07    2.55
  -4  -8   6   26.57    4.23
  -4  -8   6   30.81    2.89
   5   8  -6   17.00    2.88
  -5  -8   6   15.35    2.88
  -5  -8   6   15.70    3.44
  -6   8  -5    6.77    2.04
   6  -8   5    1.32    2.57
   6  -8   5    5.75    2.80
   6  -8   5    4.89    3.46
  -5   8  -5    3.76    1.61
   5  -8   5    6.77    2.39
   5  -8   5    5.84    2.46
   5  -8   5    5.82    2.73
  -4   8  -5   18.27    2.13
   4  -8   5   15.53    2.40
   4  -8   5   15.94    2.35
   4  -8   5   15.68    2.51
  -3   8  -5   -2.03    1.02
  -3   8  -5   -0.72    1.00
   3  -8   5   -2.24    1.48
   3  -8   5    0.42    1.61
  -2   8  -5   55.78    2.92
  -2   8  -5   58.46    3.03
   2  -8   5   59.60    3.74
   2  -8   5   59.42    3.65
   2  -8   5   57.61    2.98
  -1   8  -5    8.55    2.14
  -1   8  -5    9.45    1.29
  -1   8  -5    9.89    1.30
  -1   8  -5    9.48    1.46
   1  -8   5   12.21    1.42
   1  -8   5   12.16    1.90
   0   8  -5   48.29    2.48
   0   8  -5   47.68    2.75
   0   8  -5   48.73    2.81
   0   8  -5   46.27    3.24
   0   8  -5   49.31    2.52
   0  -8   5   46.55    2.85
   0  -8   5   51.71    2.99
   1   8  -5   24.62    1.62
   1   8  -5   27.12    1.85
   1   8  -5   29.13    1.95
   1   8  -5   26.43    2.49
  -1  -8   5   26.54    2.75
  -1  -8   5   25.92    2.14
   2   8  -5   31.08    2.38
   2   8  -5   32.93    2.20
   2   8  -5   29.59    1.67
   2   8  -5   31.77    3.17
   2   8  -5   31.06    1.99
  -2  -8   5   35.08    3.01
  -2  -8   5   33.57    2.48
   3   8  -5   68.11    3.65
   3   8  -5   62.20    3.35
  -3  -8   5   69.38    3.82
  -3  -8   5   72.89    4.34
   4   8  -5    0.78    1.30
  -4  -8   5   -0.13    2.18
  -4  -8   5    0.58    1.25
   5   8  -5   47.37    3.55
  -5  -8   5   44.54    4.52
  -7   8  -4    3.83    2.14
   7  -8   4    4.56    3.00
   7  -8   4   10.71    4.27
   7  -8   4    4.77    2.98
  -6   8  -4   -0.40    1.64
   6  -8   4   -4.98    2.84
   6  -8   4   -0.18    2.31
   6  -8   4    1.97    2.30
  -5   8  -4   19.89    2.36
   5  -8   4   26.89    4.03
   5  -8   4   22.95    3.65
   5  -8   4   26.06    3.82
  -4   8  -4    4.22    1.17
   4  -8   4    4.32    1.70
   4  -8   4    5.22    1.84
   4  -8   4    4.51    1.87
  -3   8  -4   39.34    2.53
  -3   8  -4   42.95    2.47
   3  -8   4   42.73    3.39
   3  -8   4   42.01    3.20
  -2   8  -4   32.81    1.97
  -2   8  -4   29.81    3.16
  -2   8  -4   32.04    2.20
  -2   8  -4   26.64    2.58
   2  -8   4   31.49    2.62
   2  -8   4   35.96    2.21
   2  -8   4   31.96    2.96
  -1   8  -4   26.22    2.09
  -1   8  -4   25.25    2.67
  -1   8  -4   25.20    1.64
  -1   8  -4   23.04    2.18
   1  -8   4   24.19    2.08
   1  -8   4   26.04    2.47
   1  -8   4   24.58    2.15
   0   8  -4   72.15    3.35
   0   8  -4   68.62    3.65
   0   8  -4   69.71    3.13
   0   8  -4   65.85    3.68
   0   8  -4   73.74    3.51
   0   8  -4   73.45    3.20
   0  -8   4   69.64    3.47
   1   8  -4    0.11    1.35
   1   8  -4   -0.58    0.69
   1   8  -4    0.82    0.95
   1   8  -4    0.04    0.50
   1   8  -4    0.18    0.86
  -1  -8   4   -0.75    1.15
  -1  -8   4   -0.95    0.83
   2   8  -4   97.47    4.47
   2   8  -4   98.66    4.23
   2   8  -4   94.09    4.27
   2   8  -4   97.06    3.94
  -2  -8   4  100.81    4.83
  -2  -8   4  103.41    4.67
   3   8  -4   15.67    1.59
   3   8  -4   15.63    2.07
  -3  -8   4   20.05    2.12
  -3  -8   4   16.99    2.57
   4   8  -4   31.50    2.67
  -4  -8   4   32.47    3.40
  -4  -8   4   32.78    2.93
   5   8  -4   28.69    3.16
  -5  -8   4   21.56    2.86
  -7   8  -3    3.56    1.84
   7  -8   3    1.21    2.80
   7  -8   3   -4.41    3.69
   7  -8   3   -0.34    2.85
  -6   8  -3    6.46    1.74
   6  -8   3    9.77    2.93
   6  -8   3    9.19    2.32
   6  -8   3   11.33    2.35
  -5   8  -3    8.49    1.50
   5  -8   3    7.50    2.12
   5  -8   3    9.41    2.23
   5  -8   3   11.06    2.28
  -4   8  -3   11.30    1.83
   4  -8   3   12.30    2.04
   4  -8   3   15.66    2.66
   4  -8   3   15.58    2.41
  -3   8  -3   94.48    4.15
  -3   8  -3   89.74    4.30
   3  -8   3   95.80    4.84
   3  -8   3   98.11    4.89
  -2   8  -3    2.47    1.34
  -2   8  -3   -0.20    1.07
  -2   8  -3    1.81    1.10
  -2   8  -3    1.31    0.66
   2  -8   3    2.93    1.06
   2  -8   3    2.16    1.38
   2  -8   3    2.60    0.90
  -1   8  -3   69.86    3.22
  -1   8  -3   70.79    3.64
  -1   8  -3   65.03    3.79
  -1   8  -3   75.64    3.15
  -1   8  -3   70.10    3.64
   1  -8   3   77.71    4.11
   1  -8   3   70.74    3.30
   0   8  -3    5.73    1.06
   0   8  -3    5.08    1.21
   0   8  -3    5.35    0.88
   0   8  -3    5.73    1.36
   0   8  -3    6.41    0.84
   0   8  -3    6.01    1.07
   0  -8   3    3.46    0.95
   1   8  -3   67.67    3.24
   1   8  -3   62.30    3.17
   1   8  -3   66.58    3.25
   1   8  -3   65.89    2.93
   1   8  -3   65.74    3.99
  -1  -8   3   66.81    3.33
   2   8  -3   47.44    2.51
   2   8  -3   45.87    2.71
   2   8  -3   42.67    2.13
   2   8  -3   39.23    2.23
  -2  -8   3   42.30    2.71
  -2  -8   3   44.33    2.96
   3   8  -3   18.58    1.50
   3   8  -3   19.74    2.08
  -3  -8   3   23.73    2.49
  -3  -8   3   20.22    2.81
  -3  -8   3   17.29    2.11
   4   8  -3   49.53    3.25
  -4  -8   3   46.05    3.53
  -4  -8   3   49.31    3.33
   5   8  -3   -0.99    1.64
  -5  -8   3   -1.38    1.83
  -7   8  -2    1.03    1.79
   7  -8   2    1.08    2.57
   7  -8   2    1.67    2.56
   7  -8   2    1.01    3.26
  -6   8  -2    7.51    1.57
   6  -8   2    6.55    2.47
   6  -8   2    9.44    2.39
   6  -8   2    7.52    1.97
  -5   8  -2    0.03    1.11
   5  -8   2    0.81    1.69
   5  -8   2    1.62    1.83
   5  -8   2   -0.71    1.74
  -4   8  -2   56.28    3.01
   4  -8   2   57.10    3.75
   4  -8   2   57.83    3.53
   4  -8   2   56.34    3.86
  -3   8  -2   20.29    1.54
  -3   8  -2   20.42    1.98
   3  -8   2   16.99    1.50
   3  -8   2   20.68    2.22
   3  -8   2   16.98    2.36
   3  -8   2   16.10    1.44
  -2   8  -2   67.81    2.96
  -2   8  -2   62.95    3.58
  -2   8  -2   67.51    3.13
  -2   8  -2   64.24    3.42
  -2   8  -2   63.35    3.51
   2  -8   2   67.68    3.98
   2  -8   2   66.74    2.97
  -1   8  -2   28.98    2.11
  -1   8  -2   28.50    1.74
  -1   8  -2   25.14    2.22
  -1   8  -2   24.49    2.18
  -1   8  -2   28.02    1.51
   1  -8   2   25.47    1.78
   1  -8   2   26.90    2.60
   0   8  -2   33.29    2.21
   0   8  -2   34.40    2.32
   0   8  -2   33.40    1.61
   0   8  -2   30.48    1.77
   0   8  -2   30.37    2.09
   0   8  -2   30.55    2.58
   0  -8   2   30.45    2.03
   1   8  -2  156.79    5.82
   1   8  -2  160.38    6.07
   1   8  -2  166.22    6.48
   1   8  -2  143.89    7.11
   1   8  -2  147.78    6.13
   1   8  -2  162.97    6.36
  -1  -8   2  154.53    6.36
   2   8  -2    1.37    0.87
   2   8  -2    0.93    1.02
   2   8  -2    1.51    0.65
   2   8  -2    1.49    0.69
  -2  -8   2    1.08    0.86
   3   8  -2   61.61    2.60
   3   8  -2   60.21    3.03
   3   8  -2   58.82    3.42
  -3  -8   2   56.15    3.40
  -3  -8   2   58.95    3.31
  -3  -8   2   59.45    4.09
   4   8  -2   10.29    1.84
  -4  -8   2   10.03    1.76
   5   8  -2   17.21    2.42
  -5  -8   2   17.93    2.83
  -7   8  -1   14.09    2.10
  -7   8  -1   11.72    2.02
   7  -8   1   14.03    2.55
   7  -8   1    5.59    3.31
  -6   8  -1    1.22    1.33
  -6   8  -1    0.80    1.20
   6  -8   1    0.31    1.75
   6  -8   1    0.08    2.31
  -5   8  -1   16.19    1.84
  -5   8  -1   14.48    1.95
   5  -8   1   14.02    2.48
   5  -8   1   19.75    3.02
  -4   8  -1   23.82    1.91
  -4   8  -1   21.45    1.83
   4  -8   1   24.00    2.74
   4  -8   1   19.86    2.44
  -3   8  -1   27.97    1.94
  -3   8  -1   30.82    1.78
  -3   8  -1   27.29    2.22
  -3   8  -1   24.00    2.40
   3  -8   1   25.72    1.60
   3  -8   1   32.50    2.75
   3  -8   1   26.63    1.63
  -2   8  -1   64.66    3.53
  -2   8  -1   63.53    3.47
  -2   8  -1   63.49    3.51
  -2   8  -1   66.06    2.90
  -2   8  -1   71.52    3.17
   2  -8   1   66.27    3.88
   2  -8   1   63.54    2.85
  -1   8  -1   16.87    2.06
  -1   8  -1   19.49    1.79
  -1   8  -1   16.75    1.10
  -1   8  -1   14.74    1.28
  -1   8  -1   13.98    1.65
   1  -8   1   17.87    1.44
   1  -8   1   18.48    2.17
   0   8  -1  104.45    5.34
   0   8  -1  112.41    4.75
   0   8  -1  113.31    4.54
   0   8  -1  106.66    4.82
   0   8  -1  112.52    4.22
   0   8  -1  111.78    4.90
   0  -8   1  111.79    4.61
   1   8  -1   74.95    3.13
   1   8  -1   90.13    3.61
   1   8  -1   82.06    3.81
   1   8  -1   79.61    3.93
  -1  -8   1   83.07    3.78
   2   8  -1   72.93    3.33
   2   8  -1   78.52    4.02
   2   8  -1   76.48    3.58
  -2  -8   1   72.41    3.69
   3   8  -1   30.15    2.57
   3   8  -1   31.90    1.89
  -3  -8   1   28.65    4.08
  -3  -8   1   33.53    2.49
  -4  -8   1    3.23    1.24
   5   8  -1   31.58    3.23
  -5  -8   1   28.99    3.51
  -8   8   0    4.65    2.07
  -8   8   0    8.59    2.30
   8  -8   0    2.42    3.96
   8  -8   0    2.15    2.88
  -7   8   0    8.32    1.94
  -7   8   0    4.47    1.62
   7  -8   0    6.60    2.36
   7  -8   0    2.05    3.06
  -6   8   0    2.70    1.29
  -6   8   0    5.36    1.41
   6  -8   0    6.27    2.43
   6  -8   0    4.39    1.95
  -5   8   0   43.37    2.69
  -5   8   0   46.87    2.92
   5  -8   0   44.45    3.65
   5  -8   0   38.93    3.60
  -4   8   0   -0.04    0.70
  -4   8   0   -0.17    0.82
   4  -8   0    2.79    1.34
   4  -8   0   -0.04    1.23
  -3   8   0   50.01    3.13
  -3   8   0   49.47    3.24
  -3   8   0   54.90    2.56
  -3   8   0   55.70    2.81
   3  -8   0   49.51    2.43
   3  -8   0   52.47    2.33
   3  -8   0   58.46    3.50
  -2   8   0    5.57    1.22
  -2   8   0    6.02    0.94
  -2   8   0    5.14    0.75
  -2   8   0    5.96    1.42
   2  -8   0    4.60    0.76
   2  -8   0    5.05    0.78
   2  -8   0    6.01    1.42
  -1   8   0   83.16    3.78
  -1   8   0   80.39    3.95
  -1   8   0   85.35    3.31
  -1   8   0   84.28    3.66
  -1   8   0   77.43    4.33
   1  -8   0   84.39    3.54
   1  -8   0   80.36    4.46
   0   8   0   43.92    3.42
   0   8   0   47.07    2.56
   0   8   0   49.00    2.77
   0   8   0   46.08    2.00
   0   8   0   51.43    2.49
   0   8   0   51.15    2.83
   0  -8   0   50.04    2.48
   1   8   0    0.64    0.92
   1   8   0    1.61    0.68
  -1  -8   0    1.67    0.74
  -1  -8   0    1.00    0.65
   2   8   0   98.74    4.31
   2   8   0  105.40    4.91
  -2  -8   0  103.02    4.57
  -2  -8   0  101.97    5.59
  -2  -8   0   97.17    4.19
   3   8   0    0.84    0.86
   3   8   0   -0.97    1.09
  -3  -8   0    0.01    0.84
  -3  -8   0   -0.81    2.28
  -3  -8   0    0.86    1.04
   4   8   0   37.27    3.21
   4   8   0   32.09    2.23
  -4  -8   0   40.20    3.02
   5   8   0   12.23    2.17
  -5  -8   0    8.98    2.44
  -8   8   1    8.77    2.22
  -8   8   1    4.36    2.10
   8  -8  -1    2.57    3.90
   8  -8  -1    8.22    2.85
  -7   8   1   -0.08    1.48
  -7   8   1    0.36    1.67
   7  -8  -1   -2.66    2.86
   7  -8  -1   -2.64    2.06
  -6   8   1   33.07    2.63
  -6   8   1   27.10    2.36
   6  -8  -1   28.57    3.32
   6  -8  -1   23.99    3.33
  -5   8   1   26.29    2.34
  -5   8   1   27.36    2.28
   5  -8  -1   23.43    3.48
   5  -8  -1   28.45    3.19
  -4   8   1   29.76    1.94
  -4   8   1   28.42    2.06
   4  -8  -1   32.63    2.95
   4  -8  -1   27.49    1.53
   4  -8  -1   29.84    2.74
  -3   8   1   40.25    2.97
  -3   8   1   47.27    2.50
  -3   8   1   46.90    2.29
  -3   8   1   40.91    2.99
   3  -8  -1   47.35    2.21
   3  -8  -1   46.65    2.09
   3  -8  -1   49.41    3.39
   3  -8  -1   45.30    2.71
  -2   8   1   12.46    1.30
  -2   8   1   14.23    2.04
  -2   8   1   14.65    1.08
  -2   8   1   12.12    1.85
   2  -8  -1   12.58    1.01
   2  -8  -1   15.76    1.19
   2  -8  -1   12.71    2.25
  -1   8   1  104.40    4.30
  -1   8   1   99.50    4.26
  -1   8   1  100.15    3.84
  -1   8   1   93.32    4.98
   1  -8  -1   99.98    4.07
   1  -8  -1   98.45    4.22
   0   8   1    3.99    1.06
   0   8   1    3.41    0.85
   0   8   1    4.03    0.51
   0  -8  -1    3.22    0.79
   0  -8  -1    4.32    0.94
   1   8   1  122.40    5.11
   1   8   1  122.43    5.48
  -1  -8  -1  123.35    6.09
  -1  -8  -1  120.01    5.02
  -1  -8  -1  125.26    5.14
   2   8   1   31.62    2.53
   2   8   1   28.19    1.96
  -2  -8  -1   21.18    3.05
  -2  -8  -1   30.11    2.15
  -2  -8  -1   27.71    1.91
   3   8   1   37.83    2.86
   3   8   1   32.67    2.23
  -3  -8  -1   31.94    2.13
  -3  -8  -1   32.90    2.54
   4   8   1   34.29    3.18
   4   8   1   25.09    2.27
  -4  -8  -1   32.13    2.76
  -8   8   2    1.77    2.07
  -8   8   2    0.46    1.77
   8  -8  -2   -1.55    4.04
   8  -8  -2    3.02    2.83
  -7   8   2   13.20    1.97
  -7   8   2   14.71    2.35
   7  -8  -2    7.81    3.24
   7  -8  -2   12.93    2.55
  -6   8   2   14.77    2.03
   6  -8  -2   12.04    2.20
   6  -8  -2   11.30    2.76
  -5   8   2    5.15    1.24
  -5   8   2    5.23    1.22
   5  -8  -2    4.48    0.65
   5  -8  -2    3.54    1.70
   5  -8  -2    9.97    2.26
  -4   8   2   48.00    2.64
  -4   8   2   52.53    2.82
   4  -8  -2   50.24    2.22
   4  -8  -2   52.33    3.74
  -3   8   2   -0.34    0.71
  -3   8   2   -0.65    0.55
  -3   8   2    0.38    1.04
  -3   8   2   -0.29    1.40
   3  -8  -2    0.58    0.54
   3  -8  -2    0.21    1.07
   3  -8  -2    0.95    1.43
   3  -8  -2    0.11    0.58
  -2   8   2  118.71    4.93
  -2   8   2  117.31    4.55
  -2   8   2  104.89    5.49
   2  -8  -2  117.95    5.86
   2  -8  -2  121.37    4.50
   2  -8  -2  117.82    5.08
   2  -8  -2  109.74    4.88
   2  -8  -2  120.75    4.58
  -1   8   2   26.74    2.87
  -1   8   2   28.40    1.87
  -1   8   2   27.82    2.21
  -1   8   2   27.90    1.36
   1  -8  -2   27.32    1.37
   1  -8  -2   27.30    1.65
   1  -8  -2   27.03    1.84
   0   8   2   68.10    3.59
   0   8   2   72.34    3.38
   0  -8  -2   71.64    3.20
   0  -8  -2   68.27    3.29
   1   8   2   75.74    4.10
   1   8   2   83.79    3.83
  -1  -8  -2   82.86    3.74
  -1  -8  -2   82.41    4.59
  -1  -8  -2   85.96    3.79
   2   8   2   18.99    1.82
   2   8   2   18.78    2.21
  -2  -8  -2   19.94    1.84
  -2  -8  -2   23.59    3.10
   3   8   2   57.59    3.51
   3   8   2   55.33    3.11
  -3  -8  -2   57.56    3.33
   4   8   2    2.35    1.74
   4   8   2   -0.71    1.43
  -4  -8  -2    1.95    1.53
  -8   8   3    2.49    1.83
  -8   8   3   -3.69    1.99
   8  -8  -3   -4.07    3.75
   8  -8  -3    0.67    2.78
  -7   8   3   18.57    2.46
  -7   8   3   15.31    2.15
   7  -8  -3   21.86    3.86
   7  -8  -3   13.82    3.36
  -6   8   3    1.11    1.16
  -6   8   3   -1.45    1.19
   6  -8  -3    2.94    2.37
   6  -8  -3    2.09    1.81
  -5   8   3   69.36    3.76
  -5   8   3   79.33    3.82
   5  -8  -3   78.39    4.83
   5  -8  -3   74.33    3.09
   5  -8  -3   78.86    4.73
  -4   8   3    9.89    1.47
  -4   8   3   15.37    1.65
   4  -8  -3   11.49    2.12
   4  -8  -3   11.78    1.21
   4  -8  -3   13.00    1.94
  -3   8   3   55.03    3.39
  -3   8   3   55.54    2.61
  -3   8   3   55.60    2.89
   3  -8  -3   53.68    3.29
   3  -8  -3   52.74    2.50
   3  -8  -3   55.83    3.98
   3  -8  -3   50.71    2.39
  -2   8   3   79.59    3.28
  -2   8   3   75.78    3.95
  -2   8   3   83.34    3.76
   2  -8  -3   77.22    3.21
   2  -8  -3   76.53    4.04
   2  -8  -3   81.03    3.34
   2  -8  -3   78.07    4.62
  -1   8   3   13.41    1.54
  -1   8   3   11.80    1.82
  -1   8   3   10.93    0.86
   1  -8  -3    8.05    0.83
   1  -8  -3   11.30    1.13
   0   8   3   73.94    3.65
   0   8   3   76.59    3.87
   0  -8  -3   72.41    3.35
   0  -8  -3   75.76    4.51
   1   8   3    4.90    1.38
   1   8   3    3.66    1.19
   1   8   3    3.91    1.07
  -1  -8  -3    1.81    0.75
  -1  -8  -3    4.93    1.92
   2   8   3   59.36    3.45
   2   8   3   53.02    3.08
  -2  -8  -3   54.81    3.05
   3   8   3   11.10    1.96
   3   8   3   10.88    1.66
  -3  -8  -3    9.80    1.57
   4   8   3   16.74    2.41
   4   8   3   16.15    2.62
  -4  -8  -3   12.41    2.35
  -8   8   4    9.84    1.96
  -8   8   4   10.95    2.05
   8  -8  -4    8.10    3.08
   8  -8  -4    9.44    4.28
  -7   8   4    2.89    1.35
  -7   8   4    1.17    1.57
   7  -8  -4    2.84    3.20
   7  -8  -4    1.11    2.16
  -6   8   4   21.29    2.29
  -6   8   4   20.94    2.24
   6  -8  -4   17.63    1.53
   6  -8  -4   25.02    3.35
   6  -8  -4   24.70    4.06
  -5   8   4   33.98    2.52
  -5   8   4   37.89    2.57
   5  -8  -4   41.19    3.62
   5  -8  -4   33.61    1.90
   5  -8  -4   32.29    3.66
  -4   8   4   22.46    2.08
  -4   8   4   22.68    1.84
   4  -8  -4   22.84    2.81
   4  -8  -4   26.19    3.27
   4  -8  -4   22.82    1.47
  -3   8   4   69.35    4.16
  -3   8   4   77.03    3.38
  -3   8   4   78.54    3.75
   3  -8  -4   78.26    3.19
   3  -8  -4   75.55    4.74
   3  -8  -4   70.60    3.24
   3  -8  -4   79.20    4.24
  -2   8   4    2.31    1.31
  -2   8   4    0.35    0.53
  -2   8   4   -0.46    0.93
   2  -8  -4    0.44    0.52
   2  -8  -4    0.15    1.41
   2  -8  -4   -0.28    0.53
   2  -8  -4    0.76    1.50
  -1   8   4   67.14    3.61
  -1   8   4   61.77    3.37
  -1   8   4   62.47    3.49
  -1   8   4   62.22    2.59
   1  -8  -4   64.62    2.55
   1  -8  -4   59.86    2.86
   0   8   4   19.02    2.28
   0   8   4   18.01    1.98
   0   8   4   18.65    2.14
   0  -8  -4   21.56    1.58
   1   8   4   29.13    2.69
   1   8   4   25.11    2.38
   1   8   4   28.59    2.42
  -1  -8  -4   26.76    1.96
   2   8   4   33.90    2.73
   2   8   4   31.64    2.56
  -2  -8  -4   36.26    2.41
   3   8   4    4.37    1.60
   3   8   4    2.62    1.50
  -3  -8  -4    2.92    1.32
  -8   8   5    2.58    2.62
   8  -8  -5    0.55    3.11
   8  -8  -5    7.05    4.12
  -7   8   5    2.24    1.43
  -7   8   5    1.56    1.59
   7  -8  -5    1.81    2.30
   7  -8  -5    1.67    3.04
  -6   8   5   18.57    2.23
  -6   8   5   15.01    2.30
   6  -8  -5   13.21    3.04
   6  -8  -5   21.09    1.57
   6  -8  -5   21.10    3.52
  -5   8   5   -0.29    1.12
  -5   8   5    1.39    1.06
   5  -8  -5   -0.49    1.68
   5  -8  -5    0.21    0.63
   5  -8  -5   -1.47    2.03
  -4   8   5   48.90    2.73
  -4   8   5   49.95    3.00
   4  -8  -5   47.76    3.78
   4  -8  -5   44.48    4.15
   4  -8  -5   46.42    2.26
  -3   8   5   10.96    1.87
  -3   8   5    7.13    1.83
  -3   8   5   11.21    1.33
   3  -8  -5   10.96    1.33
   3  -8  -5   13.17    1.19
   3  -8  -5   11.38    2.08
   3  -8  -5   13.44    2.44
  -2   8   5   43.13    3.28
  -2   8   5   36.62    2.70
  -2   8   5   39.57    2.08
   2  -8  -5   40.03    2.06
   2  -8  -5   37.87    1.95
   2  -8  -5   40.75    3.64
   2  -8  -5   41.87    3.69
  -1   8   5   60.76    3.47
  -1   8   5   55.06    2.45
  -1   8   5   51.39    3.48
  -1   8   5   57.68    3.35
   1  -8  -5   59.82    2.76
   0   8   5    8.97    1.54
   0   8   5    7.77    1.55
   0   8   5    9.72    1.77
   0  -8  -5    5.91    0.95
   1   8   5   96.33    4.63
   1   8   5   86.13    4.39
  -1  -8  -5   83.23    4.04
   2   8   5    4.19    1.40
   2   8   5    4.40    1.50
  -2  -8  -5    3.78    1.09
   3   8   5   20.75    2.79
   3   8   5   21.17    3.16
  -3  -8  -5   16.65    2.15
  -7   8   6   13.26    2.00
  -7   8   6   16.36    2.31
   7  -8  -6   18.34    1.49
   7  -8  -6   17.10    2.99
   7  -8  -6   15.97    3.70
  -6   8   6    3.79    1.33
  -6   8   6    6.08    1.49
   6  -8  -6    4.34    0.81
   6  -8  -6    4.92    2.70
   6  -8  -6    4.91    2.18
  -5   8   6   12.51    2.03
  -5   8   6   11.75    1.93
   5  -8  -6   17.92    2.93
   5  -8  -6   13.13    2.46
   5  -8  -6   12.02    1.29
  -4   8   6   24.06    3.15
  -4   8   6   26.03    2.20
  -4   8   6   28.12    2.46
   4  -8  -6   25.15    3.81
   4  -8  -6   27.24    1.63
   4  -8  -6   25.69    3.65
  -3   8   6   18.59    3.04
  -3   8   6    9.77    1.46
  -3   8   6   12.89    1.88
   3  -8  -6   13.00    2.24
   3  -8  -6   13.17    1.22
   3  -8  -6   11.85    1.42
   3  -8  -6   10.06    2.20
  -2   8   6   68.58    3.73
  -2   8   6   65.63    3.11
  -2   8   6   64.05    4.32
  -2   8   6   71.78    4.07
   2  -8  -6   69.15    3.03
   2  -8  -6   72.04    3.13
  -1   8   6    8.06    1.56
  -1   8   6    7.29    0.94
  -1   8   6    6.73    1.85
  -1   8   6    8.48    1.74
   1  -8  -6    7.07    1.07
   0   8   6   62.06    3.55
   0   8   6   55.78    3.90
   0   8   6   56.43    3.55
   0  -8  -6   57.60    2.93
   1   8   6   25.12    2.44
   1   8   6   25.81    2.78
  -1  -8  -6   23.46    1.94
   2   8   6   13.92    2.00
   2   8   6    8.60    1.75
  -2  -8  -6   11.20    1.58
   3   8   6   11.59    2.39
   3   8   6   12.82    2.16
  -3  -8  -6   14.04    2.37
  -7   8   7   10.05    1.91
   7  -8  -7   16.77    1.62
   7  -8  -7   11.55    3.71
   7  -8  -7   14.74    3.08
  -6   8   7    4.06    1.79
  -6   8   7    3.21    1.70
   6  -8  -7    5.25    0.92
   6  -8  -7    4.80    2.70
   6  -8  -7    6.74    2.55
  -5   8   7   42.38    3.09
  -5   8   7   42.45    2.99
   5  -8  -7   42.54    4.61
   5  -8  -7   42.44    2.18
   5  -8  -7   36.65    4.36
  -4   8   7    7.65    1.46
  -4   8   7    5.49    2.33
  -4   8   7    4.88    1.35
   4  -8  -7    5.97    2.19
   4  -8  -7    6.94    0.91
   4  -8  -7    8.66    2.49
  -3   8   7   41.09    3.03
  -3   8   7   43.70    2.55
  -3   8   7   41.49    4.08
   3  -8  -7   46.69    4.48
   3  -8  -7   47.64    4.63
   3  -8  -7   46.13    2.29
   3  -8  -7   38.22    2.51
  -2   8   7   10.94    1.84
  -2   8   7    8.77    1.28
  -2   8   7   10.25    2.35
  -2   8   7   12.66    1.99
   2  -8  -7    8.51    1.35
   2  -8  -7   11.36    1.32
  -1   8   7   24.88    2.54
  -1   8   7   24.98    3.76
  -1   8   7   31.09    2.64
   1  -8  -7   29.56    1.88
   0   8   7   53.78    3.42
   0   8   7   43.64    3.20
   0  -8  -7   47.85    2.67
   1   8   7    1.57    1.52
   1   8   7    3.29    1.47
  -1  -8  -7    1.52    0.95
   2   8   7   32.84    3.41
   2   8   7   28.96    3.22
  -2  -8  -7   27.39    3.14
  -7   8   8    2.00    1.92
  -7   8   8   -0.72    1.81
   7  -8  -8    2.19    3.17
   7  -8  -8    2.30    3.49
   7  -8  -8    1.89    0.90
  -6   8   8   31.77    3.02
   6  -8  -8   32.66    5.21
   6  -8  -8   29.02    1.90
   6  -8  -8   35.53    4.55
  -5   8   8    7.44    1.65
  -5   8   8    5.23    1.55
   5  -8  -8   11.00    3.22
   5  -8  -8   11.13    2.90
  -4   8   8    9.99    1.78
  -4   8   8   11.45    1.97
   4  -8  -8   10.03    2.58
   4  -8  -8   12.80    2.62
   4  -8  -8   10.65    1.28
  -3   8   8   33.17    2.77
  -3   8   8   31.88    2.55
   3  -8  -8   30.19    4.07
   3  -8  -8   29.94    4.64
   3  -8  -8   33.27    1.95
  -2   8   8   12.09    1.49
  -2   8   8    9.48    1.77
  -2   8   8   10.19    1.71
   2  -8  -8   10.11    1.30
  -1   8   8   59.00    3.56
  -1   8   8   54.70    3.58
   1  -8  -8   53.92    2.90
   0   8   8    1.66    1.48
   0   8   8    1.57    1.50
   0  -8  -8    0.65    0.80
   1   8   8   24.87    2.99
   1   8   8   25.54    3.16
  -1  -8  -8   22.98    2.57
  -6   8   9   13.48    2.39
  -6   8   9    9.54    2.02
   6  -8  -9   13.51    3.37
   6  -8  -9    8.28    3.75
   6  -8  -9   10.91    1.22
  -5   8   9    3.57    1.69
  -5   8   9    4.68    1.76
   5  -8  -9    3.02    2.66
   5  -8  -9    3.26    0.86
   5  -8  -9    6.38    3.35
  -4   8   9   19.35    2.84
  -4   8   9   22.55    2.94
   4  -8  -9   23.96    1.77
   4  -8  -9   25.04    4.10
   4  -8  -9   26.13    3.74
  -3   8   9    4.87    1.70
  -3   8   9    4.41    1.62
  -3   8   9    1.68    1.61
   3  -8  -9    1.06    0.73
  -2   8   9   31.12    2.86
  -2   8   9   33.83    2.80
  -2   8   9   34.52    3.01
   2  -8  -9   30.74    2.13
  -1   8   9   15.67    2.31
  -1   8   9   17.48    2.48
   1  -8  -9   13.65    1.78
   0   8   9    5.71    1.87
   0  -8  -9    5.99    1.40
   1   8   9   14.47    2.53
  -5   8  10   11.18    2.10
  -5   8  10   15.18    2.51
   5  -8 -10   14.01    3.98
   5  -8 -10   18.42    1.88
   5  -8 -10   19.28    3.56
  -4   8  10   10.74    2.25
  -4   8  10   14.84    2.16
   4  -8 -10   12.17    1.46
   4  -8 -10   10.71    3.05
   4  -8 -10    6.30    4.03
  -3   8  10    9.69    2.22
  -3   8  10    9.63    2.05
  -3   8  10    6.20    1.69
   3  -8 -10    7.83    1.30
  -2   8  10   30.72    3.10
  -2   8  10   30.09    3.15
   2  -8 -10   32.18    2.40
  -1   8  10   -1.25    1.65
  -1   8  10    0.28    1.71
   1  -8 -10    2.77    1.45
  -4   8  11    0.46    2.29
  -4   8  11   -1.43    2.20
  -4   8  11   -0.71    1.95
   4  -8 -11    0.58    1.28
  -3   8  11   23.57    4.37
  -3   8  11   20.03    2.71
  -3   8  11   26.39    3.39
   3  -8 -11   19.90    2.41
  -2   8  11    1.37    1.95
  -2   8  11    2.31    1.92
  -2   9 -11   12.53    2.47
   2  -9  11    9.57    2.70
   2  -9  11    2.18    3.67
  -1   9 -11    0.95    0.90
  -1   9 -11    0.47    1.79
   1  -9  11    2.29    2.50
   0   9 -11   15.26    1.57
   0   9 -11   17.11    2.21
   0  -9  11   18.99    3.63
   0  -9  11   16.71    2.78
   1   9 -11    2.03    0.86
  -1  -9  11    0.79    2.33
  -1  -9  11    3.73    3.25
   2   9 -11   11.68    1.45
  -2  -9  11   11.09    3.61
  -3   9 -10    7.67    2.24
   3  -9  10   10.94    2.69
   3  -9  10   14.67    3.63
  -2   9 -10   -0.16    1.96
  -2   9 -10    2.71    0.90
   2  -9  10    0.27    2.32
  -1   9 -10   12.43    1.30
  -1   9 -10   11.32    1.92
   1  -9  10    8.34    2.34
   0   9 -10    9.97    1.30
   0   9 -10   10.75    1.71
   0  -9  10   12.29    3.14
   0  -9  10   10.65    2.31
   1   9 -10    3.06    0.75
  -1  -9  10    1.39    2.12
  -1  -9  10    6.67    2.95
   2   9 -10   31.70    2.01
  -2  -9  10   21.58    3.76
   3   9 -10   -0.58    1.24
  -3  -9  10   -1.32    3.17
  -3  -9  10   -3.89    2.08
  -4   9  -9    4.54    2.23
   4  -9   9    4.84    2.99
   4  -9   9   -1.18    3.70
  -3   9  -9   11.67    2.03
   3  -9   9    6.57    2.59
  -2   9  -9    1.43    0.77
  -2   9  -9    2.66    1.32
  -2   9  -9    2.26    1.60
   2  -9   9    1.18    2.17
  -1   9  -9   22.56    2.57
  -1   9  -9   19.52    1.40
  -1   9  -9   17.74    1.69
   1  -9   9   22.95    3.29
   0   9  -9   -0.52    1.22
   0   9  -9    1.17    0.59
   0  -9   9    1.38    1.92
   0  -9   9    1.82    2.36
   1   9  -9   25.96    1.85
   1   9  -9   25.82    1.67
  -1  -9   9   26.62    3.25
  -1  -9   9   26.99    2.65
  -1  -9   9   28.84    4.38
   2   9  -9   15.97    1.69
   2   9  -9   12.43    1.76
  -2  -9   9   11.74    2.95
  -2  -9   9   12.56    1.87
  -3  -9   9   18.80    2.78
  -3  -9   9   18.67    3.51
  -5   9  -8    2.93    2.51
   5  -9   8    1.22    3.89
   5  -9   8    5.20    3.23
  -4   9  -8   12.19    2.01
   4  -9   8    9.74    2.64
   4  -9   8   12.67    3.06
   4  -9   8   18.02    3.30
  -3   9  -8   -0.45    1.68
   3  -9   8   -0.85    2.17
   3  -9   8    1.57    2.27
  -2   9  -8   11.77    1.19
  -2   9  -8   12.53    1.85
   2  -9   8   11.46    2.18
   2  -9   8   11.40    2.43
  -1   9  -8    3.82    0.68
  -1   9  -8    4.04    1.06
  -1   9  -8    2.67    1.31
   1  -9   8    4.83    1.80
   0   9  -8   28.65    2.94
   0   9  -8   31.20    1.99
   0   9  -8   34.31    1.77
   0   9  -8   35.17    2.54
   0  -9   8   33.31    2.77
   0  -9   8   32.05    3.13
   1   9  -8   30.83    2.73
   1   9  -8   30.82    2.03
  -1  -9   8   33.27    2.90
  -1  -9   8   28.69    3.98
   2   9  -8    2.56    0.87
   2   9  -8    2.43    1.03
  -2  -9   8    0.33    2.36
  -2  -9   8    2.97    1.44
   3   9  -8   37.49    2.79
  -3  -9   8   33.19    4.33
  -3  -9   8   34.65    3.33
   4   9  -8    0.52    1.52
  -4  -9   8    6.30    3.32
  -4  -9   8   -0.67    1.98
  -5   9  -7    4.68    2.13
   5  -9   7    4.74    2.71
   5  -9   7    3.76    3.41
   5  -9   7    6.65    3.26
  -4   9  -7    0.94    1.56
   4  -9   7    4.82    2.65
   4  -9   7    2.73    2.29
   4  -9   7   10.55    2.90
  -3   9  -7   11.07    1.79
  -3   9  -7    8.88    1.52
   3  -9   7    9.97    2.33
   3  -9   7   10.76    2.54
  -2   9  -7   17.50    2.19
  -2   9  -7   12.27    1.94
  -2   9  -7   16.15    1.17
   2  -9   7   13.55    2.17
   2  -9   7   18.75    2.93
  -1   9  -7    3.16    0.63
  -1   9  -7    5.20    1.26
  -1   9  -7    4.73    1.25
  -1   9  -7    3.71    1.14
   1  -9   7    3.71    1.85
   1  -9   7    4.66    1.45
   0   9  -7   55.00    2.94
   0   9  -7   49.53    2.91
   0   9  -7   50.10    2.63
   0  -9   7   45.43    3.08
   0  -9   7   47.62    3.44
   1   9  -7    1.87    1.53
   1   9  -7    0.12    1.23
   1   9  -7    0.71    0.96
   1   9  -7    1.58    0.85
  -1  -9   7    0.10    2.20
  -1  -9   7    0.59    1.18
   2   9  -7   45.94    2.30
   2   9  -7   43.34    2.66
  -2  -9   7   47.45    3.22
  -2  -9   7   41.24    4.28
   3   9  -7   14.61    2.16
  -3  -9   7   11.02    1.91
  -3  -9   7   12.26    2.80
   4   9  -7   27.23    2.75
  -4  -9   7   29.56    4.83
  -4  -9   7   20.84    3.13
  -6   9  -6    2.90    2.27
   6  -9   6    3.63    3.31
   6  -9   6    7.14    3.95
   6  -9   6    2.27    3.28
  -5   9  -6    6.76    2.02
   5  -9   6    9.92    3.22
   5  -9   6    9.02    2.91
   5  -9   6   11.57    3.10
  -4   9  -6    0.19    1.43
   4  -9   6    3.02    2.13
   4  -9   6    6.99    2.34
   4  -9   6    6.70    2.50
  -3   9  -6   15.72    2.26
  -3   9  -6   23.14    2.30
   3  -9   6   25.59    3.64
   3  -9   6   23.44    3.12
  -2   9  -6   -0.21    0.49
  -2   9  -6    0.43    1.09
  -2   9  -6    1.05    1.18
   2  -9   6   -1.55    1.57
   2  -9   6    0.30    1.68
  -1   9  -6   43.97    2.78
  -1   9  -6   39.12    2.63
  -1   9  -6   40.45    2.69
   1  -9   6   44.54    2.93
   1  -9   6   45.30    3.41
   0   9  -6   24.11    1.87
   0   9  -6   22.47    2.01
   0   9  -6   19.21    2.21
   0   9  -6   20.55    2.46
   0  -9   6   22.48    2.35
   1   9  -6   36.80    2.35
   1   9  -6   37.59    2.14
   1   9  -6   37.00    3.16
   1   9  -6   36.03    2.51
  -1  -9   6   36.25    3.50
  -1  -9   6   37.83    2.80
   2   9  -6   37.61    2.01
   2   9  -6   36.64    2.50
   2   9  -6   34.04    2.39
  -2  -9   6   37.87    2.83
  -2  -9   6   39.63    3.72
   3   9  -6    3.58    1.31
  -3  -9   6    2.34    2.45
  -3  -9   6    4.03    1.44
   4   9  -6   47.94    3.41
  -4  -9   6   43.45    4.83
  -4  -9   6   47.79    4.05
  -6   9  -5    8.32    2.19
   6  -9   5    9.30    3.24
   6  -9   5    6.22    3.03
   6  -9   5    3.97    3.59
  -5   9  -5    2.30    1.65
   5  -9   5   -1.47    2.65
   5  -9   5    2.69    2.36
   5  -9   5    0.13    2.43
  -4   9  -5   25.17    2.47
   4  -9   5   26.28    4.17
   4  -9   5   27.84    3.62
   4  -9   5   27.94    3.52
  -3   9  -5    3.17    1.33
  -3   9  -5    5.73    1.37
   3  -9   5    2.77    1.79
   3  -9   5    2.05    1.91
  -2   9  -5   22.82    2.19
  -2   9  -5   27.41    2.18
   2  -9   5   29.55    2.99
   2  -9   5   29.97    3.04
   2  -9   5   28.05    2.45
  -1   9  -5   44.79    2.56
  -1   9  -5   48.01    2.78
  -1   9  -5   39.93    2.70
   1  -9   5   42.03    2.90
   1  -9   5   46.38    3.21
   0   9  -5    2.37    0.91
   0   9  -5    1.39    0.83
   0   9  -5    2.31    1.30
   0   9  -5   -0.05    1.58
   0   9  -5    0.71    0.74
   0   9  -5    1.64    1.26
   0  -9   5   -0.40    1.08
   1   9  -5   45.31    2.30
   1   9  -5   42.85    2.66
   1   9  -5   43.58    2.56
   1   9  -5   36.78    3.06
   1   9  -5   40.22    3.53
  -1  -9   5   46.40    2.87
  -1  -9   5   38.92    3.32
   2   9  -5    0.10    0.64
   2   9  -5   -1.23    1.01
   2   9  -5    1.87    1.42
   2   9  -5   -0.13    1.08
  -2  -9   5    0.12    0.97
  -2  -9   5    1.76    1.80
   3   9  -5   42.39    2.96
  -3  -9   5   47.82    3.21
  -3  -9   5   39.78    3.83
   4   9  -5   10.63    1.77
  -4  -9   5   10.92    2.06
  -4  -9   5   14.04    2.85
  -6   9  -4    0.82    1.75
   6  -9   4    1.03    3.20
   6  -9   4    4.61    2.85
   6  -9   4    3.19    2.79
  -5   9  -4    7.78    1.67
   5  -9   4    2.96    2.23
   5  -9   4    3.41    2.30
   5  -9   4    4.27    2.24
  -4   9  -4   30.79    2.54
   4  -9   4   32.83    4.12
   4  -9   4   33.70    3.29
   4  -9   4   29.75    3.51
  -3   9  -4    7.29    1.47
  -3   9  -4    5.29    1.54
   3  -9   4    6.76    1.95
   3  -9   4    6.64    1.85
  -2   9  -4   43.79    2.97
  -2   9  -4   44.98    2.55
   2  -9   4   49.72    3.71
   2  -9   4   38.52    2.75
   2  -9   4   47.54    3.39
  -1   9  -4    1.75    0.77
  -1   9  -4    2.06    1.36
  -1   9  -4    0.59    0.89
  -1   9  -4    1.91    0.79
  -1   9  -4    0.85    1.72
  -1   9  -4    1.52    1.27
   1  -9   4    0.46    0.94
   0   9  -4   74.89    3.32
   0   9  -4   73.67    3.81
   0   9  -4   78.39    4.13
   0   9  -4   76.56    3.65
   0   9  -4   68.99    4.01
   0   9  -4   77.97    3.45
   0  -9   4   77.44    3.72
   1   9  -4   20.94    2.02
   1   9  -4   19.11    1.46
   1   9  -4   14.36    2.01
   1   9  -4   19.03    1.44
   1   9  -4   16.22    1.81
  -1  -9   4   18.52    1.94
   2   9  -4   24.49    2.00
   2   9  -4   23.40    1.62
   2   9  -4   21.81    2.31
   2   9  -4   26.38    2.13
  -2  -9   4   27.20    2.79
  -2  -9   4   25.38    2.32
   3   9  -4   35.20    2.62
  -3  -9   4   31.52    2.74
  -3  -9   4   30.47    3.32
   4   9  -4    4.06    1.58
  -4  -9   4    3.53    2.01
  -7   9  -3    2.94    2.04
   7  -9   3    2.38    3.70
   7  -9   3    4.48    3.20
   7  -9   3    5.17    2.94
  -6   9  -3    1.57    1.66
   6  -9   3    7.53    2.94
   6  -9   3    2.46    2.49
   6  -9   3    1.88    2.39
  -5   9  -3   17.10    2.30
   5  -9   3   16.25    2.75
   5  -9   3   13.93    2.55
   5  -9   3   14.86    2.60
  -4   9  -3    1.02    1.11
   4  -9   3    2.56    2.04
   4  -9   3    2.74    1.62
   4  -9   3    1.64    1.76
  -3   9  -3   47.45    2.72
   3  -9   3   47.07    3.95
   3  -9   3   44.00    2.54
   3  -9   3   51.59    3.61
  -2   9  -3    6.36    1.98
  -2   9  -3    7.55    1.16
  -2   9  -3    5.56    1.48
  -2   9  -3    7.35    1.08
   2  -9   3    6.82    1.23
   2  -9   3    8.20    1.79
  -1   9  -3   19.81    2.42
  -1   9  -3   21.98    1.99
  -1   9  -3   22.02    2.47
  -1   9  -3   20.36    1.66
  -1   9  -3   19.75    2.57
  -1   9  -3   21.93    1.47
   1  -9   3   21.10    1.93
   0   9  -3  133.79    5.64
   0   9  -3  121.79    5.64
   0   9  -3  134.69    5.27
   0   9  -3  125.41    5.08
   0   9  -3  135.74    5.56
   0   9  -3  121.56    6.08
   0  -9   3  129.59    5.46
   1   9  -3   12.33    1.68
   1   9  -3    9.65    1.39
   1   9  -3    7.18    1.08
   1   9  -3    8.10    1.05
   1   9  -3   10.26    1.66
  -1  -9   3    8.24    1.33
   2   9  -3   78.55    4.03
   2   9  -3   71.35    3.31
   2   9  -3   78.88    3.70
   2   9  -3   72.14    3.33
  -2  -9   3   70.99    3.93
   3   9  -3    6.99    1.62
  -3  -9   3    4.66    1.29
  -3  -9   3    3.88    1.78
   4   9  -3   29.66    2.94
  -4  -9   3   29.04    3.39
  -7   9  -2    0.01    1.90
  -7   9  -2    0.68    1.82
   7  -9   2    2.69    2.75
  -6   9  -2   17.85    2.45
  -6   9  -2   20.05    2.58
   6  -9   2   15.37    2.77
   6  -9   2   17.03    2.94
   6  -9   2   15.37    2.89
  -5   9  -2    6.63    1.49
  -5   9  -2    7.41    1.61
   5  -9   2    6.83    2.29
   5  -9   2    6.08    2.12
   5  -9   2    6.43    2.28
  -4   9  -2   13.46    1.85
  -4   9  -2   14.06    1.98
   4  -9   2   19.98    3.45
   4  -9   2   15.99    2.69
  -3   9  -2   45.60    2.69
  -3   9  -2   45.81    2.50
   3  -9   2   48.38    3.78
   3  -9   2   38.00    2.39
  -2   9  -2   15.60    2.03
  -2   9  -2   11.45    1.79
  -2   9  -2    9.54    1.46
  -2   9  -2   12.04    1.25
   2  -9   2    8.25    1.96
   2  -9   2   13.05    1.66
  -1   9  -2   52.31    2.66
  -1   9  -2   54.91    3.02
  -1   9  -2   51.67    2.39
  -1   9  -2   51.65    3.20
  -1   9  -2   49.78    3.18
  -1   9  -2   44.63    3.35
   1  -9   2   52.20    2.77
   0   9  -2   22.15    2.18
   0   9  -2   27.16    1.71
   0   9  -2   28.70    2.30
   0   9  -2   21.77    1.39
   0   9  -2   25.99    2.12
   0  -9   2   22.36    1.92
   1   9  -2  111.30    5.08
   1   9  -2  114.14    4.31
   1   9  -2  116.09    4.98
   1   9  -2  110.03    4.63
   1   9  -2  106.84    4.63
  -1  -9   2  108.67    4.92
   2   9  -2   31.00    2.36
   2   9  -2   31.39    1.55
   2   9  -2   32.57    2.64
   2   9  -2   29.94    1.96
   2   9  -2   34.56    1.81
  -2  -9   2   34.89    2.53
   3   9  -2   17.35    2.24
  -3  -9   2   23.09    2.33
   4   9  -2   33.55    3.15
  -4  -9   2   36.36    3.57
  -7   9  -1    4.26    1.87
  -7   9  -1    7.57    2.07
   7  -9   1    5.13    2.75
   7  -9   1   -0.41    3.21
  -6   9  -1   21.60    2.44
  -6   9  -1   31.16    2.74
   6  -9   1   24.40    3.73
   6  -9   1   29.40    4.30
  -5   9  -1    2.26    1.07
  -5   9  -1    1.76    1.13
   5  -9   1   -0.38    1.85
   5  -9   1    2.94    1.99
  -4   9  -1   48.77    2.86
  -4   9  -1   49.28    3.04
   4  -9   1   49.61    3.46
   4  -9   1   54.73    4.19
  -3   9  -1    2.18    0.86
  -3   9  -1    1.86    0.79
   3  -9   1    1.85    0.78
   3  -9   1    2.20    0.89
   3  -9   1    4.38    1.70
  -2   9  -1   50.14    2.50
  -2   9  -1   51.93    2.77
  -2   9  -1   49.77    3.13
   2  -9   1   50.33    2.61
   2  -9   1   58.07    3.83
  -1   9  -1   10.96    1.02
  -1   9  -1   12.93    1.31
  -1   9  -1   12.36    1.66
  -1   9  -1   10.85    1.73
  -1   9  -1    6.95    1.71
  -1   9  -1   14.70    1.87
   1  -9   1   10.49    1.25
   0   9  -1   70.12    3.36
   0   9  -1   61.91    2.65
   0   9  -1   64.97    3.48
   0   9  -1   61.22    3.44
   0   9  -1   63.53    3.04
   0  -9   1   64.82    3.18
   1   9  -1   79.23    3.52
   1   9  -1   83.08    4.04
   1   9  -1   83.01    3.25
   1   9  -1   90.34    3.82
   1   9  -1   83.30    4.26
  -1  -9   1   86.10    3.99
   2   9  -1   10.96    1.85
   2   9  -1    8.14    1.40
   2   9  -1    9.44    1.22
  -2  -9   1    8.95    1.42
   3   9  -1   49.68    3.39
   3   9  -1   55.72    2.75
  -3  -9   1   52.82    3.37
   4   9  -1    8.08    1.79
  -4  -9   1    3.86    1.74
  -7   9   0   12.23    2.15
  -7   9   0    9.28    2.04
   7  -9   0   15.98    2.77
   7  -9   0   15.25    3.37
  -6   9   0    1.66    1.37
  -6   9   0    1.10    1.32
   6  -9   0    1.72    1.96
   6  -9   0    0.70    2.47
  -5   9   0   24.84    2.23
  -5   9   0   29.76    2.40
   5  -9   0   25.33    3.43
   5  -9   0   29.63    3.51
  -4   9   0   13.09    1.64
  -4   9   0   16.19    1.97
   4  -9   0   14.95    1.46
   4  -9   0   13.52    2.21
   4  -9   0   19.44    3.15
  -3   9   0   24.81    1.65
  -3   9   0   24.08    1.92
   3  -9   0   20.54    1.49
   3  -9   0   23.12    1.63
   3  -9   0   21.71    3.20
  -2   9   0   54.05    3.09
  -2   9   0   53.23    2.51
  -2   9   0   54.38    2.82
   2  -9   0   51.14    2.61
   2  -9   0   55.04    3.92
  -1   9   0    8.62    0.89
  -1   9   0    7.38    1.14
  -1   9   0   10.80    1.58
  -1   9   0   10.74    1.66
  -1   9   0    8.59    1.72
   1  -9   0    7.37    1.05
   0   9   0  144.21    5.80
   0   9   0  148.08    5.91
   0   9   0  148.15    6.27
   0   9   0  139.21    5.32
   0   9   0  135.28    6.19
   0  -9   0  150.38    5.88
   1   9   0    0.84    0.78
   1   9   0    2.08    1.15
  -1  -9   0    1.97    0.87
   2   9   0   47.15    3.27
   2   9   0   46.06    2.59
  -2  -9   0   43.96    4.10
  -2  -9   0   49.29    2.89
  -2  -9   0   42.56    2.47
   3   9   0   17.22    1.79
   3   9   0   17.47    2.49
  -3  -9   0   21.06    2.31
   4   9   0   10.29    1.98
  -4  -9   0    6.83    1.90
  -7   9   1    5.05    1.75
  -7   9   1    4.07    1.73
   7  -9  -1    1.94    3.27
   7  -9  -1    7.98    2.61
  -6   9   1   15.87    2.40
  -6   9   1   17.10    2.35
   6  -9  -1   15.04    2.81
   6  -9  -1   16.95    2.76
  -5   9   1   21.82    2.09
  -5   9   1   24.07    2.27
   5  -9  -1   24.37    3.46
   5  -9  -1   20.80    3.15
  -4   9   1    4.83    1.25
  -4   9   1    6.72    1.20
   4  -9  -1    4.88    0.82
   4  -9  -1    4.05    1.88
   4  -9  -1    5.51    1.75
  -3   9   1   61.48    3.13
  -3   9   1   58.02    2.78
   3  -9  -1   59.38    4.50
   3  -9  -1   56.29    2.69
   3  -9  -1   59.26    2.68
  -2   9   1    6.49    0.95
  -2   9   1    8.15    1.30
   2  -9  -1    4.00    1.74
   2  -9  -1    7.33    0.99
   2  -9  -1    6.82    0.88
  -1   9   1   75.18    3.56
  -1   9   1   77.35    4.05
  -1   9   1   76.67    3.56
  -1   9   1   69.39    2.98
   1  -9  -1   71.75    3.28
   0   9   1   59.76    3.46
   0   9   1   62.00    3.12
   0  -9  -1   59.34    2.98
   1   9   1   18.79    2.19
   1   9   1   18.10    1.78
  -1  -9  -1   21.97    1.84
  -1  -9  -1   22.21    3.04
   2   9   1   34.19    2.80
   2   9   1   30.84    2.27
  -2  -9  -1   32.62    2.38
   3   9   1    2.90    1.22
   3   9   1    0.03    1.32
  -3  -9  -1    1.92    1.24
   4   9   1   43.30    3.89
  -4  -9  -1   41.03    4.05
  -7   9   2    2.72    1.62
   7  -9  -2    2.22    3.11
   7  -9  -2    1.25    2.33
  -6   9   2   33.68    2.72
  -6   9   2   35.75    2.70
   6  -9  -2   30.22    4.41
   6  -9  -2   29.03    3.78
  -5   9   2    2.16    0.99
  -5   9   2    0.25    1.07
   5  -9  -2    1.64    0.72
   5  -9  -2   -0.13    1.95
   5  -9  -2    0.70    1.76
  -4   9   2   24.36    1.97
  -4   9   2   24.28    2.17
   4  -9  -2   30.10    3.10
   4  -9  -2   29.07    3.36
   4  -9  -2   26.29    1.67
  -3   9   2   16.87    1.39
  -3   9   2   18.83    1.80
   3  -9  -2   20.80    3.07
   3  -9  -2   16.54    1.39
   3  -9  -2   17.84    1.47
   3  -9  -2   14.96    2.36
  -2   9   2   23.63    1.45
  -2   9   2   20.75    1.90
   2  -9  -2   23.04    1.56
   2  -9  -2   22.59    1.41
   2  -9  -2   25.38    2.39
   2  -9  -2   22.70    3.21
  -1   9   2   80.52    3.33
  -1   9   2   90.32    4.06
  -1   9   2   83.52    4.45
  -1   9   2   83.68    3.79
   1  -9  -2   87.98    3.70
   0   9   2   -0.64    0.94
   0   9   2    0.29    0.92
   0  -9  -2    0.71    0.69
   1   9   2   33.94    2.47
   1   9   2   36.04    2.79
  -1  -9  -2   42.77    2.50
   2   9   2    2.34    1.28
   2   9   2    2.25    1.23
  -2  -9  -2    3.35    0.98
   3   9   2   32.41    2.75
   3   9   2   35.30    3.11
  -3  -9  -2   34.22    2.83
   4   9   2    7.49    3.29
  -7   9   3   19.90    2.79
  -7   9   3   11.27    1.97
   7  -9  -3   11.91    2.61
   7  -9  -3   11.17    3.42
  -6   9   3    8.81    1.69
  -6   9   3   15.87    2.25
   6  -9  -3   13.30    2.84
   6  -9  -3   14.75    2.51
  -5   9   3    6.78    1.40
  -5   9   3    6.48    1.41
   5  -9  -3    4.34    2.16
   5  -9  -3    6.68    0.94
   5  -9  -3    9.40    2.23
  -4   9   3   44.52    2.56
  -4   9   3   52.26    2.86
   4  -9  -3   44.49    4.05
   4  -9  -3   39.67    2.22
   4  -9  -3   41.87    3.62
  -3   9   3    1.10    0.72
  -3   9   3    0.17    0.84
   3  -9  -3    1.34    0.63
   3  -9  -3    0.63    1.58
   3  -9  -3    1.52    1.73
   3  -9  -3    0.90    0.74
  -2   9   3  105.60    4.80
  -2   9   3  100.82    4.19
   2  -9  -3  109.93    6.15
   2  -9  -3  101.45    5.32
   2  -9  -3  103.23    4.10
   2  -9  -3  105.61    4.29
  -1   9   3   13.06    2.27
  -1   9   3    9.16    0.85
  -1   9   3   10.69    1.72
   1  -9  -3    8.86    1.04
   0   9   3   71.99    3.85
   0   9   3   66.90    3.65
   0  -9  -3   68.68    3.29
   1   9   3   44.87    2.92
   1   9   3   46.89    3.07
  -1  -9  -3   37.56    4.29
  -1  -9  -3   45.81    2.65
   2   9   3   10.06    1.88
   2   9   3    8.12    1.61
  -2  -9  -3    8.43    1.46
   3   9   3   37.83    3.35
   3   9   3   29.56    2.87
  -3  -9  -3   38.50    3.20
  -7   9   4   12.11    1.89
  -7   9   4   13.95    2.29
   7  -9  -4    9.40    3.31
   7  -9  -4    7.28    2.74
  -6   9   4    0.45    1.29
  -6   9   4    0.96    1.30
   6  -9  -4    0.49    0.86
   6  -9  -4    2.02    2.23
   6  -9  -4   -4.32    2.41
  -5   9   4   30.43    2.53
  -5   9   4   29.35    2.39
   5  -9  -4   26.05    1.79
   5  -9  -4   26.33    3.78
   5  -9  -4   26.79    3.65
  -4   9   4    2.98    1.05
  -4   9   4    3.15    1.08
  -4   9   4    1.11    2.07
   4  -9  -4    4.08    2.19
   4  -9  -4    2.58    0.73
   4  -9  -4    5.21    1.98
  -3   9   4   76.54    4.47
  -3   9   4   80.65    3.59
  -3   9   4   79.84    4.01
   3  -9  -4   79.65    5.18
   3  -9  -4   75.66    3.44
   3  -9  -4   86.41    4.73
   3  -9  -4   81.66    3.43
  -2   9   4   53.62    3.22
  -2   9   4   52.21    2.51
  -2   9   4   49.98    3.51
   2  -9  -4   55.52    2.47
   2  -9  -4   58.02    2.64
   2  -9  -4   57.70    4.45
   2  -9  -4   54.75    4.23
  -1   9   4   23.25    2.26
  -1   9   4   24.76    2.54
  -1   9   4   24.41    2.43
   1  -9  -4   22.81    1.70
   0   9   4   74.39    3.92
   0   9   4   70.76    3.79
   0   9   4   65.91    3.91
   0  -9  -4   70.07    3.43
   1   9   4    1.40    1.14
   1   9   4    0.28    1.20
  -1  -9  -4    0.84    0.81
   2   9   4   42.93    3.07
   2   9   4   43.76    3.28
  -2  -9  -4   39.74    2.90
   3   9   4    2.97    1.72
   3   9   4    5.40    1.80
  -3  -9  -4    2.36    1.88
  -7   9   5   -0.25    1.72
  -7   9   5   -0.22    1.65
   7  -9  -5    0.20    2.65
   7  -9  -5   -1.72    3.27
  -6   9   5   15.57    2.44
  -6   9   5   18.54    2.36
   6  -9  -5   16.22    3.27
   6  -9  -5   18.92    1.63
   6  -9  -5   14.84    2.86
  -5   9   5   24.40    2.35
  -5   9   5   27.04    2.49
   5  -9  -5   30.46    3.71
   5  -9  -5   25.40    1.71
   5  -9  -5   22.93    3.61
  -4   9   5   17.85    2.06
  -4   9   5   16.51    2.75
  -4   9   5   18.76    1.94
   4  -9  -5   15.57    2.64
   4  -9  -5   16.96    1.41
   4  -9  -5   22.26    3.64
  -3   9   5   52.63    3.21
  -3   9   5   55.78    2.75
  -3   9   5   52.34    3.91
   3  -9  -5   49.88    2.62
   3  -9  -5   54.95    2.58
   3  -9  -5   56.17    4.40
   3  -9  -5   51.13    3.88
  -2   9   5    2.92    0.82
  -2   9   5    2.17    1.27
  -2   9   5    2.45    1.74
  -2   9   5    2.28    1.29
   2  -9  -5    1.71    0.69
   2  -9  -5    1.98    0.74
  -1   9   5   42.54    3.08
  -1   9   5   38.91    2.90
  -1   9   5   44.51    3.38
   1  -9  -5   44.11    2.36
   0   9   5    9.98    1.67
   0   9   5   10.43    1.80
   0  -9  -5    7.18    1.09
   1   9   5   35.53    2.84
   1   9   5   37.39    3.05
  -1  -9  -5   35.00    2.42
   2   9   5   23.11    2.89
   2   9   5   20.35    2.55
  -2  -9  -5   21.27    2.60
  -7   9   6    8.58    2.05
  -7   9   6    9.62    2.10
   7  -9  -6    0.89    3.38
   7  -9  -6    7.40    1.15
   7  -9  -6    5.37    2.93
  -6   9   6   16.28    2.49
  -6   9   6   12.61    2.02
   6  -9  -6   16.01    1.64
   6  -9  -6   14.90    2.94
   6  -9  -6   25.26    4.22
  -5   9   6   -0.03    1.29
  -5   9   6   -0.21    1.25
   5  -9  -6   -3.88    2.14
   5  -9  -6   -1.19    2.22
  -4   9   6   44.28    2.93
  -4   9   6   44.12    3.07
   4  -9  -6   39.31    4.01
   4  -9  -6   48.22    4.46
   4  -9  -6   43.98    2.27
  -3   9   6    2.75    2.47
  -3   9   6    1.17    1.26
  -3   9   6    0.82    0.95
   3  -9  -6    0.66    0.61
   3  -9  -6    2.72    2.14
   3  -9  -6    0.37    0.83
   3  -9  -6   -2.39    2.26
  -2   9   6   52.56    2.51
  -2   9   6   55.13    3.66
  -2   9   6   36.92    4.62
  -2   9   6   45.91    3.18
   2  -9  -6   51.00    2.57
   2  -9  -6   47.50    2.34
  -1   9   6   23.78    2.54
  -1   9   6   24.00    2.60
   1  -9  -6   23.71    1.82
   0   9   6    7.37    1.72
   0   9   6    7.27    1.60
   0  -9  -6    5.73    1.13
   1   9   6   57.04    3.91
   1   9   6   47.63    3.44
  -1  -9  -6   52.12    3.11
   2   9   6    1.75    1.77
   2   9   6    1.54    1.68
  -2  -9  -6   -1.22    1.53
  -7   9   7    5.89    2.05
  -7   9   7    4.67    2.06
   7  -9  -7    8.66    3.66
   7  -9  -7    7.68    3.22
   7  -9  -7    9.63    1.15
  -6   9   7    0.34    1.62
  -6   9   7    3.23    1.83
   6  -9  -7    1.75    0.85
   6  -9  -7    0.66    2.89
   6  -9  -7    4.08    2.69
  -5   9   7   14.62    2.09
  -5   9   7   15.02    2.45
   5  -9  -7   12.40    2.96
   5  -9  -7   15.40    1.56
   5  -9  -7   13.28    3.12
  -4   9   7   20.20    2.43
  -4   9   7   22.02    2.40
   4  -9  -7   20.23    1.68
   4  -9  -7   20.06    3.51
   4  -9  -7   21.28    3.30
  -3   9   7   13.08    1.71
  -3   9   7   14.38    2.23
   3  -9  -7   12.43    2.67
   3  -9  -7   12.44    1.36
   3  -9  -7   11.41    1.55
   3  -9  -7   12.42    3.16
  -2   9   7   41.97    3.29
  -2   9   7   43.29    2.39
  -2   9   7   33.45    3.02
   2  -9  -7   40.46    2.29
  -1   9   7   -0.94    1.29
  -1   9   7    0.63    1.64
   1  -9  -7    1.06    0.83
   0   9   7   32.39    3.06
   0   9   7   39.48    3.31
   0  -9  -7   39.25    2.52
   1   9   7    9.58    2.00
   1   9   7    7.62    1.78
  -1  -9  -7    5.87    1.58
  -6   9   8   -1.29    1.76
  -6   9   8    5.68    1.85
   6  -9  -8    1.72    0.90
   6  -9  -8    0.44    3.36
   6  -9  -8    0.68    3.19
  -5   9   8   22.76    2.71
  -5   9   8   18.44    2.82
   5  -9  -8   37.49    5.14
   5  -9  -8   23.90    1.77
   5  -9  -8   21.65    3.55
  -4   9   8    2.25    1.62
  -4   9   8    0.75    1.50
   4  -9  -8    0.18    2.81
   4  -9  -8    2.09    0.80
   4  -9  -8   -2.99    2.60
  -3   9   8   38.83    3.23
  -3   9   8   44.18    3.75
  -3   9   8   44.65    2.98
   3  -9  -8   42.95    2.39
  -2   9   8    7.18    1.82
  -2   9   8    7.07    1.85
  -2   9   8    7.50    1.38
   2  -9  -8    6.50    1.09
  -1   9   8   16.00    2.68
  -1   9   8   15.59    2.25
   1  -9  -8   14.09    1.82
   0   9   8   18.01    2.93
   0   9   8   28.11    3.24
   0  -9  -8   22.04    2.50
  -5   9   9    3.57    1.95
  -5   9   9    2.13    1.94
   5  -9  -9    7.24    3.25
   5  -9  -9   -0.08    2.94
   5  -9  -9   -0.35    0.88
  -4   9   9   14.71    2.41
  -4   9   9   12.55    2.30
   4  -9  -9   13.61    1.69
   4  -9  -9   18.44    4.03
   4  -9  -9   14.74    3.37
  -3   9   9   29.35    3.41
  -3   9   9   18.68    2.66
  -3   9   9   23.63    2.96
   3  -9  -9   27.83    1.99
  -2   9   9    7.76    1.93
  -2   9   9    6.56    2.11
   2  -9  -9    7.29    1.37
  -1   9   9   26.14    3.08
  -1   9   9   34.67    3.28
   1  -9  -9   27.07    2.95
  -4   9  10   19.48    3.05
  -4   9  10   22.69    3.79
  -4   9  10   21.90    3.50
   4  -9 -10   23.00    2.41
  -3   9  10    1.92    1.84
  -3   9  10   -1.07    1.61
   3  -9 -10    0.44    1.33
  -2   9  10   18.19    2.57
  -2   9  10   28.07    3.37
   2  -9 -10   18.98    2.49
  -1  10 -11    4.85    2.64
   1 -10  11    0.42    2.52
   0  10 -11    0.86    2.02
   0  10 -11    5.14    1.06
   0 -10  11    6.69    2.71
  -2  10 -10    5.53    2.01
   2 -10  10    8.93    2.69
  -1  10 -10   -0.06    1.67
  -1  10 -10    1.06    0.86
   1 -10  10    2.57    2.39
   0  10 -10   16.95    1.52
   0  10 -10   18.63    2.79
   0 -10  10   18.16    2.85
   1  10 -10    3.82    0.91
  -1 -10  10    4.51    2.48
  -1 -10  10    2.83    3.20
   2  10 -10   18.85    2.03
  -2 -10  10   14.95    3.62
  -2 -10  10   14.88    2.52
  -3  10  -9    8.06    2.25
   3 -10   9   15.40    3.17
  -2  10  -9    2.28    0.93
  -2  10  -9    3.65    1.65
   2 -10   9    4.56    2.19
  -1  10  -9   11.99    1.31
   1 -10   9   14.48    2.69
   0  10  -9   11.25    1.84
   0  10  -9   10.37    1.30
   0 -10   9    5.21    2.18
   1  10  -9    8.63    1.57
   1  10  -9   10.89    1.17
  -1 -10   9   11.47    2.87
  -1 -10   9   10.74    1.83
  -2 -10   9   21.69    3.54
  -2 -10   9   18.59    2.52
  -4  10  -8    6.02    2.16
   4 -10   8   10.99    2.84
   4 -10   8    5.74    4.75
  -3  10  -8    2.22    1.89
   3 -10   8    4.70    2.51
   3 -10   8    5.87    2.66
  -2  10  -8    0.92    1.55
  -2  10  -8    3.29    1.34
  -2  10  -8    2.69    0.74
   2 -10   8    1.21    2.12
  -1  10  -8   33.38    2.71
  -1  10  -8   25.29    2.17
  -1  10  -8   27.13    1.60
   1 -10   8   30.07    3.60
   0  10  -8    1.70    1.39
   0  10  -8   -0.28    1.03
   0 -10   8    4.53    1.91
   0 -10   8    1.60    1.42
   1  10  -8   35.66    2.48
   1  10  -8   38.60    2.61
  -1 -10   8   37.44    4.38
  -1 -10   8   32.40    3.06
   2  10  -8   -0.32    1.21
  -2 -10   8    2.45    1.51
  -2 -10   8    5.21    2.80
   3  10  -8   21.52    2.48
  -3 -10   8   17.34    3.47
  -3 -10   8   18.97    3.10
  -5  10  -7    7.54    2.37
   5 -10   7    0.05    3.63
   5 -10   7    2.25    3.00
   5 -10   7    2.25    3.67
  -4  10  -7    3.94    1.80
   4 -10   7    2.95    2.65
   4 -10   7    9.18    3.54
  -3  10  -7   -0.74    1.48
   3 -10   7   -1.42    2.14
   3 -10   7   -0.78    2.31
  -2  10  -7   19.71    2.36
  -2  10  -7   18.61    1.35
  -2  10  -7   19.46    2.74
   2 -10   7   24.51    3.79
   2 -10   7   20.32    2.92
  -1  10  -7   13.09    1.98
  -1  10  -7   13.80    2.12
  -1  10  -7    8.97    1.60
   1 -10   7   11.21    2.35
   1 -10   7   10.09    1.73
   0  10  -7   30.30    2.29
   0  10  -7   24.22    2.76
   0  10  -7   25.35    2.33
   0  10  -7   26.56    2.43
   0 -10   7   27.43    2.80
   1  10  -7   11.69    2.04
   1  10  -7   15.09    1.81
  -1 -10   7   11.51    2.65
  -1 -10   7   12.86    1.87
   2  10  -7    7.83    1.56
   2  10  -7    5.65    1.07
  -2 -10   7    5.86    2.49
  -2 -10   7    8.05    1.69
   3  10  -7   18.08    2.57
  -3 -10   7   21.28    2.58
  -3 -10   7   22.03    3.59
  -5  10  -6   15.77    2.46
   5 -10   6   14.36    3.00
   5 -10   6   15.97    3.30
   5 -10   6   14.29    3.40
  -4  10  -6    1.05    1.66
   4 -10   6    1.21    3.02
   4 -10   6    1.12    2.45
  -3  10  -6    7.75    1.57
   3 -10   6    9.64    2.44
   3 -10   6   12.10    2.58
  -2  10  -6   20.32    2.13
  -2  10  -6   14.12    1.89
   2 -10   6   19.66    3.19
   2 -10   6   14.99    2.44
   2 -10   6   23.59    2.89
  -1  10  -6   16.05    2.04
  -1  10  -6   16.33    2.55
  -1  10  -6   16.53    2.27
   1 -10   6   20.42    2.81
   1 -10   6   16.22    1.92
   0  10  -6   45.22    2.71
   0  10  -6   34.71    3.25
   0  10  -6   45.85    2.73
   0  10  -6   46.55    2.79
   0 -10   6   49.16    3.15
   1  10  -6    0.44    0.91
   1  10  -6    1.32    1.46
   1  10  -6   -0.43    1.07
   1  10  -6   -0.41    1.09
  -1 -10   6   -0.14    1.25
   2  10  -6   29.37    1.93
   2  10  -6   33.84    2.63
  -2 -10   6   26.92    4.05
  -2 -10   6   32.21    2.82
   3  10  -6    5.03    1.54
  -3 -10   6    3.75    2.93
  -3 -10   6    3.37    1.88
  -6  10  -5    4.79    2.31
   6 -10   5    1.88    3.60
   6 -10   5    5.65    3.15
   6 -10   5    2.01    3.33
  -5  10  -5    6.42    1.99
   5 -10   5    7.01    2.69
   5 -10   5    6.49    2.86
   5 -10   5   12.31    3.06
  -4  10  -5    8.63    1.80
   4 -10   5    3.92    2.74
   4 -10   5    5.65    2.14
  -3  10  -5   18.59    2.14
   3 -10   5   20.18    3.23
   3 -10   5   18.75    2.98
  -2  10  -5    0.27    1.11
   2 -10   5    0.43    1.44
   2 -10   5   -1.49    1.82
   2 -10   5    2.03    1.59
  -1  10  -5   88.10    4.29
  -1  10  -5   94.05    4.59
  -1  10  -5   92.49    4.38
   1 -10   5   99.23    4.57
   0  10  -5    3.59    1.06
   0  10  -5    5.84    1.11
   0  10  -5    3.28    1.17
   0 -10   5    3.87    1.39
   1  10  -5   31.99    2.24
   1  10  -5   30.05    2.74
   1  10  -5   33.64    2.08
   1  10  -5   32.65    2.57
  -1 -10   5   32.34    2.66
   2  10  -5   22.50    2.42
   2  10  -5   25.63    1.78
  -2 -10   5   25.16    2.49
   3  10  -5    8.33    1.61
  -3 -10   5   10.94    2.71
  -3 -10   5    6.97    1.75
   4  10  -5   35.71    3.26
  -4 -10   5   32.33    3.86
  -6  10  -4    4.79    1.97
   6 -10   4    2.71    2.85
   6 -10   4    7.83    3.17
  -5  10  -4    1.25    1.64
   5 -10   4    1.41    2.26
   5 -10   4    4.03    2.53
   5 -10   4    3.20    2.59
  -4  10  -4   26.66    2.58
   4 -10   4   21.11    3.32
   4 -10   4   24.24    3.55
  -3  10  -4    4.08    1.22
   3 -10   4    2.84    1.66
   3 -10   4    4.90    2.32
  -2  10  -4   26.85    2.24
  -2  10  -4   29.20    2.26
   2 -10   4   32.26    2.70
   2 -10   4   24.13    3.53
  -1  10  -4   50.03    2.73
  -1  10  -4   58.12    3.41
  -1  10  -4   51.11    2.93
   1 -10   4   50.13    3.13
   0  10  -4   19.84    2.09
   0  10  -4   17.66    1.68
   0  10  -4   12.55    2.12
   0  10  -4   17.01    1.60
   0 -10   4   16.12    2.03
   1  10  -4   46.28    3.15
   1  10  -4   48.50    2.44
   1  10  -4   42.93    2.99
   1  10  -4   50.23    2.58
   1  10  -4   49.00    3.11
  -1 -10   4   51.25    3.11
   2  10  -4    0.50    0.86
   2  10  -4   -0.32    1.24
   2  10  -4    1.19    0.88
  -2 -10   4   -1.14    1.05
   3  10  -4   45.22    3.21
  -3 -10   4   46.88    3.45
   4  10  -4    1.94    1.80
  -4 -10   4    3.53    1.93
  -6  10  -3   -0.49    1.81
  -6  10  -3   -1.62    1.53
   6 -10   3    0.73    2.61
   6 -10   3   -2.93    3.17
   6 -10   3   -2.74    2.68
  -5  10  -3    8.28    1.68
  -5  10  -3    9.13    1.75
   5 -10   3   14.78    2.93
   5 -10   3   11.91    2.65
   5 -10   3   11.33    2.46
  -4  10  -3   19.10    2.13
  -4  10  -3   14.78    2.21
   4 -10   3   14.89    2.85
  -3  10  -3   15.33    1.96
  -3  10  -3   10.61    1.81
   3 -10   3   16.78    2.90
   3 -10   3   12.20    1.53
  -2  10  -3   48.89    2.58
  -2  10  -3   40.20    2.79
   2 -10   3   44.84    4.23
   2 -10   3   46.77    2.88
  -1  10  -3    2.78    0.84
  -1  10  -3    3.66    1.74
  -1  10  -3    0.68    0.95
  -1  10  -3    1.43    1.26
   1 -10   3    2.14    1.11
   0  10  -3   39.94    2.35
   0  10  -3   35.05    2.84
   0  10  -3   38.75    2.76
   0  10  -3   40.34    2.09
   0 -10   3   41.20    2.65
   1  10  -3    4.07    1.29
   1  10  -3    4.74    1.48
   1  10  -3    7.06    1.15
   1  10  -3    8.50    1.12
   1  10  -3    7.61    1.55
  -1 -10   3    3.74    1.19
   2  10  -3   39.62    2.36
   2  10  -3   43.11    2.04
   2  10  -3   42.59    3.06
  -2 -10   3   39.13    2.96
   3  10  -3   43.96    3.21
  -3 -10   3   44.79    3.42
   4  10  -3    5.74    1.94
  -4 -10   3    5.28    1.98
  -7  10  -2    2.94    2.07
  -7  10  -2    4.85    2.08
   7 -10   2   -0.37    3.13
   7 -10   2    6.15    3.59
  -6  10  -2    0.17    1.60
  -6  10  -2    0.02    1.59
   6 -10   2    2.78    2.81
   6 -10   2   -4.11    2.78
  -5  10  -2   19.53    2.41
  -5  10  -2   18.13    2.34
   5 -10   2   24.47    4.24
   5 -10   2   18.45    2.72
  -4  10  -2    1.34    1.22
  -4  10  -2   -1.26    1.06
   4 -10   2    0.90    2.13
  -3  10  -2   43.76    2.66
  -3  10  -2   44.05    2.80
   3 -10   2   43.16    4.62
   3 -10   2   39.43    2.62
  -2  10  -2    6.37    1.23
  -2  10  -2    6.77    1.92
  -2  10  -2    6.13    1.03
   2 -10   2    4.21    1.23
   2 -10   2    5.35    2.09
  -1  10  -2   53.03    2.53
  -1  10  -2   52.86    2.85
  -1  10  -2   53.15    3.49
  -1  10  -2   52.90    3.49
   1 -10   2   47.65    2.84
   0  10  -2   24.02    2.26
   0  10  -2   27.47    1.89
   0  10  -2   24.62    1.48
   0  10  -2   21.65    2.35
   0 -10   2   23.31    2.04
   1  10  -2   10.57    1.76
   1  10  -2    9.99    1.21
   1  10  -2   11.04    1.79
   1  10  -2    7.44    1.16
   1  10  -2    8.27    0.98
  -1 -10   2    8.20    1.38
   2  10  -2   48.61    3.46
   2  10  -2   62.15    3.60
   2  10  -2   60.17    2.43
   2  10  -2   55.86    2.96
  -2 -10   2   59.79    3.46
   3  10  -2    0.22    1.17
   3  10  -2    0.10    1.39
  -3 -10   2   -1.41    1.23
   4  10  -2   31.28    3.44
  -4 -10   2   28.59    3.27
  -7  10  -1    3.63    2.01
  -7  10  -1   -1.65    1.99
   7 -10   1   -3.26    2.91
   7 -10   1   -1.32    3.71
  -6  10  -1    8.01    1.78
  -6  10  -1    9.22    1.90
   6 -10   1    5.20    2.68
   6 -10   1    7.70    2.77
  -5  10  -1    6.68    1.50
  -5  10  -1    8.19    1.49
   5 -10   1    9.88    2.49
   5 -10   1    9.46    2.32
  -4  10  -1   24.36    2.31
  -4  10  -1   21.57    2.11
   4 -10   1   27.13    4.06
   4 -10   1   26.17    3.04
  -3  10  -1   35.29    2.46
  -3  10  -1   29.59    2.09
   3 -10   1   23.77    4.04
   3 -10   1   29.94    2.23
  -2  10  -1    9.29    1.82
  -2  10  -1    8.85    1.43
  -2  10  -1   10.22    1.27
   2 -10   1    8.70    1.27
   2 -10   1   11.98    2.52
  -1  10  -1   88.03    4.50
  -1  10  -1   77.53    3.37
  -1  10  -1   73.22    4.09
  -1  10  -1   80.41    3.80
   1 -10   1   80.08    3.74
   0  10  -1    2.25    0.89
   0  10  -1    1.81    1.19
   0  10  -1    4.31    1.36
   0  10  -1    0.72    0.56
   0 -10   1    1.26    0.93
   1  10  -1   56.60    3.03
   1  10  -1   56.35    2.66
   1  10  -1   55.18    3.46
   1  10  -1   55.29    2.31
  -1 -10   1   55.83    3.22
   2  10  -1   11.49    1.86
   2  10  -1   16.50    1.79
   2  10  -1   16.43    2.40
  -2 -10   1   15.84    2.06
   3  10  -1   27.22    2.96
   3  10  -1   25.74    2.13
  -3 -10   1   33.18    3.17
  -7  10   0   11.65    2.26
  -7  10   0    8.83    2.09
   7 -10   0    5.33    3.51
   7 -10   0    4.79    2.75
  -6  10   0   12.96    2.08
  -6  10   0   12.92    1.97
   6 -10   0   13.00    2.81
   6 -10   0   10.78    2.97
  -5  10   0    3.79    1.35
  -5  10   0    1.77    1.26
   5 -10   0    2.29    2.13
   5 -10   0    2.76    2.13
  -4  10   0   42.50    2.70
  -4  10   0   35.29    2.52
   4 -10   0   40.00    4.17
   4 -10   0   32.14    2.18
  -3  10   0    0.57    0.79
  -3  10   0   -0.76    0.82
   3 -10   0   -0.19    1.94
   3 -10   0   -0.54    0.86
  -2  10   0   47.93    2.41
  -2  10   0   45.26    3.07
  -2  10   0   50.42    2.87
   2 -10   0   50.64    2.59
   2 -10   0   43.40    4.38
  -1  10   0   30.72    2.90
  -1  10   0   30.65    2.13
  -1  10   0   26.30    1.56
  -1  10   0   25.48    2.48
   1 -10   0   27.49    1.95
   0  10   0   34.98    2.30
   0  10   0   35.06    2.71
   0  10   0   33.14    1.61
   0  10   0   30.46    2.23
   0 -10   0   33.16    2.28
   1  10   0   33.90    2.86
   1  10   0   35.43    2.36
  -1 -10   0   35.45    2.43
   2  10   0    7.40    1.76
   2  10   0   12.02    1.84
  -2 -10   0    9.43    1.62
   3  10   0   68.52    4.24
   3  10   0   65.82    3.44
  -3 -10   0   55.22    4.10
  -7  10   1   11.18    2.07
  -7  10   1   18.66    2.96
   7 -10  -1   11.38    3.59
   7 -10  -1    6.64    2.93
  -6  10   1    0.47    1.36
  -6  10   1    0.35    1.49
   6 -10  -1    4.43    2.68
   6 -10  -1   -0.06    2.33
  -5  10   1   38.28    2.77
  -5  10   1   35.67    2.76
   5 -10  -1   42.87    4.15
   5 -10  -1   42.90    4.12
  -4  10   1   10.75    1.74
  -4  10   1    9.74    1.50
   4 -10  -1   11.45    2.57
   4 -10  -1    8.49    1.15
   4 -10  -1   10.08    1.96
  -3  10   1   36.20    2.12
  -3  10   1   38.78    2.52
   3 -10  -1   37.12    2.19
   3 -10  -1   32.12    2.05
   3 -10  -1   36.86    3.78
  -2  10   1   36.61    1.97
  -2  10   1   29.25    2.64
  -2  10   1   43.25    2.60
   2 -10  -1   39.70    4.13
   2 -10  -1   37.70    2.15
  -1  10   1   14.95    1.10
  -1  10   1   12.93    1.67
  -1  10   1   11.32    1.78
  -1  10   1   14.79    2.40
   1 -10  -1   12.57    1.46
   0  10   1   94.80    4.55
   0  10   1   95.60    4.79
   0 -10  -1   94.14    4.31
   1  10   1   -0.02    1.05
   1  10   1   -0.59    1.10
  -1 -10  -1    1.39    2.55
  -1 -10  -1   -1.04    0.80
   2  10   1   36.32    2.75
   2  10   1   30.43    3.06
  -2 -10  -1   42.47    2.91
   3  10   1   20.96    2.51
   3  10   1   21.41    3.01
  -3 -10  -1   21.03    2.79
  -7  10   2    1.89    1.80
  -7  10   2   -1.68    1.71
   7 -10  -2    1.04    3.43
   7 -10  -2    1.05    2.68
  -6  10   2   13.28    1.90
  -6  10   2    9.36    1.96
   6 -10  -2   10.41    2.89
   6 -10  -2   12.26    2.87
  -5  10   2   18.63    2.18
  -5  10   2   18.54    2.14
   5 -10  -2   16.81    2.11
   5 -10  -2   17.94    2.67
   5 -10  -2   16.61    2.81
  -4  10   2   17.87    2.03
  -4  10   2   19.86    2.10
   4 -10  -2   17.79    3.01
   4 -10  -2   18.29    1.77
   4 -10  -2   20.62    3.16
  -3  10   2   70.72    3.57
  -3  10   2   66.53    3.12
   3 -10  -2   59.37    2.98
   3 -10  -2   67.70    4.01
   3 -10  -2   65.78    4.72
   3 -10  -2   67.91    3.04
  -2  10   2    0.50    0.98
  -2  10   2    0.96    0.64
   2 -10  -2    0.70    0.73
   2 -10  -2    0.43    0.67
   2 -10  -2    1.86    1.85
  -1  10   2   74.00    3.84
  -1  10   2   70.27    2.99
  -1  10   2   72.82    3.64
  -1  10   2   78.13    4.25
   1 -10  -2   75.13    3.44
   0  10   2   26.23    2.28
   0  10   2   25.37    2.53
   0 -10  -2   25.85    2.03
   1  10   2   23.48    2.36
   1  10   2   21.61    2.56
  -1 -10  -2   23.47    2.08
   2  10   2   18.15    2.32
   2  10   2   19.24    2.69
  -2 -10  -2   16.70    2.24
   3  10   2    1.63    1.71
   3  10   2    3.97    1.61
  -3 -10  -2    2.98    1.81
  -7  10   3    3.81    1.88
   7 -10  -3    2.16    2.91
   7 -10  -3    4.39    3.45
  -6  10   3   19.24    2.55
  -6  10   3   14.57    2.01
   6 -10  -3    9.53    2.74
   6 -10  -3   16.01    3.03
  -5  10   3   -0.97    1.11
  -5  10   3    0.77    1.13
   5 -10  -3   -0.39    0.88
   5 -10  -3    3.19    2.17
   5 -10  -3    0.66    2.19
  -4  10   3   50.35    2.90
  -4  10   3   57.61    3.18
   4 -10  -3   50.77    2.50
   4 -10  -3   45.72    4.62
   4 -10  -3   44.35    3.76
  -3  10   3   14.83    1.46
  -3  10   3   16.33    1.93
   3 -10  -3   14.58    2.54
   3 -10  -3   11.75    1.43
   3 -10  -3   17.71    1.45
   3 -10  -3   16.39    2.23
  -2  10   3   16.10    1.96
  -2  10   3   14.66    2.44
   2 -10  -3   14.55    2.71
   2 -10  -3   16.23    1.50
   2 -10  -3   16.57    1.34
  -1  10   3   53.11    3.53
  -1  10   3   52.21    2.29
  -1  10   3   55.49    3.19
   1 -10  -3   52.85    2.78
   0  10   3    8.27    1.49
   0  10   3    6.99    1.58
   0 -10  -3    7.38    1.13
   1  10   3   45.40    3.43
   1  10   3   47.78    3.11
  -1 -10  -3   49.08    2.97
   2  10   3    0.18    1.33
   2  10   3    1.93    1.43
  -2 -10  -3    0.81    1.39
  -7  10   4   11.11    2.15
  -7  10   4   10.51    2.13
   7 -10  -4   10.93    3.22
   7 -10  -4   10.25    3.65
  -6  10   4    4.99    1.56
  -6  10   4    6.38    1.72
   6 -10  -4    2.96    2.68
   6 -10  -4   10.36    2.90
  -5  10   4    8.85    1.52
  -5  10   4    8.05    1.72
   5 -10  -4   15.18    3.05
   5 -10  -4    9.75    1.13
   5 -10  -4    6.95    2.29
  -4  10   4   20.57    2.15
  -4  10   4   16.82    2.16
   4 -10  -4   19.53    1.57
   4 -10  -4   22.70    3.45
   4 -10  -4   20.00    2.78
  -3  10   4   16.59    2.04
  -3  10   4   14.84    1.60
  -3  10   4   19.25    3.12
   3 -10  -4   17.21    1.46
   3 -10  -4   13.62    1.52
   3 -10  -4   16.66    2.45
   3 -10  -4   21.75    3.26
  -2  10   4   60.79    3.73
  -2  10   4   51.00    2.49
  -2  10   4   49.60    3.25
   2 -10  -4   49.10    2.37
   2 -10  -4   49.54    2.63
  -1  10   4    6.12    1.47
  -1  10   4    5.95    1.55
   1 -10  -4    6.02    0.98
   0  10   4   41.74    3.06
   0  10   4   47.79    3.22
   0 -10  -4   49.04    2.74
   1  10   4   14.75    2.51
   1  10   4   13.82    2.35
  -1 -10  -4   12.47    1.72
   2  10   4   16.94    2.33
   2  10   4   16.16    2.87
  -2 -10  -4   15.26    2.51
  -7  10   5    8.23    1.88
  -7  10   5   10.49    2.04
   7 -10  -5    3.60    3.23
   7 -10  -5    8.59    3.78
  -6  10   5   -2.74    1.35
  -6  10   5    0.93    1.47
   6 -10  -5    2.78    2.82
   6 -10  -5   -0.46    0.89
   6 -10  -5    0.79    2.82
  -5  10   5   25.28    2.60
  -5  10   5   27.25    2.59
   5 -10  -5   24.59    3.33
   5 -10  -5   28.07    1.88
   5 -10  -5   30.17    4.71
  -4  10   5    1.09    1.15
  -4  10   5    0.78    1.37
   4 -10  -5    2.43    2.05
   4 -10  -5    0.86    0.75
   4 -10  -5    0.36    2.09
  -3  10   5   55.13    2.75
  -3  10   5   47.07    3.19
   3 -10  -5   50.02    4.43
   3 -10  -5   52.96    2.60
   3 -10  -5   47.70    2.55
   3 -10  -5   45.81    4.60
  -2  10   5   16.66    2.18
  -2  10   5   17.69    1.50
  -2  10   5   19.87    2.83
   2 -10  -5   16.73    1.61
  -1  10   5   15.80    2.47
  -1  10   5   15.09    2.19
   1 -10  -5   14.98    1.62
   0  10   5   42.97    3.25
   0  10   5   36.36    2.95
   0 -10  -5   40.58    2.62
   1  10   5    0.43    1.56
   1  10   5    2.12    1.58
  -1 -10  -5   -0.39    1.19
   2  10   5   37.25    3.70
   2  10   5   36.46    3.30
  -2 -10  -5   35.17    3.37
  -6  10   6   14.02    2.22
  -6  10   6   17.39    2.79
   6 -10  -6   18.32    1.78
   6 -10  -6   15.94    3.43
   6 -10  -6   12.08    3.47
  -5  10   6   14.57    2.48
  -5  10   6   15.19    2.35
   5 -10  -6   15.58    1.67
   5 -10  -6   16.55    3.38
   5 -10  -6   16.16    3.32
  -4  10   6   15.34    2.38
  -4  10   6   19.94    2.51
   4 -10  -6   25.63    3.79
   4 -10  -6   26.21    3.69
   4 -10  -6   21.55    1.69
  -3  10   6   26.56    2.60
  -3  10   6   31.55    2.22
   3 -10  -6   29.01    4.32
   3 -10  -6   31.96    2.01
   3 -10  -6   31.85    4.64
  -2  10   6    3.78    1.42
  -2  10   6    3.89    1.08
  -2  10   6    0.84    1.45
   2 -10  -6    5.18    0.92
  -1  10   6   41.26    3.25
  -1  10   6   43.61    3.38
   1 -10  -6   43.28    2.55
   0  10   6    1.49    1.57
   0  10   6    0.76    1.56
   0 -10  -6    1.28    1.06
   1  10   6   29.21    3.58
   1  10   6   24.66    2.99
  -1 -10  -6   29.12    3.10
  -6  10   7   14.92    2.60
  -6  10   7    9.90    2.12
   6 -10  -7    8.18    3.60
   6 -10  -7   16.82    1.79
   6 -10  -7   13.18    3.56
  -5  10   7    1.62    1.88
  -5  10   7    2.62    1.66
   5 -10  -7    0.51    0.83
   5 -10  -7   -2.95    2.76
   5 -10  -7   -1.12    2.67
  -4  10   7   37.67    2.93
  -4  10   7   31.24    2.96
   4 -10  -7   39.70    2.26
   4 -10  -7   30.47    5.09
   4 -10  -7   41.48    4.98
  -3  10   7    0.18    1.25
  -3  10   7    0.48    1.42
  -3  10   7    1.50    1.89
   3 -10  -7    0.81    0.79
  -2  10   7   15.96    2.62
  -2  10   7   24.32    3.07
   2 -10  -7   21.82    1.82
  -1  10   7   10.61    2.01
  -1  10   7    9.90    1.95
   1 -10  -7   14.24    1.85
   0  10   7   12.35    2.20
   0  10   7   16.53    2.39
   0 -10  -7   10.65    2.09
  -5  10   8   20.92    2.72
  -5  10   8   23.52    3.06
   5 -10  -8   23.30    4.51
   5 -10  -8   23.89    1.94
   5 -10  -8   18.32    3.79
  -4  10   8   11.77    1.94
  -4  10   8   11.16    2.14
   4 -10  -8   12.49    1.45
   4 -10  -8   10.76    3.72
   4 -10  -8   13.82    3.13
  -3  10   8   10.83    2.26
  -3  10   8    6.53    2.24
  -3  10   8    9.17    1.76
   3 -10  -8   11.55    1.42
  -2  10   8   35.41    3.42
   2 -10  -8   34.35    2.68
  -1  10   8   -0.01    1.64
  -1  10   8   -0.88    1.69
   1 -10  -8   -0.39    1.40
  -4  10   9    9.39    2.41
  -4  10   9    3.77    2.25
  -4  10   9    5.22    2.15
   4 -10  -9    2.87    1.20
  -3  10   9   28.03    3.53
   3 -10  -9   25.96    2.69
  -2  10   9    3.09    1.94
  -2  10   9    3.54    1.98
   2 -10  -9    4.29    1.52
  -1  11 -10    3.03    2.01
   1 -11  10    0.95    2.45
   0  11 -10   10.78    2.19
   0 -11  10    9.61    2.91
  -3  11  -9    4.32    2.30
   3 -11   9    4.57    2.96
  -2  11  -9   10.50    2.37
   2 -11   9   13.68    3.01
  -1  11  -9    2.95    1.71
  -1  11  -9    0.88    0.84
   1 -11   9    1.39    2.51
   0  11  -9   17.71    2.77
   0  11  -9   17.36    1.55
   1  11  -9   -1.38    1.66
   1  11  -9   -2.40    1.38
  -1 -11   9    0.12    1.74
  -4  11  -8   -1.75    2.32
   4 -11   8    1.90    3.19
  -3  11  -8   11.45    2.22
   3 -11   8   12.35    3.17
  -2  11  -8    0.57    1.74
  -2  11  -8   -0.07    0.78
  -2  11  -8   -0.92    1.65
   2 -11   8    2.37    2.28
  -1  11  -8   16.17    2.24
  -1  11  -8   11.88    1.32
  -1  11  -8   13.53    2.10
   1 -11   8   14.38    2.55
   0  11  -8    6.90    1.37
   0  11  -8    5.08    1.67
   0  11  -8    6.00    1.64
   0 -11   8    3.18    1.62
   1  11  -8   13.39    1.93
   1  11  -8   16.80    2.18
   1  11  -8   13.46    1.79
  -1 -11   8   12.99    1.98
   2  11  -8   15.98    2.41
  -2 -11   8   20.40    2.90
  -2 -11   8   18.07    3.59
  -4  11  -7    3.72    2.06
   4 -11   7    4.90    3.65
   4 -11   7    0.59    2.82
  -3  11  -7    4.56    1.80
   3 -11   7    2.49    3.05
   3 -11   7    7.56    2.47
  -2  11  -7   15.41    1.39
  -2  11  -7   22.67    2.99
  -2  11  -7   21.24    2.52
   2 -11   7   15.77    2.92
  -1  11  -7   17.25    2.29
  -1  11  -7   21.36    2.51
  -1  11  -7   17.85    2.39
   1 -11   7   14.39    2.05
   0  11  -7    0.51    1.34
   0  11  -7    0.31    1.26
   0  11  -7    1.67    1.35
   0 -11   7    2.35    1.59
   1  11  -7   20.74    2.77
   1  11  -7   29.50    2.41
   1  11  -7   27.71    2.54
  -1 -11   7   27.70    3.02
   2  11  -7   -0.85    1.28
   2  11  -7    1.30    1.42
  -2 -11   7   -0.90    1.91
  -5  11  -6    5.72    2.40
   5 -11   6    6.87    3.27
   5 -11   6    6.33    3.28
   5 -11   6    8.26    3.76
  -4  11  -6    9.98    2.00
   4 -11   6   10.74    2.79
   4 -11   6   11.80    3.55
  -3  11  -6    2.84    1.46
   3 -11   6   -0.99    2.17
   3 -11   6   -0.28    2.78
  -2  11  -6   33.13    3.23
  -2  11  -6   34.09    2.76
   2 -11   6   35.28    3.24
  -1  11  -6    1.99    1.20
  -1  11  -6    1.49    1.16
  -1  11  -6    1.45    1.54
   1 -11   6    5.87    1.65
   0  11  -6   32.66    2.54
   0  11  -6   33.36    2.85
   0  11  -6   29.02    2.62
   0 -11   6   30.12    2.91
   1  11  -6   13.86    1.96
   1  11  -6   13.35    1.89
   1  11  -6   12.82    1.75
  -1 -11   6   12.13    1.85
   2  11  -6   17.51    2.22
   2  11  -6   14.21    1.95
  -2 -11   6   14.36    2.29
   3  11  -6   18.05    2.79
  -3 -11   6   13.62    2.68
  -5  11  -5    7.70    2.20
   5 -11   5   11.53    2.87
   5 -11   5    9.68    2.89
   5 -11   5    9.33    3.22
  -4  11  -5   -0.13    1.57
   4 -11   5    1.65    2.91
   4 -11   5   -0.09    2.04
  -3  11  -5   21.49    2.47
  -3  11  -5   20.93    2.47
   3 -11   5   21.36    3.35
  -2  11  -5   11.44    1.72
  -2  11  -5   13.25    2.05
   2 -11   5   10.35    1.91
   2 -11   5   10.39    2.83
  -1  11  -5    6.09    1.42
  -1  11  -5    6.63    1.86
  -1  11  -5    8.74    1.43
   1 -11   5    8.25    1.70
   0  11  -5   28.69    2.45
   0  11  -5   32.68    2.83
   0  11  -5   29.38    2.41
   0 -11   5   27.38    2.72
   1  11  -5    0.93    0.97
   1  11  -5    0.67    1.37
   1  11  -5    3.31    1.21
  -1 -11   5    0.75    1.31
   2  11  -5   42.46    3.16
   2  11  -5   43.60    2.76
  -2 -11   5   40.58    3.32
   3  11  -5    3.18    1.71
  -3 -11   5    0.13    1.76
  -6  11  -4    6.58    2.46
  -6  11  -4    8.52    2.18
   6 -11   4    3.66    3.64
   6 -11   4    4.08    3.23
   6 -11   4    8.70    3.67
  -5  11  -4    1.57    1.68
  -5  11  -4    5.08    1.89
   5 -11   4    7.75    3.13
   5 -11   4    1.11    2.63
   5 -11   4    0.73    2.74
  -4  11  -4    7.19    1.68
  -4  11  -4    5.37    1.56
   4 -11   4    6.70    2.99
  -3  11  -4   21.28    2.35
  -3  11  -4   22.82    2.40
   3 -11   4   21.54    3.28
  -2  11  -4    8.08    1.41
  -2  11  -4    4.57    1.33
   2 -11   4    3.28    2.51
   2 -11   4    4.08    1.57
  -1  11  -4   38.65    3.29
  -1  11  -4   35.87    2.71
  -1  11  -4   36.79    2.56
   1 -11   4   36.20    2.80
   0  11  -4    3.59    1.29
   0  11  -4    3.57    1.33
   0  11  -4    3.34    1.01
   0 -11   4    4.58    1.38
   1  11  -4   41.53    3.04
   1  11  -4   43.70    2.41
   1  11  -4   41.31    2.59
  -1 -11   4   39.98    2.94
   2  11  -4   30.46    2.82
   2  11  -4   27.30    1.94
   2  11  -4   30.15    2.22
  -2 -11   4   28.80    2.96
   3  11  -4   10.98    1.94
  -3 -11   4   10.91    2.74
  -6  11  -3    8.75    2.12
  -6  11  -3    9.45    2.05
   6 -11   3    4.83    3.25
   6 -11   3   17.86    3.52
  -5  11  -3   -0.89    1.52
  -5  11  -3    1.98    1.60
   5 -11   3   -2.69    2.51
   5 -11   3    0.74    2.73
  -4  11  -3   22.10    2.51
  -4  11  -3   22.69    2.60
   4 -11   3   24.52    3.78
  -3  11  -3    3.20    1.46
  -3  11  -3    1.78    1.20
   3 -11   3   -0.18    1.56
   3 -11   3    2.92    2.46
  -2  11  -3   49.25    3.08
  -2  11  -3   44.86    2.84
   2 -11   3   49.34    4.70
   2 -11   3   47.15    3.11
  -1  11  -3   17.73    1.73
  -1  11  -3   23.39    2.19
  -1  11  -3   22.45    2.76
   1 -11   3   20.45    2.15
   0  11  -3   19.51    1.65
   0  11  -3   18.90    2.03
   0  11  -3   21.57    2.69
   0  11  -3   24.51    2.49
   0 -11   3   20.57    2.29
   1  11  -3   43.43    3.25
   1  11  -3   49.10    2.40
   1  11  -3   50.49    2.88
  -1 -11   3   52.65    3.21
   2  11  -3    3.81    1.13
   2  11  -3    4.69    1.63
  -2 -11   3    1.54    1.31
   3  11  -3   35.25    3.24
  -3 -11   3   36.64    4.08
  -6  11  -2    0.54    1.68
  -6  11  -2   -0.36    1.76
   6 -11   2    0.36    3.03
   6 -11   2   -2.16    2.87
  -5  11  -2   20.43    2.55
  -5  11  -2   17.61    2.70
   5 -11   2   22.93    3.50
   5 -11   2   21.59    2.96
  -4  11  -2   13.59    1.88
  -4  11  -2   16.84    2.32
   4 -11   2   12.91    3.17
  -3  11  -2    7.53    1.48
  -3  11  -2    4.83    1.40
   3 -11   2    8.71    1.54
   3 -11   2   13.22    2.63
  -2  11  -2   40.98    2.52
  -2  11  -2   43.52    2.78
   2 -11   2   39.09    4.40
   2 -11   2   41.03    2.79
  -1  11  -2    2.45    1.86
  -1  11  -2    3.38    1.52
  -1  11  -2    2.38    0.82
  -1  11  -2    2.20    1.15
   1 -11   2    4.02    1.07
   0  11  -2   46.03    2.85
   0  11  -2   49.43    3.04
   0  11  -2   44.28    3.18
   0  11  -2   45.60    2.31
   0 -11   2   47.06    2.92
   1  11  -2    0.70    1.22
   1  11  -2    1.57    1.14
   1  11  -2    1.80    0.68
  -1 -11   2   -0.39    0.99
   2  11  -2   52.84    3.20
   2  11  -2   62.32    3.94
  -2 -11   2   70.57    3.94
   3  11  -2   24.05    2.95
  -3 -11   2   16.42    2.81
  -6  11  -1    7.77    1.78
  -6  11  -1    7.85    2.06
   6 -11   1    0.98    3.09
   6 -11   1   11.24    3.21
  -5  11  -1   28.52    2.89
  -5  11  -1   22.49    2.47
   5 -11   1   22.43    3.37
   5 -11   1   24.48    4.12
  -4  11  -1    1.96    1.37
  -4  11  -1    5.23    1.36
   4 -11   1    0.64    2.59
  -3  11  -1   30.84    2.44
  -3  11  -1   26.47    2.35
   3 -11   1   24.81    2.63
   3 -11   1   29.51    4.18
  -2  11  -1   -1.01    1.89
  -2  11  -1    4.60    1.26
  -2  11  -1    3.46    0.98
   2 -11   1    3.33    2.36
   2 -11   1    1.69    1.05
  -1  11  -1   48.44    2.90
  -1  11  -1   46.59    3.47
  -1  11  -1   48.80    3.34
  -1  11  -1   45.35    2.38
   1 -11   1   49.08    2.80
   0  11  -1   12.42    1.94
   0  11  -1   11.44    1.19
   0  11  -1   17.11    2.06
   0  11  -1   13.61    1.96
   0 -11   1   16.41    1.95
   1  11  -1   18.75    2.14
   1  11  -1   19.08    2.54
  -1 -11   1   19.30    2.17
   2  11  -1   57.80    3.85
   2  11  -1   51.87    3.28
  -2 -11   1   53.78    3.56
   3  11  -1    0.28    1.70
  -3 -11   1   -0.19    1.73
  -7  11   0    0.76    2.22
  -7  11   0    2.07    1.95
   7 -11   0   -2.14    3.64
   7 -11   0    0.47    3.24
  -6  11   0   17.99    2.90
  -6  11   0   22.65    2.90
   6 -11   0   13.89    3.03
   6 -11   0   15.53    3.38
  -5  11   0    0.08    1.32
  -5  11   0   -1.11    1.21
   5 -11   0   -0.10    2.30
   5 -11   0    0.66    2.45
  -4  11   0   33.26    2.65
  -4  11   0   28.71    2.36
   4 -11   0   33.30    4.64
   4 -11   0   28.75    2.35
  -3  11   0   12.96    1.78
  -3  11   0   13.39    1.97
   3 -11   0   11.90    2.59
   3 -11   0   14.96    1.90
  -2  11   0   17.63    2.65
  -2  11   0   11.54    1.79
  -2  11   0   13.85    1.44
   2 -11   0   15.68    2.94
   2 -11   0   13.36    1.75
  -1  11   0   63.71    2.85
  -1  11   0   66.63    4.00
  -1  11   0   63.17    3.48
  -1  11   0   64.72    3.80
   1 -11   0   64.28    3.30
   0  11   0    0.93    1.09
   0  11   0    0.92    0.59
   0  11   0    2.58    1.35
   0 -11   0    0.51    1.01
   1  11   0   31.59    2.62
   1  11   0   31.89    3.00
  -1 -11   0   37.28    2.64
   2  11   0    1.85    2.00
   2  11   0    3.21    1.70
  -2 -11   0    2.47    1.47
   3  11   0   13.79    2.43
  -7  11   1    6.19    2.08
  -7  11   1    4.14    2.09
   7 -11  -1    0.66    3.15
   7 -11  -1    6.51    3.83
  -6  11   1    3.82    1.70
  -6  11   1    6.08    1.80
   6 -11  -1    9.22    3.14
   6 -11  -1    1.34    3.11
  -5  11   1   13.76    1.95
  -5  11   1   12.15    1.93
   5 -11  -1   13.12    3.11
   5 -11  -1   13.04    2.71
  -4  11   1   29.25    2.45
  -4  11   1   31.51    2.53
   4 -11  -1   34.62    3.39
   4 -11  -1   25.48    2.34
   4 -11  -1   34.81    4.34
  -3  11   1    1.09    1.02
  -3  11   1   -0.31    0.92
   3 -11  -1   -0.10    0.96
   3 -11  -1    3.10    2.17
  -2  11   1   48.37    3.38
  -2  11   1   57.86    3.29
  -2  11   1   55.55    2.63
  -2  11   1   57.36    3.81
   2 -11  -1   55.78    2.87
  -1  11   1   12.00    1.19
  -1  11   1   15.27    2.41
  -1  11   1   13.33    1.83
  -1  11   1   16.11    2.47
   1 -11  -1   10.84    1.33
   0  11   1   36.18    2.73
   0  11   1   40.67    3.10
   0 -11  -1   44.22    2.62
   1  11   1   20.14    2.71
   1  11   1   17.10    2.24
  -1 -11  -1   20.27    2.15
   2  11   1    9.62    2.00
  -2 -11  -1   11.11    2.07
  -7  11   2   12.83    2.13
  -7  11   2    8.14    2.17
   7 -11  -2    8.49    3.74
   7 -11  -2    6.18    3.39
  -6  11   2   -2.10    1.36
  -6  11   2   -1.38    1.57
   6 -11  -2   -0.61    2.70
   6 -11  -2   -1.53    2.89
  -5  11   2   24.78    2.52
  -5  11   2   20.25    2.42
   5 -11  -2   27.04    4.65
   5 -11  -2   19.86    2.98
  -4  11   2    0.25    1.12
  -4  11   2   -0.28    1.21
   4 -11  -2    1.85    2.18
   4 -11  -2    1.18    1.87
   4 -11  -2   -0.28    0.90
  -3  11   2   29.31    2.06
  -3  11   2   33.64    2.60
   3 -11  -2   31.14    3.30
   3 -11  -2   34.24    4.20
   3 -11  -2   31.62    2.06
  -2  11   2   41.11    2.78
  -2  11   2   39.42    3.21
  -2  11   2   35.33    2.95
  -2  11   2   38.31    2.12
   2 -11  -2   37.77    2.32
  -1  11   2   18.67    2.28
  -1  11   2   22.52    2.73
   1 -11  -2   17.67    1.93
   0  11   2   58.22    3.68
   0  11   2   52.49    3.37
   0 -11  -2   60.73    3.21
   1  11   2    0.72    1.51
   1  11   2   -1.02    1.87
  -1 -11  -2    0.83    1.09
   2  11   2   34.99    3.20
   2  11   2   28.49    3.19
  -2 -11  -2   28.67    3.65
  -7  11   3    1.58    2.05
  -7  11   3    3.95    1.82
   7 -11  -3    0.48    3.68
   7 -11  -3   -0.20    3.69
  -6  11   3   15.82    2.59
  -6  11   3   12.68    2.02
   6 -11  -3   14.36    3.16
  -5  11   3   13.58    2.25
  -5  11   3    9.05    1.51
   5 -11  -3   10.21    2.57
   5 -11  -3    9.05    1.26
   5 -11  -3   14.97    3.16
  -4  11   3   13.23    1.99
  -4  11   3   11.30    1.75
   4 -11  -3   16.75    1.63
   4 -11  -3   11.50    2.58
   4 -11  -3   16.33    2.80
  -3  11   3   46.93    3.01
  -3  11   3   44.30    2.47
   3 -11  -3   44.11    2.40
   3 -11  -3   40.69    3.86
   3 -11  -3   39.11    4.59
  -2  11   3   -0.30    1.56
  -2  11   3   -0.16    1.19
  -2  11   3    0.11    0.79
   2 -11  -3    0.01    0.73
  -1  11   3   48.59    3.20
  -1  11   3   48.92    3.62
   1 -11  -3   54.55    2.86
   0  11   3    6.89    1.76
   0  11   3    4.39    1.39
   0 -11  -3    4.43    1.14
   1  11   3   36.48    3.46
  -1 -11  -3   36.14    2.99
   2  11   3   19.69    3.10
   2  11   3   22.99    2.87
  -2 -11  -3   21.10    2.63
  -6  11   4   22.10    2.85
  -6  11   4   16.39    2.27
   6 -11  -4   17.00    3.38
   6 -11  -4   15.05    3.55
  -5  11   4    1.88    1.45
  -5  11   4   -0.55    1.28
   5 -11  -4   -0.44    2.58
   5 -11  -4    1.43    0.92
   5 -11  -4    1.25    2.85
  -4  11   4   35.92    2.72
  -4  11   4   31.04    2.69
   4 -11  -4   35.38    4.11
   4 -11  -4   28.96    2.07
   4 -11  -4   28.53    4.45
  -3  11   4    4.13    1.33
  -3  11   4    5.67    1.16
   3 -11  -4    6.04    1.09
   3 -11  -4    5.91    2.73
   3 -11  -4    8.53    2.73
  -2  11   4   35.37    3.40
  -2  11   4   30.54    2.78
  -2  11   4   35.46    1.98
   2 -11  -4   34.63    2.24
  -1  11   4   20.18    2.86
  -1  11   4   20.90    2.41
   1 -11  -4   18.98    1.90
   0  11   4    6.33    2.09
   0  11   4   10.55    1.99
   0 -11  -4   10.06    1.48
   1  11   4   37.23    3.31
   1  11   4   44.57    3.65
  -1 -11  -4   38.21    3.57
  -6  11   5    0.27    1.67
  -6  11   5   -0.75    1.58
   6 -11  -5    3.22    3.13
   6 -11  -5    2.46    1.02
   6 -11  -5    7.60    3.60
  -5  11   5   20.03    2.59
   5 -11  -5   23.11    3.32
   5 -11  -5   23.23    3.76
   5 -11  -5   23.33    1.91
  -4  11   5   18.41    2.45
  -4  11   5   19.55    2.44
   4 -11  -5   13.49    3.03
   4 -11  -5   25.85    1.86
   4 -11  -5   29.83    4.62
  -3  11   5    2.21    1.40
  -3  11   5    3.64    1.14
  -3  11   5    3.75    1.82
   3 -11  -5    3.97    0.87
   3 -11  -5    4.52    2.92
   3 -11  -5    3.51    2.66
  -2  11   5   22.13    2.70
  -2  11   5   26.92    3.16
   2 -11  -5   25.92    1.98
  -1  11   5    0.53    1.45
  -1  11   5   -0.03    1.51
   1 -11  -5   -0.24    0.87
   0  11   5   43.92    3.50
   0  11   5   30.13    3.17
   0 -11  -5   42.83    2.95
   1  11   5    6.34    2.13
   1  11   5    3.99    2.08
  -1 -11  -5    4.41    1.63
  -6  11   6    5.37    1.99
  -6  11   6    2.55    1.85
   6 -11  -6    7.73    3.74
   6 -11  -6   12.64    3.56
   6 -11  -6    4.97    1.11
  -5  11   6   15.72    2.71
  -5  11   6   23.64    2.72
   5 -11  -6   25.20    3.74
   5 -11  -6   18.29    3.49
   5 -11  -6   21.69    1.96
  -4  11   6   -0.57    1.45
  -4  11   6    2.66    1.65
   4 -11  -6    3.01    3.12
   4 -11  -6    1.11    0.90
   4 -11  -6   -1.27    2.88
  -3  11   6   40.57    3.65
  -3  11   6   33.25    2.45
  -3  11   6   28.90    2.99
   3 -11  -6   39.76    2.37
  -2  11   6    5.15    1.86
  -2  11   6    9.15    2.06
   2 -11  -6    5.66    1.22
  -1  11   6   12.61    2.38
  -1  11   6   21.31    2.92
   1 -11  -6   18.81    2.39
   0  11   6   22.80    3.22
   0  11   6   16.58    2.56
   0 -11  -6   13.76    1.98
  -5  11   7    1.73    1.67
  -5  11   7    0.56    1.91
   5 -11  -7    5.43    3.18
   5 -11  -7    2.89    1.04
  -4  11   7    7.73    1.84
  -4  11   7   13.08    1.93
   4 -11  -7   15.04    3.98
   4 -11  -7   13.18    1.47
   4 -11  -7   10.49    3.32
  -3  11   7   27.84    3.77
   3 -11  -7   21.83    2.08
  -2  11   7    0.62    2.21
  -2  11   7    2.64    1.96
   2 -11  -7    2.72    1.13
  -1  11   7   32.70    3.42
   1 -11  -7   30.15    3.15
  -4  11   8   10.76    2.75
  -4  11   8   16.03    2.82
  -4  11   8   27.71    3.50
   4 -11  -8   18.14    3.90
   4 -11  -8   19.47    2.18
  -3  11   8    1.63    2.05
   3 -11  -8   -0.52    1.33
  -2  11   8    0.97    2.21
   3 -12   8    4.02    3.06
  -2  12  -8   10.62    2.18
   2 -12   8   12.97    3.10
  -1  12  -8    2.86    1.67
  -1  12  -8    4.05    0.92
  -1  12  -8    6.12    1.87
   1 -12   8    4.27    2.01
   0  12  -8   22.15    2.99
   0  12  -8   18.95    2.85
   0 -12   8   21.81    2.60
   4 -12   7    0.69    3.07
  -3  12  -7    8.71    2.00
   3 -12   7    6.34    3.41
   3 -12   7    5.11    2.83
  -2  12  -7    1.14    1.76
  -2  12  -7    0.75    1.49
  -2  12  -7    1.14    2.06
  -2  12  -7    0.97    0.81
  -1  12  -7   21.21    2.71
  -1  12  -7   27.34    2.84
  -1  12  -7   20.72    2.89
   1 -12   7   25.02    3.27
   0  12  -7    5.54    1.70
   0  12  -7    4.53    1.72
   0  12  -7    7.73    1.86
   0 -12   7    4.98    1.93
   1  12  -7   20.35    2.85
   1  12  -7   23.97    2.62
   1  12  -7   16.41    2.36
  -1 -12   7   15.84    2.32
  -4  12  -6    6.14    2.30
   4 -12   6    5.06    3.52
   4 -12   6   10.45    3.11
  -3  12  -6    2.10    1.70
  -3  12  -6    1.76    1.65
   3 -12   6   -0.43    3.00
  -2  12  -6    8.34    1.76
  -2  12  -6   12.22    2.56
  -2  12  -6   12.73    2.05
   2 -12   6   11.23    2.01
  -1  12  -6   18.38    2.54
  -1  12  -6   16.01    2.33
  -1  12  -6   13.56    2.17
   1 -12   6   16.00    2.26
   0  12  -6   11.66    2.09
   0  12  -6    8.62    1.60
   0  12  -6    9.37    1.71
   0 -12   6    7.93    1.80
   1  12  -6   36.86    2.88
   1  12  -6   40.76    2.85
   1  12  -6   31.64    3.22
  -1 -12   6   37.72    3.45
   2  12  -6    0.44    1.74
   2  12  -6   -0.17    1.40
  -5  12  -5    1.93    1.88
  -5  12  -5   -0.66    2.14
   5 -12   5   -0.64    3.73
  -4  12  -5    7.87    1.92
  -4  12  -5    2.92    2.00
   4 -12   5    7.09    3.23
  -3  12  -5    4.60    1.59
  -3  12  -5    3.53    1.62
   3 -12   5    3.20    3.01
  -2  12  -5   33.62    3.04
  -2  12  -5   38.14    3.69
  -2  12  -5   30.99    2.75
   2 -12   5   36.01    3.45
  -1  12  -5    0.06    1.29
  -1  12  -5    2.41    1.39
  -1  12  -5   -0.49    1.56
   1 -12   5   -1.36    1.53
   0  12  -5   38.17    2.77
   0  12  -5   30.99    2.97
   0  12  -5   28.88    2.51
   0 -12   5   22.82    2.92
   1  12  -5    6.03    1.46
   1  12  -5    6.19    1.75
   1  12  -5    4.75    1.34
  -1 -12   5    1.55    1.58
   2  12  -5   16.75    2.43
  -2 -12   5   10.73    2.63
  -5  12  -4    6.07    2.05
  -5  12  -4   11.10    2.20
   5 -12   4    5.79    3.50
  -4  12  -4    3.16    1.74
  -4  12  -4    0.53    1.63
   4 -12   4   -2.00    2.92
  -3  12  -4   30.62    2.80
  -3  12  -4   26.49    2.87
   3 -12   4   31.66    5.01
  -2  12  -4    6.17    1.55
  -2  12  -4    9.87    2.11
  -2  12  -4    8.31    1.64
   2 -12   4    5.29    1.79
  -1  12  -4   19.34    2.11
  -1  12  -4   15.79    2.35
  -1  12  -4   17.83    2.31
   1 -12   4   20.93    2.68
   0  12  -4   14.90    2.16
   0  12  -4   15.21    2.58
   0  12  -4   13.32    2.06
   0 -12   4   11.13    1.74
   1  12  -4   12.82    1.82
   1  12  -4   12.46    2.07
   1  12  -4   12.81    1.50
  -1 -12   4    8.33    1.81
   2  12  -4   34.20    3.41
  -2 -12   4   40.09    4.13
  -5  12  -3    0.19    1.82
  -5  12  -3    1.29    1.71
   5 -12   3    3.58    3.33
  -4  12  -3    5.54    1.71
  -4  12  -3    7.23    1.69
   4 -12   3    4.28    2.95
  -3  12  -3   28.02    2.81
  -3  12  -3   28.28    2.65
   3 -12   3   25.84    3.08
   3 -12   3   32.04    4.90
  -2  12  -3    4.96    1.33
  -2  12  -3    2.31    1.23
  -2  12  -3    6.25    1.80
   2 -12   3    4.58    1.44
  -1  12  -3   17.68    2.21
  -1  12  -3   21.96    2.97
  -1  12  -3   18.69    2.09
   1 -12   3   19.88    2.46
   0  12  -3    1.48    0.93
   0  12  -3   -1.10    1.09
   0  12  -3   -2.78    1.33
   0 -12   3    1.92    1.28
   1  12  -3   45.94    3.47
   1  12  -3   38.47    2.41
   1  12  -3   45.46    3.02
  -1 -12   3   46.11    3.33
   2  12  -3   16.37    2.47
  -2 -12   3   18.12    2.69
  -6  12  -2    9.89    2.21
  -6  12  -2    3.09    2.09
   6 -12   2    4.88    3.74
   6 -12   2    5.03    3.66
  -5  12  -2    1.55    1.65
  -5  12  -2    2.61    1.79
   5 -12   2    0.89    3.11
  -4  12  -2   26.67    2.93
  -4  12  -2   18.81    2.55
   4 -12   2   23.48    3.61
  -3  12  -2    0.74    1.24
  -3  12  -2    1.19    1.30
   3 -12   2    2.39    2.59
   3 -12   2    2.23    1.48
  -2  12  -2   37.85    2.82
  -2  12  -2   36.13    2.74
  -2  12  -2   39.49    3.43
   2 -12   2   41.46    2.91
  -1  12  -2    7.27    1.25
  -1  12  -2    7.96    1.99
  -1  12  -2    7.95    1.45
   1 -12   2    7.63    1.47
   0  12  -2   14.34    2.14
   0  12  -2   15.32    1.59
   0  12  -2   18.02    2.63
   0 -12   2   17.83    2.22
   1  12  -2   32.72    3.17
   1  12  -2   32.09    2.80
  -1 -12   2   26.86    2.86
   2  12  -2   -2.74    1.70
  -2 -12   2    1.60    2.10
  -6  12  -1   -0.42    1.81
  -6  12  -1    1.57    1.86
   6 -12   1    4.34    3.59
   6 -12   1    2.48    3.27
  -5  12  -1   22.49    2.95
  -5  12  -1   18.85    2.65
   5 -12   1   20.74    3.63
  -4  12  -1   15.27    2.31
  -4  12  -1   13.10    2.17
   4 -12   1   12.33    3.01
  -3  12  -1   17.84    2.05
  -3  12  -1   14.18    2.24
   3 -12   1   15.71    1.80
   3 -12   1   15.02    2.99
  -2  12  -1   32.04    2.55
  -2  12  -1   35.72    3.25
  -2  12  -1   29.69    2.27
   2 -12   1   30.54    2.51
  -1  12  -1    6.12    1.84
  -1  12  -1    7.55    1.17
  -1  12  -1    7.66    1.42
   1 -12   1    7.89    1.43
   0  12  -1   43.73    3.02
   0  12  -1   38.37    2.10
   0  12  -1   42.20    3.33
   0 -12   1   40.45    2.87
   1  12  -1    2.19    1.57
   1  12  -1   -0.30    1.33
  -1 -12   1    1.07    1.29
   2  12  -1   33.71    3.41
  -2 -12   1   34.10    3.79
  -6  12   0   10.01    2.34
  -6  12   0    6.91    1.88
   6 -12   0    4.20    3.27
   6 -12   0    8.95    3.42
  -5  12   0   17.93    2.66
  -5  12   0   10.37    1.80
   5 -12   0   17.89    3.61
   5 -12   0   10.78    2.61
  -4  12   0    3.26    1.42
  -4  12   0    0.29    1.38
   4 -12   0   -0.99    2.41
  -3  12   0   31.52    2.65
  -3  12   0   30.61    2.51
   3 -12   0   27.74    2.45
   3 -12   0   34.00    4.33
  -2  12   0   -0.60    2.11
  -2  12   0   -1.20    1.08
  -2  12   0   -0.60    0.97
  -2  12   0    3.50    1.81
   2 -12   0   -0.50    1.04
  -1  12   0   53.44    3.32
  -1  12   0   54.27    3.91
  -1  12   0   54.95    2.60
   1 -12   0   53.42    3.15
   0  12   0   12.59    1.98
   0  12   0   13.68    1.94
   0 -12   0    9.62    1.49
   1  12   0   15.61    2.24
   1  12   0   14.60    2.36
  -1 -12   0   12.38    1.95
   2  12   0   27.45    3.42
  -2 -12   0   34.56    3.57
  -6  12   1   14.63    2.12
  -6  12   1   12.88    2.28
   6 -12  -1   20.19    3.62
   6 -12  -1    6.64    3.08
  -5  12   1    0.10    1.35
  -5  12   1   -0.28    1.53
   5 -12  -1   -3.89    2.84
   5 -12  -1    0.22    2.63
  -4  12   1   28.88    2.76
  -4  12   1   27.16    2.57
   4 -12  -1   26.87    4.59
   4 -12  -1   25.47    2.37
  -3  12   1    7.30    1.47
  -3  12   1    7.92    1.46
   3 -12  -1    2.83    2.58
   3 -12  -1    5.90    1.23
  -2  12   1   13.65    2.17
  -2  12   1   21.09    2.85
  -2  12   1   19.36    1.77
   2 -12  -1   18.81    1.95
  -1  12   1   39.52    3.60
  -1  12   1   38.30    2.94
  -1  12   1   38.99    2.07
   1 -12  -1   43.13    2.71
   0  12   1    7.63    1.52
   0  12   1   11.90    2.17
   0 -12  -1   11.62    1.70
   1  12   1   36.99    3.59
  -1 -12  -1   43.85    3.42
  -6  12   2    0.84    1.82
  -6  12   2    3.00    1.69
   6 -12  -2    1.30    3.41
   6 -12  -2    2.70    3.21
  -5  12   2   10.85    1.97
  -5  12   2    6.64    1.71
   5 -12  -2   10.91    3.32
   5 -12  -2   10.88    2.75
  -4  12   2   14.58    2.32
  -4  12   2   13.71    2.19
   4 -12  -2   15.07    2.60
   4 -12  -2   16.01    2.03
   4 -12  -2   12.78    2.89
  -3  12   2    3.76    1.42
  -3  12   2    5.62    1.27
   3 -12  -2    3.56    1.13
   3 -12  -2    5.00    2.74
  -2  12   2   36.28    2.17
  -2  12   2   38.29    2.93
  -2  12   2   43.10    3.75
   2 -12  -2   44.19    2.63
  -1  12   2    1.28    1.56
  -1  12   2   -0.87    1.37
   1 -12  -2    0.61    1.01
   0  12   2   45.77    3.43
   0  12   2   31.25    2.94
   0 -12  -2   39.80    2.83
   1  12   2   13.90    2.38
   1  12   2    7.00    2.51
  -1 -12  -2   13.45    2.32
  -6  12   3    5.68    1.73
  -6  12   3    0.95    1.79
   6 -12  -3    4.20    3.55
   6 -12  -3    3.59    3.13
  -5  12   3   20.70    2.52
  -5  12   3   26.75    2.89
   5 -12  -3   17.34    1.96
   5 -12  -3   17.91    3.74
   5 -12  -3   16.45    3.23
  -4  12   3    1.80    1.31
  -4  12   3    1.25    1.41
   4 -12  -3    2.23    2.33
   4 -12  -3    2.27    1.10
   4 -12  -3   -0.33    2.70
  -3  12   3   21.68    2.07
  -3  12   3   21.75    2.46
   3 -12  -3   30.74    4.78
   3 -12  -3   22.25    2.03
   3 -12  -3   24.07    3.25
  -2  12   3   13.95    1.98
  -2  12   3   18.65    3.22
  -2  12   3   15.59    1.70
   2 -12  -3   16.96    1.83
  -1  12   3   21.83    2.84
   1 -12  -3   21.11    2.25
   0  12   3   24.86    3.04
   0 -12  -3   25.12    2.79
   1  12   3   -5.04    2.43
   1  12   3    2.31    3.16
  -6  12   4   14.53    2.31
  -6  12   4   11.83    2.08
   6 -12  -4    6.56    3.26
   6 -12  -4   14.19    3.98
  -5  12   4    8.52    1.94
  -5  12   4    5.96    1.82
   5 -12  -4   11.29    3.26
   5 -12  -4    7.90    3.10
   5 -12  -4    9.86    1.32
  -4  12   4    8.48    1.57
  -4  12   4   12.34    1.89
   4 -12  -4   15.21    3.34
   4 -12  -4   12.41    3.49
   4 -12  -4   11.14    1.38
  -3  12   4   27.61    3.45
  -3  12   4   21.83    2.79
  -3  12   4   27.05    2.22
   3 -12  -4   31.27    2.13
  -2  12   4    1.83    1.77
  -2  12   4    0.94    1.66
   2 -12  -4    3.46    1.03
  -1  12   4   39.76    3.52
   1 -12  -4   42.33    2.89
   0  12   4    1.03    2.21
   0  12   4   -2.63    1.82
   0 -12  -4    0.91    1.80
  -5  12   5    0.90    1.50
  -5  12   5    0.08    1.70
   5 -12  -5    0.39    1.06
   5 -12  -5   -2.43    3.08
   5 -12  -5   -0.05    2.96
  -4  12   5   22.17    2.84
  -4  12   5   27.60    2.73
   4 -12  -5   35.33    4.29
   4 -12  -5   25.64    4.11
   4 -12  -5   32.80    2.24
  -3  12   5    0.15    1.60
  -3  12   5    8.17    2.25
  -3  12   5    4.06    1.54
   3 -12  -5    4.16    1.16
  -2  12   5   30.20    3.46
  -2  12   5   18.69    2.77
   2 -12  -5   28.55    2.30
  -1  12   5    9.35    2.16
  -1  12   5    4.55    2.36
   1 -12  -5    5.58    1.53
  -5  12   6    8.93    2.48
  -5  12   6    9.37    2.19
   5 -12  -6   17.85    4.06
   5 -12  -6   15.67    3.87
  -4  12   6   12.64    2.01
   4 -12  -6   16.72    3.84
   4 -12  -6   15.03    3.51
   4 -12  -6   15.83    1.95
  -3  12   6   12.30    2.54
  -3  12   6    6.23    1.76
   3 -12  -6   10.41    1.48
  -2  12   6   27.28    3.54
   2 -12  -6   26.42    2.72
  -2  13  -7    2.74    1.96
  -2  13  -7    1.23    1.92
  -1  13  -7    4.33    2.05
  -1  13  -7   11.06    2.06
  -1  13  -7    6.55    1.88
  -3  13  -6    4.15    1.97
  -2  13  -6    0.97    2.17
  -2  13  -6    1.48    1.63
  -2  13  -6    0.42    1.65
   2 -13   6    0.40    1.96
  -1  13  -6   18.57    3.01
  -1  13  -6   23.02    3.16
  -1  13  -6   14.96    2.18
   1 -13   6   14.13    2.43
   0  13  -6    1.45    1.58
   0  13  -6   -0.06    1.57
   0  13  -6    1.11    1.81
   0 -13   6   -0.39    1.86
  -4  13  -5    9.90    2.29
  -4  13  -5    4.51    2.30
   4 -13   5    7.43    3.67
  -3  13  -5    0.65    1.64
  -3  13  -5    0.90    1.84
   3 -13   5    3.94    3.27
  -2  13  -5   16.15    2.67
  -2  13  -5   10.06    1.99
   2 -13   5    8.90    2.15
  -1  13  -5   10.92    1.93
  -1  13  -5   10.42    1.76
  -1  13  -5    9.51    2.10
   1 -13   5    9.79    1.95
   0  13  -5    9.23    2.08
   0  13  -5   10.11    1.75
   0  13  -5    6.19    1.58
   0 -13   5    7.95    1.92
  -4  13  -4    7.09    2.18
  -4  13  -4   11.09    2.20
   4 -13   4    1.55    3.43
  -3  13  -4    6.74    1.92
  -3  13  -4    7.67    2.01
   3 -13   4    7.29    3.15
  -2  13  -4   22.00    2.71
  -2  13  -4   21.72    2.95
  -2  13  -4   23.90    2.70
   2 -13   4   17.96    2.34
  -1  13  -4    0.76    1.81
  -1  13  -4    0.84    1.44
  -1  13  -4    2.74    1.48
   1 -13   4    3.65    1.66
   0  13  -4   35.15    3.47
   0  13  -4   27.87    2.71
   0  13  -4   23.99    2.42
   0 -13   4   28.45    3.09
   1  13  -4    7.95    2.03
   1  13  -4    5.04    1.60
  -1 -13   4    2.31    2.02
  -5  13  -3   12.47    2.58
  -5  13  -3   14.74    2.45
   5 -13   3    5.28    4.10
  -4  13  -3    2.45    1.91
  -4  13  -3   -0.91    1.86
   4 -13   3    3.08    3.56
  -3  13  -3   24.09    2.87
  -3  13  -3   28.66    2.94
   3 -13   3   33.48    5.52
  -2  13  -3    1.14    1.48
  -2  13  -3    2.16    2.20
  -2  13  -3    2.99    1.41
   2 -13   3    1.78    1.60
  -1  13  -3   25.32    2.50
  -1  13  -3   22.32    3.27
  -1  13  -3   20.61    2.57
   1 -13   3   17.27    2.18
   0  13  -3   12.25    1.96
   0  13  -3   13.38    1.67
   0  13  -3   11.50    2.32
   0 -13   3   10.63    1.91
   1  13  -3   11.26    2.24
   1  13  -3    5.58    1.74
  -1 -13   3    5.05    2.28
  -5  13  -2   -0.25    1.96
  -5  13  -2   -2.06    1.82
   5 -13   2   -3.13    3.76
  -4  13  -2   10.52    1.89
  -4  13  -2    8.50    1.85
   4 -13   2   16.76    3.84
  -3  13  -2   12.76    1.99
  -3  13  -2   11.47    1.82
   3 -13   2   12.68    3.31
   3 -13   2   12.29    1.90
  -2  13  -2   10.03    1.76
  -2  13  -2   13.13    2.51
  -2  13  -2   11.63    1.78
   2 -13   2   12.91    1.74
  -1  13  -2   20.33    2.21
  -1  13  -2   21.71    2.58
  -1  13  -2   20.27    3.09
   1 -13   2   21.75    2.66
   0  13  -2   -0.64    1.40
   0  13  -2    0.35    1.68
   0 -13   2    1.26    1.50
   1  13  -2   42.96    3.77
   1  13  -2   32.17    2.93
  -1 -13   2   39.36    4.26
  -5  13  -1    2.36    1.83
  -5  13  -1    7.40    2.10
   5 -13   1    3.98    3.71
  -4  13  -1   18.50    2.65
  -4  13  -1   18.30    2.85
   4 -13   1   15.98    3.56
  -3  13  -1    1.52    1.41
  -3  13  -1    1.26    1.43
   3 -13   1    0.08    1.45
   3 -13   1   -2.72    2.94
  -2  13  -1   26.87    3.66
  -2  13  -1   29.30    2.51
  -2  13  -1   29.72    2.73
   2 -13   1   27.04    2.69
  -1  13  -1    3.36    1.85
  -1  13  -1    1.33    1.41
  -1  13  -1    2.46    1.15
   1 -13   1    1.62    1.23
   0  13  -1   24.26    2.85
   0  13  -1   24.39    3.12
   0 -13   1   23.88    2.71
   1  13  -1   26.59    3.55
   1  13  -1   26.47    2.86
  -5  13   0   11.90    2.22
  -5  13   0   11.33    2.06
   5 -13   0   12.64    3.39
  -4  13   0    0.02    1.42
  -4  13   0    4.24    1.62
   4 -13   0    1.21    2.91
  -3  13   0   19.99    2.40
  -3  13   0   18.90    2.60
   3 -13   0   17.85    1.95
   3 -13   0   19.35    3.73
  -2  13   0   14.58    1.95
  -2  13   0   21.46    3.59
  -2  13   0   12.80    1.91
   2 -13   0   13.98    1.71
  -1  13   0    8.24    1.73
  -1  13   0   11.37    2.22
   1 -13   0    6.93    1.49
   0  13   0   53.09    3.86
   0  13   0   40.65    3.30
   0 -13   0   48.97    3.60
  -5  13   1    8.98    1.91
  -5  13   1    5.00    1.81
   5 -13  -1   10.52    3.27
   5 -13  -1    3.76    2.74
  -4  13   1    2.35    1.56
  -4  13   1    3.99    1.62
   4 -13  -1    0.77    1.37
   4 -13  -1    3.92    2.88
  -3  13   1   24.62    2.95
  -3  13   1   26.36    2.51
   3 -13  -1   27.24    2.56
   3 -13  -1   27.10    4.12
  -2  13   1    4.64    1.18
  -2  13   1    1.11    2.04
  -2  13   1    1.59    1.40
   2 -13  -1    2.40    1.30
  -1  13   1   28.93    3.02
  -1  13   1   28.28    3.25
   1 -13  -1   36.23    2.76
   0  13   1    9.11    1.98
   0  13   1    7.54    2.08
   0 -13  -1   11.79    1.90
  -5  13   2   -0.34    1.66
  -5  13   2    2.47    1.80
   5 -13  -2   -2.65    2.91
   5 -13  -2   -0.88    3.37
  -4  13   2   15.61    2.03
  -4  13   2   19.46    2.78
   4 -13  -2   21.88    4.00
   4 -13  -2   20.19    2.35
  -3  13   2    0.77    1.33
  -3  13   2    0.66    1.45
  -3  13   2    2.54    2.05
   3 -13  -2   -0.04    1.16
  -2  13   2   29.54    3.60
  -2  13   2   32.71    3.02
   2 -13  -2   32.08    2.57
  -1  13   2   18.92    3.14
   1 -13  -2   20.71    2.46
   0  13   2    1.29    2.27
   0  13   2    4.25    2.09
   0 -13  -2    3.91    2.22
  -5  13   3   10.65    2.00
  -5  13   3   10.47    2.16
   5 -13  -3    9.83    3.88
   5 -13  -3   12.44    3.48
  -4  13   3   16.40    2.49
  -4  13   3   14.02    2.20
   4 -13  -3   14.68    1.69
   4 -13  -3   11.37    2.73
   4 -13  -3   21.27    3.90
  -3  13   3    5.59    1.47
  -3  13   3    2.37    1.39
  -3  13   3    4.73    2.01
   3 -13  -3    6.01    1.39
  -2  13   3   29.37    3.55
  -2  13   3   25.36    2.97
   2 -13  -3   33.89    2.67
  -1  13   3   -0.54    1.66
  -1  13   3    1.00    1.91
   1 -13  -3   -0.93    1.34
  -4  13   4    0.30    1.60
  -4  13   4   -0.67    1.71
   4 -13  -4    2.44    3.44
   4 -13  -4   -0.58    3.47
   4 -13  -4    0.83    1.16
  -3  13   4   25.58    3.04
  -3  13   4   21.62    3.15
   3 -13  -4   28.43    2.43
  -2  13   4   -0.63    1.54
  -2  13   4    3.96    2.19
   2 -13  -4    3.85    1.53
  -2  14  -4   11.59    2.28
  -2  14  -4   11.78    2.61
  -2  14  -4   10.69    2.18
  -3  14  -3   11.84    2.77
  -3  14  -3    9.97    2.25
  -3  14  -3    5.78    1.85
  -2  14  -3   12.33    2.68
  -2  14  -3   17.69    2.80
  -2  14  -3   13.96    2.16
   2 -14   3   14.09    2.17
  -1  14  -3   -0.27    1.70
  -1  14  -3    4.73    2.18
  -1  14  -3    2.23    1.97
  -3  14  -2   15.67    2.80
  -3  14  -2   17.27    2.82
  -3  14  -2   18.06    2.92
   3 -14   2   18.66    2.21
  -2  14  -2    3.03    1.61
  -2  14  -2   -0.57    2.19
  -2  14  -2    0.91    1.57
   2 -14   2    2.59    1.79
  -1  14  -2   32.27    3.59
  -1  14  -2   25.42    2.99
   1 -14   2   21.77    2.52
  -4  14  -1   14.62    2.33
  -4  14  -1   13.34    2.26
   4 -14   1    6.60    3.85
  -3  14  -1    2.93    1.68
  -3  14  -1    5.98    2.27
  -3  14  -1    2.95    1.71
   3 -14   1    2.10    1.71
  -2  14  -1    8.56    2.59
  -2  14  -1   10.00    2.08
  -2  14  -1    9.24    1.62
   2 -14   1    9.55    1.84
  -1  14  -1   29.91    3.56
  -1  14  -1   28.59    3.14
   1 -14   1   28.34    3.08
  -4  14   0    8.99    2.08
  -4  14   0    5.20    1.84
   4 -14   0    8.38    3.83
  -3  14   0    4.07    1.67
  -3  14   0    3.13    1.64
  -3  14   0    5.65    2.31
   3 -14   0    5.03    1.66
  -2  14   0   21.61    3.13
  -2  14   0   22.21    2.85
   2 -14   0   19.84    2.21
  -1  14   0    1.08    2.09
  -1  14   0    1.05    1.80
  -3  14   1   16.28    2.35
  -3  14   1   20.42    2.43
  -3  14   1   14.48    2.93
   3 -14  -1   15.83    1.93
  -2  14   1    7.90    2.36
  -2  14   1    7.09    2.03
   2 -14  -1    5.64    1.60
   0   0   0    0.00    0.00
;
_shelx_hkl_checksum              48288
loop_
_space_group_symop_operation_xyz
'x, y, z'
'-x, -y, -z'
loop_
_atom_site_label
_atom_site_type_symbol
_atom_site_fract_x
_atom_site_fract_y
_atom_site_fract_z
_atom_site_U_iso_or_equiv
_atom_site_adp_type
_atom_site_occupancy
_atom_site_site_symmetry_order
_atom_site_calc_flag
_atom_site_refinement_flags_posn
_atom_site_refinement_flags_adp
U1 U 0.78904(4) 0.11143(2) 0.36198(2) 0.02860(16) Uani 1 1 d . .
O5 O 0.4395(10) 0.0952(5) 0.6263(6) 0.0360(13) Uani 1 1 d . .
O3 O 0.8802(10) -0.0370(5) 0.2300(6) 0.0387(14) Uani 1 1 d . .
O6 O 1.0326(10) 0.6531(5) 0.6041(6) 0.0407(14) Uani 1 1 d . .
O1 O 0.5977(12) 0.1174(6) 0.2230(7) 0.0439(15) Uani 1 1 d . .
O7 O 0.8983(11) 0.7739(6) 0.7113(7) 0.0517(18) Uani 1 1 d . .
O4 O 0.5702(13) 0.1774(6) 0.4718(7) 0.0572(19) Uani 1 1 d . .
O2 O 0.9643(15) 0.1163(7) 0.5040(9) 0.062(2) Uani 1 1 d . .
N2 N 1.0176(14) -0.1326(8) 0.0942(7) 0.0430(18) Uani 1 1 d . .
O8 O 0.0717(11) 0.3859(7) 0.8030(8) 0.060(2) Uani 1 1 d . .
C4 C 0.5120(13) 0.1869(7) 0.5727(8) 0.0340(19) Uani 1 1 d . .
C5 C 0.5254(13) 0.3192(7) 0.6265(8) 0.0279(17) Uani 1 1 d . .
C6 C 0.6874(13) 0.4265(8) 0.6100(8) 0.0324(17) Uani 1 1 d . .
H6A H 0.7832 0.4158 0.5624 0.039 Uiso 1 1 calc R U
N1 N 0.2341(13) 0.4781(8) 0.8106(8) 0.0438(18) Uani 1 1 d . .
O9 O 0.2697(14) 0.5817(8) 0.8707(8) 0.079(3) Uani 1 1 d . .
C1 C 1.0442(15) -0.0578(8) 0.2002(8) 0.0344(18) Uani 1 1 d . .
H1B H 1.1847 -0.0198 0.2539 0.041 Uiso 1 1 calc R U
C11 C 0.8870(15) 0.6641(8) 0.6566(9) 0.0368(19) Uani 1 1 d . .
C10 C 0.3763(14) 0.3350(8) 0.6923(8) 0.0336(18) Uani 1 1 d . .
H10A H 0.2673 0.2643 0.7036 0.040 Uiso 1 1 calc R U
C7 C 0.7052(12) 0.5485(7) 0.6644(7) 0.0289(16) Uani 1 1 d . .
C8 C 0.5526(13) 0.5663(8) 0.7272(8) 0.0343(18) Uani 1 1 d . .
H8A H 0.5574 0.6486 0.7592 0.041 Uiso 1 1 calc R U
C9 C 0.3938(13) 0.4586(8) 0.7408(7) 0.0308(17) Uani 1 1 d . .
C3 C 1.2046(18) -0.1618(12) 0.0620(11) 0.064(3) Uani 1 1 d . .
H3A H 1.1548 -0.2173 -0.0181 0.096 Uiso 1 1 calc R U
H3B H 1.3127 -0.0832 0.0572 0.096 Uiso 1 1 calc R U
H3C H 1.2691 -0.2041 0.1259 0.096 Uiso 1 1 calc R U
C2 C 0.8009(18) -0.1936(12) 0.0079(10) 0.063(3) Uani 1 1 d . .
H2B H 0.8140 -0.2441 -0.0638 0.094 Uiso 1 1 calc R U
H2C H 0.7072 -0.2485 0.0504 0.094 Uiso 1 1 calc R U
H2D H 0.7382 -0.1285 -0.0200 0.094 Uiso 1 1 calc R U
loop_
_atom_site_aniso_label
_atom_site_aniso_U_11
_atom_site_aniso_U_22
_atom_site_aniso_U_33
_atom_site_aniso_U_23
_atom_site_aniso_U_13
_atom_site_aniso_U_12
U1 0.0322(2) 0.0171(2) 0.0332(2) -0.00072(13) 0.01629(14) -0.00189(14)
O5 0.040(3) 0.017(3) 0.052(4) 0.006(2) 0.023(3) 0.003(2)
O3 0.040(3) 0.023(3) 0.053(4) -0.001(3) 0.025(3) 0.002(3)
O6 0.048(4) 0.022(3) 0.054(4) -0.001(3) 0.030(3) 0.003(3)
O1 0.048(4) 0.032(3) 0.054(4) 0.013(3) 0.017(3) 0.013(3)
O7 0.050(4) 0.021(3) 0.082(5) -0.010(3) 0.042(4) -0.005(3)
O4 0.085(5) 0.024(3) 0.075(5) 0.001(3) 0.060(4) 0.008(3)
O2 0.079(5) 0.024(4) 0.083(6) 0.009(4) 0.024(5) 0.012(4)
N2 0.052(5) 0.036(4) 0.036(4) -0.001(3) 0.017(3) 0.004(4)
O8 0.050(4) 0.043(4) 0.096(6) 0.010(4) 0.046(4) 0.009(3)
C4 0.033(4) 0.019(4) 0.055(5) 0.004(4) 0.031(4) 0.002(3)
C5 0.031(4) 0.016(4) 0.036(4) 0.000(3) 0.017(3) 0.001(3)
C6 0.031(4) 0.027(4) 0.038(4) 0.001(3) 0.019(3) 0.001(3)
N1 0.044(4) 0.038(4) 0.061(5) 0.011(4) 0.035(4) 0.014(4)
O9 0.104(7) 0.042(4) 0.104(7) -0.008(4) 0.075(6) 0.014(4)
C1 0.042(5) 0.027(4) 0.033(4) -0.001(3) 0.020(4) 0.003(4)
C11 0.044(5) 0.017(4) 0.045(5) -0.003(3) 0.021(4) -0.002(4)
C10 0.037(4) 0.027(4) 0.040(5) 0.009(3) 0.020(4) 0.006(4)
C7 0.028(4) 0.017(4) 0.036(4) -0.002(3) 0.013(3) -0.004(3)
C8 0.037(4) 0.023(4) 0.040(4) -0.002(3) 0.015(4) 0.003(4)
C9 0.037(4) 0.026(4) 0.033(4) 0.003(3) 0.023(3) 0.004(3)
C3 0.054(6) 0.073(8) 0.067(7) -0.020(6) 0.028(5) 0.021(6)
C2 0.055(6) 0.068(8) 0.050(6) -0.011(5) 0.015(5) 0.003(6)
loop_
_atom_type_symbol
_atom_type_description
_atom_type_scat_dispersion_real
_atom_type_scat_dispersion_imag
_atom_type_scat_source
C C 0.0033 0.0016 'International Tables Vol C Tables 4.2.6.8 and 6.1.1.4'
H H 0.0000 0.0000 'International Tables Vol C Tables 4.2.6.8 and 6.1.1.4'
N N 0.0061 0.0033 'International Tables Vol C Tables 4.2.6.8 and 6.1.1.4'
O O 0.0106 0.0060 'International Tables Vol C Tables 4.2.6.8 and 6.1.1.4'
U U -9.6767 9.6646 'International Tables Vol C Tables 4.2.6.8 and 6.1.1.4'
loop_
_geom_angle_atom_site_label_1
_geom_angle_atom_site_label_2
_geom_angle_atom_site_label_3
_geom_angle
_geom_angle_site_symmetry_1
_geom_angle_site_symmetry_3
O2 U1 O1 174.2(3) . .
O2 U1 O4 87.8(4) . .
O1 U1 O4 86.8(3) . .
O2 U1 O5 91.2(3) . 2_656
O1 U1 O5 90.3(3) . 2_656
O4 U1 O5 82.5(2) . 2_656
O2 U1 O3 100.7(3) . .
O1 U1 O3 85.1(3) . .
O4 U1 O3 155.2(2) . .
O5 U1 O3 74.2(2) 2_656 .
O2 U1 O7 89.3(4) . 2_766
O1 U1 O7 92.7(3) . 2_766
O4 U1 O7 133.2(2) . 2_766
O5 U1 O7 144.3(2) 2_656 2_766
O3 U1 O7 70.59(19) . 2_766
O2 U1 O6 85.3(3) . 2_766
O1 U1 O6 91.6(3) . 2_766
O4 U1 O6 80.0(2) . 2_766
O5 U1 O6 162.2(2) 2_656 2_766
O3 U1 O6 123.57(19) . 2_766
O7 U1 O6 53.28(19) 2_766 2_766
O2 U1 C11 85.3(3) . 2_766
O1 U1 C11 94.1(3) . 2_766
O4 U1 C11 106.4(2) . 2_766
O5 U1 C11 170.3(2) 2_656 2_766
O3 U1 C11 97.5(2) . 2_766
O7 U1 C11 27.0(2) 2_766 2_766
O6 U1 C11 26.4(2) 2_766 2_766
C4 O5 U1 155.3(6) . 2_656
C1 O3 U1 141.4(5) . .
C11 O6 U1 92.2(5) . 2_766
C11 O7 U1 93.6(5) . 2_766
C4 O4 U1 148.7(7) . .
C1 N2 C3 120.9(8) . .
C1 N2 C2 121.4(8) . .
C3 N2 C2 117.6(8) . .
O5 C4 O4 124.9(7) . .
O5 C4 C5 119.1(7) . .
O4 C4 C5 115.9(7) . .
C10 C5 C6 120.2(7) . .
C10 C5 C4 119.6(7) . .
C6 C5 C4 120.1(7) . .
C7 C6 C5 120.0(7) . .
O9 N1 O8 123.6(7) . .
O9 N1 C9 119.2(7) . .
O8 N1 C9 117.2(7) . .
O3 C1 N2 120.6(8) . .
O6 C11 O7 120.4(8) . .
O6 C11 C7 121.0(7) . .
O7 C11 C7 118.4(7) . .
O6 C11 U1 61.3(4) . 2_766
O7 C11 U1 59.4(4) . 2_766
C7 C11 U1 176.7(6) . 2_766
C5 C10 C9 118.0(7) . .
C6 C7 C8 120.4(7) . .
C6 C7 C11 121.2(7) . .
C8 C7 C11 118.4(7) . .
C9 C8 C7 118.0(7) . .
C10 C9 C8 123.2(7) . .
C10 C9 N1 119.0(7) . .
C8 C9 N1 117.7(7) . .
loop_
_geom_bond_atom_site_label_1
_geom_bond_atom_site_label_2
_geom_bond_distance
_geom_bond_site_symmetry_2
U1 O2 1.706(9) .
U1 O1 1.767(7) .
U1 O4 2.299(6) .
U1 O5 2.362(6) 2_656
U1 O3 2.384(5) .
U1 O7 2.423(6) 2_766
U1 O6 2.467(6) 2_766
U1 C11 2.809(8) 2_766
O5 C4 1.239(10) .
O5 U1 2.362(6) 2_656
O3 C1 1.268(10) .
O6 C11 1.250(10) .
O6 U1 2.467(6) 2_766
O7 C11 1.276(10) .
O7 U1 2.423(6) 2_766
O4 C4 1.259(10) .
N2 C1 1.316(11) .
N2 C3 1.463(12) .
N2 C2 1.453(13) .
O8 N1 1.221(10) .
C4 C5 1.492(11) .
C5 C10 1.382(11) .
C5 C6 1.396(11) .
C6 C7 1.382(11) .
N1 O9 1.199(10) .
N1 C9 1.483(10) .
C11 C7 1.494(11) .
C11 U1 2.809(8) 2_766
C10 C9 1.379(12) .
C7 C8 1.386(11) .
C8 C9 1.376(11) .
