#------------------------------------------------------------------------------
#$Date: 2021-10-24 20:53:08 +0300 (Sun, 24 Oct 2021) $
#$Revision: 270074 $
#$URL: file:///home/coder/svn-repositories/cod/cif/4/51/44/4514422.cif $
#------------------------------------------------------------------------------
#
# This file is available in the Crystallography Open Database (COD),
# http://www.crystallography.net/
#
# All data on this site have been placed in the public domain by the
# contributors.
#
data_4514422
loop_
_publ_author_name
'Zhao, Gang'
'Kumar, Dheeraj'
'Hu, Lu'
'Shreeve, Jean&#x2019;ne M.'
_publ_section_title
;
 A Safe and Scaled-Up Route to Inert Ammonia Oxide Hydroxylammonium Azide
 (H7N5O2), Hydrazinium Azide (H5N5), and Ammonium Azide (H4N4)
;
_journal_issue                   9
_journal_name_full               'ACS Applied Energy Materials'
_journal_page_first              6919
_journal_paper_doi               10.1021/acsaem.9b01447
_journal_volume                  2
_journal_year                    2019
_chemical_formula_moiety         'H4 N, N3'
_chemical_formula_sum            'H4 N4'
_chemical_formula_weight         60.07
_space_group_crystal_system      orthorhombic
_space_group_IT_number           53
_space_group_name_Hall           '-P 2ac 2'
_space_group_name_H-M_alt        'P m n a'
_symmetry_space_group_name_Hall  '-P 2ac 2'
_symmetry_space_group_name_H-M   'P m n a'
_atom_sites_solution_hydrogens   difmap
_atom_sites_solution_primary     dual
_audit_creation_date             2019-01-24
_audit_creation_method
;
Olex2 1.2
(compiled 2018.05.29 svn.r3508 for OlexSys, GUI svn.r5506)
;
_cell_angle_alpha                90
_cell_angle_beta                 90
_cell_angle_gamma                90
_cell_formula_units_Z            4
_cell_length_a                   8.9331(10)
_cell_length_b                   3.7824(4)
_cell_length_c                   8.6519(10)
_cell_measurement_reflns_used    3093
_cell_measurement_temperature    173(2)
_cell_measurement_theta_max      27.47
_cell_measurement_theta_min      3.28
_cell_volume                     292.34(6)
_computing_cell_refinement       'SAINT v8.34A (Bruker, 2013)'
_computing_data_collection       'COSMO (BRUKER, V1.61, 2009)'
_computing_data_reduction        'SAINT v8.34A (Bruker, 2013)'
_computing_molecular_graphics
;
O. V. Dolomanov, L. J. Bourhis, R. J. Gildea, J. A. K. Howard and H. Puschmann,
OLEX2: a complete structure solution, refinement and analysis program.
J. Appl. Cryst. (2009). 42, 339-341.
;
_computing_publication_material
;
O. V. Dolomanov, L. J. Bourhis, R. J. Gildea, J. A. K. Howard and H. Puschmann,
OLEX2: a complete structure solution, refinement and analysis program.
J. Appl. Cryst. (2009). 42, 339-341.
;
_computing_structure_refinement
'SHELXL (Sheldrick, Acta Cryst. A64 2008, 112-122)'
_computing_structure_solution
'SHELXT (Sheldrick, G.M. (2015). Acta Cryst. A71, 3-8)'
_diffrn_ambient_temperature      173(2)
_diffrn_detector_area_resol_mean 8.36
_diffrn_measured_fraction_theta_full 1.000
_diffrn_measured_fraction_theta_max 1.000
_diffrn_measurement_device_type  'Bruker APEX-II CCD'
_diffrn_measurement_method       \w
_diffrn_radiation_monochromator  graphite
_diffrn_radiation_type           MoK\a
_diffrn_radiation_wavelength     0.71073
_diffrn_reflns_av_R_equivalents  0.0276
_diffrn_reflns_av_unetI/netI     0.0118
_diffrn_reflns_Laue_measured_fraction_full 1.000
_diffrn_reflns_Laue_measured_fraction_max 1.000
_diffrn_reflns_limit_h_max       11
_diffrn_reflns_limit_h_min       -11
_diffrn_reflns_limit_k_max       4
_diffrn_reflns_limit_k_min       -4
_diffrn_reflns_limit_l_max       11
_diffrn_reflns_limit_l_min       -11
_diffrn_reflns_number            4901
_diffrn_reflns_point_group_measured_fraction_full 1.000
_diffrn_reflns_point_group_measured_fraction_max 1.000
_diffrn_reflns_theta_full        25.242
_diffrn_reflns_theta_max         27.482
_diffrn_reflns_theta_min         3.278
_diffrn_source                   'sealed tube'
_diffrn_standards_number         0
_exptl_absorpt_coefficient_mu    0.111
_exptl_absorpt_correction_T_max  0.7456
_exptl_absorpt_correction_T_min  0.6885
_exptl_absorpt_correction_type   analytical
_exptl_absorpt_process_details
'SADABS-2014/5 (Bruker,2014/5) was used for absorption correction. wR2(int) was 0.0510 before and 0.0428 after correction. The Ratio of minimum to maximum transmission is 0.9234. The \l/2 correction factor is 0.00150.'
_exptl_crystal_colour            colourless
_exptl_crystal_colour_primary    colourless
_exptl_crystal_density_diffrn    1.365
_exptl_crystal_description       block
_exptl_crystal_F_000             128
_exptl_crystal_recrystallization_method 'used as received'
_exptl_crystal_size_max          0.273
_exptl_crystal_size_mid          0.184
_exptl_crystal_size_min          0.1
_refine_diff_density_max         0.202
_refine_diff_density_min         -0.171
_refine_diff_density_rms         0.044
_refine_ls_extinction_coef       0.16(2)
_refine_ls_extinction_expression Fc^*^=kFc[1+0.001xFc^2^\l^3^/sin(2\q)]^-1/4^
_refine_ls_extinction_method     'SHELXL-2018/3 (Sheldrick 2018)'
_refine_ls_goodness_of_fit_ref   1.179
_refine_ls_hydrogen_treatment    refall
_refine_ls_matrix_type           full
_refine_ls_number_parameters     34
_refine_ls_number_reflns         357
_refine_ls_number_restraints     0
_refine_ls_restrained_S_all      1.179
_refine_ls_R_factor_all          0.0284
_refine_ls_R_factor_gt           0.0261
_refine_ls_shift/su_max          0.000
_refine_ls_shift/su_mean         0.000
_refine_ls_structure_factor_coef Fsqd
_refine_ls_weighting_details
'w=1/[\s^2^(Fo^2^)+(0.0437P)^2^+0.0246P] where P=(Fo^2^+2Fc^2^)/3'
_refine_ls_weighting_scheme      calc
_refine_ls_wR_factor_gt          0.0714
_refine_ls_wR_factor_ref         0.0748
_reflns_Friedel_coverage         0.000
_reflns_number_gt                318
_reflns_number_total             357
_reflns_threshold_expression     'I > 2\s(I)'
_cod_data_source_file            ae9b01447_si_002.cif
_cod_data_source_block           js119a
_cod_depositor_comments
;

2021-10-24
Z value and formula fixed to values more according to usual
chemical conventions.                 miguel
;
_cod_original_formula_sum            'H8 N8'
_cod_original_formula_weight         120.14
_cod_original_formula_moiety         '2(H4 N), 4(N1.5)'
_cod_original_formula_units_Z            2
_cod_database_code               4514422
_shelx_shelxl_version_number     2018/3
_shelx_space_group_comment
;
The symmetry employed for this shelxl refinement is uniquely defined
by the following loop, which should always be used as a source of
symmetry information in preference to the above space-group names.
They are only intended as comments.
;
_shelx_estimated_absorpt_t_max   0.989
_shelx_estimated_absorpt_t_min   0.970
_olex2_refinement_description
;
;
_shelx_res_file
;
TITL js119a_a.res in Pmna
    js119a.res
    created by SHELXL-2018/3 at 12:33:34 on 24-Jan-2019
REM Old TITL JS119A in Pmna
REM SHELXT solution in Pmna
REM R1 0.094, Rweak 0.000, Alpha 0.007, Orientation as input
REM Formula found by SHELXT: N
CELL 0.71073 8.9331 3.7824 8.6519 90 90 90
ZERR 2 0.001 0.0004 0.001 0 0 0
LATT 1
SYMM 0.5-X,-Y,0.5+Z
SYMM 0.5-X,+Y,0.5-Z
SYMM +X,-Y,-Z
SFAC H N
UNIT 16 16
EQIV $1 +X,1-Y,1-Z

L.S. 10 0 0
PLAN  2
SIZE 0.1 0.184 0.273
TEMP -100(2)
HTAB N1 N2
HTAB N1 N4_$1
BOND $H
fmap 2 53
acta
REM <olex2.extras>
REM <HklSrc "%.\\JS119A.hkl">
REM </olex2.extras>

WGHT    0.043700    0.024600
EXTI    0.158494
FVAR       1.86154
N1    2    0.750000    0.455451    0.250000    10.50000    0.02001    0.02191 =
         0.01913    0.00000    0.00185    0.00000
H1A   1    0.716123    0.330070    0.324759    11.00000    0.03338
H1B   1    0.675353    0.593575    0.215268    11.00000    0.03455
N2    2    0.631835    0.000000    0.500000    10.50000    0.02248    0.03531 =
         0.02285    0.00587    0.00000    0.00000
N3    2    0.500000    0.000000    0.500000    10.25000    0.02486    0.01821 =
         0.01423    0.00235    0.00000    0.00000
N4    2    0.500000    0.109751    0.872462    10.50000    0.02236    0.03147 =
         0.02334    0.00576    0.00000    0.00000
N5    2    0.500000    0.000000    1.000000    10.25000    0.01346    0.02015 =
         0.02328   -0.00011    0.00000    0.00000
HKLF 4




REM  js119a_a.res in Pmna
REM wR2 = 0.0748, GooF = S = 1.179, Restrained GooF = 1.179 for all data
REM R1 = 0.0261 for 318 Fo > 4sig(Fo) and 0.0284 for all 357 data
REM 34 parameters refined using 0 restraints

END

WGHT      0.0437      0.0246

REM Highest difference peak  0.202,  deepest hole -0.171,  1-sigma level  0.044
Q1    1   0.6389  0.0000  1.0000  10.50000  0.05    0.16
Q2    1   0.5000 -0.1663  0.8711  10.50000  0.05    0.16
;
_shelx_res_checksum              50686
_shelx_hkl_file
;
   0  -1   0 3557.64   94.69
   0   1   0 3490.15   95.29
   0   1   0 3516.45   94.79
   0   1   0 3426.66   94.69
   0  -1   0 3461.45   94.89
   0  -1   0 3520.85   95.29
   0  -2   0 4588.24  126.79
   0   2   0 4620.44  126.59
   0   2   0 4580.14  125.89
   0   2   0 4642.94  125.09
   0  -2   0 4722.33  126.49
   0  -2   0 4704.63  125.19
   0   3   0  171.08    6.90
   0   3   0  161.98    7.50
   0  -3   0  156.58    7.20
   0  -3   0  152.38    7.50
   0  -4   0  154.18    8.30
   0   4   0  146.69    7.20
   0  -4   0  157.18    7.90
   0   4   0  145.19    8.10
   0   0  -1   -0.90    0.10
   0   0  -1   -0.70    0.20
   0   0   1   -0.70    0.20
   0   0  -1   -1.00    0.10
   0   0   1   -1.20    0.10
   0   1   1   28.60    1.80
   0  -1  -1   29.70    1.20
   0   1  -1   28.20    1.30
   0  -1   1   28.90    1.10
   0  -1  -1   24.90    1.60
   0   1   1   30.90    1.40
   0  -1   1   28.80    1.70
   0   1  -1   35.90    1.80
   0  -1  -1   27.70    1.50
   0  -1   1   28.10    1.70
   0  -1   1   28.20    1.70
   0   1  -1   29.80    1.70
   0  -1  -1   28.40    1.70
   0   1   1   27.00    1.70
   0  -2   1  758.12   23.30
   0   2  -1  767.32   21.60
   0  -2   1  779.32   23.10
   0   2   1  785.82   22.30
   0   2   1  765.22   23.20
   0  -2  -1  755.92   23.10
   0   2  -1  771.32   22.90
   0   2  -1  798.12   23.30
   0  -2   1  781.62   21.50
   0   2   1  782.82   21.20
   0  -2  -1  780.92   23.40
   0  -3   1    0.60    0.70
   0   3   1    0.20    0.60
   0  -3  -1    0.30    0.50
   0   3  -1    0.20    0.50
   0  -3  -1    0.20    0.60
   0  -3  -1    0.60    0.60
   0  -3   1    0.00    0.50
   0   3  -1   -0.20    0.50
   0   3   1    0.80    0.60
   0   3   1   -0.20    0.50
   0  -4   1   81.39    5.50
   0   4  -1   86.69    5.90
   0  -4  -1   96.39    5.90
   0  -4   1   76.29    5.70
   0   4  -1   86.99    5.30
   0   4   1   83.49    5.80
   0   4   1   92.79    6.30
   0  -4  -1   89.49    6.00
   0   0  -2  732.83   20.80
   0   0  -2  736.03   20.40
   0   0   2  739.63   20.90
   0   0   2  740.13   21.00
   0   0   2  752.52   20.30
   0   0  -2  739.03   20.80
   0  -1  -2 8466.95  242.78
   0   1  -2 8308.17  241.78
   0   1  -2 8414.86  242.98
   0  -1   2 9251.77  242.78
   0  -1  -2 9206.18  243.18
   0   1   2 8993.80  240.08
   0   1   2 8578.24  243.18
   0   1   2 9999.00  244.78
   0  -1   2 9167.48  243.78
   0  -1   2 8906.71  243.38
   0  -1   2 8948.20  240.38
   0  -1  -2 8454.75  241.08
   0  -2   2  551.44   16.90
   0  -2  -2  547.55   16.50
   0   2   2  546.85   15.80
   0   2  -2  532.85   15.70
   0   2  -2  533.45   16.90
   0   2   2  540.75   17.40
   0  -2   2  527.05   17.10
   0   2  -2  524.85   16.80
   0  -2  -2  530.45   16.90
   0  -2  -2  542.35   15.20
   0   2   2  537.75   17.00
   0   2   2  540.95   15.20
   0  -2   2  548.05   15.00
   0  -2  -2  535.55   17.20
   0  -3  -2 1010.40   30.70
   0   3  -2  974.60   30.70
   0  -3   2 1008.30   30.50
   0   3  -2  983.50   30.20
   0   3   2  998.90   30.90
   0   3   2 1025.10   29.40
   0   3   2 1047.50   31.70
   0  -3  -2  992.10   31.10
   0  -3   2  991.60   30.90
   0   4   2  140.89    7.80
   0   4  -2  143.89    7.90
   0   4  -2  134.49    7.10
   0  -4  -2  136.39    7.90
   0  -4  -2  140.09    7.60
   0  -4   2  142.59    8.00
   0  -4   2  122.99    7.10
   0   4   2  152.48    8.40
   0   0  -3   -0.80    0.20
   0   0   3   -0.80    0.20
   0   0   3   -0.40    0.20
   0   0   3   -0.50    0.30
   0   0  -3   -0.80    0.30
   0   0  -3   -0.50    0.20
   0   1   3  403.26   13.00
   0   1  -3  403.46   12.40
   0  -1   3  406.26   12.30
   0  -1   3  409.26   12.80
   0   1  -3  408.66   11.90
   0  -1   3  418.36   13.00
   0  -1  -3  414.06   12.80
   0   1  -3  425.06   12.60
   0   1  -3  418.46   12.30
   0  -1   3  399.56   11.90
   0   1   3  410.86   12.40
   0   1   3  410.96   12.90
   0  -1  -3  405.26   12.80
   0   1   3  413.16   11.30
   0  -2  -3   17.00    1.80
   0  -2  -3   19.90    1.80
   0  -2   3   19.20    1.80
   0  -2  -3   23.50    1.40
   0   2   3   14.20    1.80
   0   2  -3   20.00    1.80
   0   2   3   21.20    2.00
   0  -2   3   19.00    2.00
   0   2  -3   13.10    1.60
   0   2  -3   20.50    1.50
   0   2   3   16.10    1.20
   0  -3   3  218.78    8.90
   0   3   3  192.88    8.80
   0  -3   3  206.48    9.20
   0  -3  -3  202.28    8.90
   0  -3  -3  225.48    9.50
   0   3   3  214.18    9.60
   0  -3  -3  204.18    8.30
   0   3  -3  209.18    8.70
   0   3  -3  203.78    8.80
   0  -4  -3   20.90    2.80
   0  -4  -3   26.80    3.30
   0  -4   3   24.70    2.90
   0   4   3   21.40    3.20
   0   4   3   16.30    2.70
   0  -4   3   22.50    3.00
   0   4  -3   22.80    2.70
   0   4  -3   19.50    2.80
   0   0  -4 2915.31   80.49
   0   0   4 3018.70   80.99
   0   0  -4 2943.21   79.69
   0   0   4 2943.81   80.69
   0   0  -4 2898.81   80.49
   0   0   4 2945.81   79.39
   0  -1   4   19.80    1.80
   0   1   4   18.00    1.80
   0   1   4   20.30    0.80
   0   1  -4   15.70    1.30
   0  -1   4   22.10    2.00
   0   1  -4   18.90    1.40
   0   1  -4   19.40    1.60
   0   1   4   18.20    1.40
   0  -1  -4   19.90    0.80
   0  -1  -4   15.50    1.60
   0  -1  -4   19.50    1.80
   0  -1   4   17.50    1.40
   0  -1  -4   22.30    1.60
   0   1  -4   18.30    1.60
   0  -1   4   21.30    1.40
   0   1   4   16.70    1.80
   0   2  -4 2025.60   56.39
   0  -2  -4 2039.80   57.39
   0   2  -4 2069.59   56.89
   0  -2   4 2030.90   57.29
   0  -2  -4 2019.80   57.49
   0  -2  -4 2051.49   55.79
   0  -2   4 1951.60   57.69
   0   2   4 1995.50   57.89
   0   2  -4 1981.00   57.19
   0   2   4 2122.19   57.19
   0   3   4  313.57   13.00
   0  -3   4  316.47   12.20
   0  -3  -4  320.47   11.90
   0  -3  -4  332.67   12.50
   0  -3   4  322.97   12.80
   0   3  -4  324.87   12.20
   0   3  -4  323.47   12.20
   0   3   4  308.87   12.20
   0   4  -4  519.45   18.40
   0   4  -4  496.35   18.50
   0  -4   4  498.25   18.30
   0  -4  -4  500.45   18.70
   0   4   4  488.85   18.60
   0   4   4  500.55   19.30
   0  -4   4  521.25   19.30
   0   0   5    0.30    0.40
   0   0   5   -0.10    0.20
   0   0  -5    0.00    0.40
   0   0  -5    0.10    0.20
   0   0  -5    0.20    0.30
   0   0   5    0.40    0.40
   0  -1  -5  105.69    5.00
   0   1  -5  109.29    4.40
   0   1   5  109.09    4.20
   0   1  -5  112.79    4.70
   0   1   5  101.39    5.00
   0   1   5   92.29    5.00
   0  -1   5  106.59    4.30
   0  -1  -5   89.19    4.30
   0  -1  -5  102.39    4.90
   0   1  -5  110.99    4.10
   0  -1   5  101.99    5.10
   0  -1   5  109.49    5.00
   0  -1   5  110.49    4.10
   0   1  -5   98.19    4.70
   0   2   5    8.20    1.60
   0  -2  -5    7.40    1.60
   0  -2   5    7.30    1.60
   0  -2  -5    7.40    1.30
   0  -2   5    7.90    1.70
   0  -2  -5    6.20    1.50
   0   2   5    9.00    1.80
   0   2  -5    6.80    1.30
   0   2   5    6.00    1.60
   0   2  -5    6.00    1.40
   0   3  -5  154.48    7.20
   0   3   5  154.88    8.10
   0  -3   5  143.49    7.30
   0   3   5  150.68    7.40
   0  -3  -5  155.28    7.70
   0  -3   5  143.59    7.60
   0   3  -5  133.89    7.10
   0  -3  -5  150.58    7.30
   0  -4   5   21.80    3.10
   0   4  -5   24.10    3.10
   0   4   5   28.50    3.70
   0  -4   5   31.00    3.80
   0  -4  -5   29.80    3.60
   0   4  -5   20.70    2.80
   0   4   5   18.20    2.90
   0   0   6  413.46   14.20
   0   0  -6  410.16   12.40
   0   0  -6  420.16   13.60
   0   0  -6  412.26   13.60
   0   0   6  400.16   13.90
   0   1  -6 2132.49   58.99
   0  -1  -6 2053.69   59.89
   0  -1   6 2138.79   59.89
   0   1  -6 2158.18   58.89
   0   1  -6 2089.69   59.49
   0  -1  -6 2111.69   59.19
   0  -1   6 2068.49   60.19
   0   1   6 2176.08   60.19
   0   1   6 2116.69   60.49
   0  -2   6  161.08    7.80
   0  -2  -6  160.58    7.70
   0  -2   6  167.98    7.60
   0   2  -6  166.68    7.30
   0   2  -6  179.28    7.30
   0   2   6  174.68    8.30
   0   2   6  167.08    7.90
   0  -2  -6  163.48    7.60
   0   3  -6  588.14   20.00
   0  -3  -6  545.95   19.80
   0  -3   6  603.64   20.90
   0  -3  -6  587.44   20.40
   0   3   6  572.44   21.10
   0   3   6  595.14   20.70
   0  -3   6  566.14   20.00
   0   4  -6   68.19    5.30
   0  -4   6   77.59    5.60
   0   4   6   75.09    5.90
   0  -4  -6   69.49    5.20
   0  -4   6   70.09    5.90
   0   4   6   68.69    6.10
   0  -4  -6   64.09    5.50
   0   0  -7   -0.10    0.40
   0   0   7   -0.20    0.40
   0   0  -7    0.00    0.40
   0   0   7    0.20    0.60
   0   1  -7    4.90    1.20
   0   1   7    1.80    1.00
   0   1  -7    3.90    1.00
   0  -1   7    4.40    1.40
   0   1   7    2.90    1.20
   0  -1  -7    5.20    1.40
   0  -1   7    4.50    1.40
   0   1  -7    3.50    1.20
   0  -1  -7    2.10    0.90
   0  -2   7   80.79    5.40
   0   2   7   80.49    5.50
   0   2   7   84.99    5.40
   0  -2  -7   79.29    5.10
   0  -2   7   75.79    5.00
   0   2  -7   81.39    4.80
   0  -2  -7   81.19    4.30
   0   2  -7   78.29    4.70
   0  -2  -7   71.49    4.90
   0  -3   7   11.70    2.40
   0   3   7   18.40    2.70
   0  -3  -7   14.20    2.80
   0  -3   7   11.20    2.60
   0   3   7   15.60    3.10
   0   3  -7   15.10    2.70
   0  -3  -7   13.30    2.60
   0   0  -8 1720.83   51.19
   0   0   8 1794.92   51.89
   0   0  -8 1785.52   51.39
   0   0   8 1797.82   52.39
   0  -1  -8  332.77   12.20
   0  -1  -8  332.07   12.90
   0  -1   8  333.87   12.80
   0   1   8  335.17   13.40
   0  -1   8  328.57   13.20
   0   1   8  324.87   13.00
   0   1  -8  325.47   11.50
   0  -1   8  344.57   13.60
   0   1  -8  328.27   12.50
   0  -2   8  729.53   24.00
   0   2   8  717.83   24.50
   0   2   8  705.63   24.80
   0   2  -8  714.03   23.30
   0   2  -8  727.73   23.40
   0  -2  -8  724.53   24.20
   0  -2   8  701.53   24.50
   0  -3   8   26.80    3.20
   0  -3  -8   21.70    3.00
   0  -3  -8   21.30    3.10
   0   3   8   24.40    3.30
   0  -3   8   23.60    3.30
   0   3  -8   24.70    3.00
   0   3   8   28.80    3.80
   0   0   9    0.20    0.80
   0   0  -9   -0.50    0.70
   0   0   9   -0.10    0.60
   0   0  -9    2.10    1.10
   0  -1  -9    3.90    1.30
   0   1   9    4.50    1.60
   0  -1  -9    4.60    1.70
   0   1   9    4.50    1.60
   0  -1   9    2.80    1.20
   0   1  -9    2.40    1.20
   0  -1   9    6.60    2.00
   0   2  -9  107.09    6.20
   0  -2   9  115.89    6.90
   0  -2  -9  113.59    7.10
   0   2  -9  120.29    6.60
   0   2   9  105.39    6.90
   0   2   9  112.09    7.40
   0  -2   9  108.39    7.10
   0   0 -10   35.10    3.50
   0   0 -10   40.50    3.70
   0   0  10   43.20    4.10
   0  -1  10  438.96   16.90
   0  -1 -10  434.56   16.70
   0   1  10  421.06   16.90
   0  -1  10  443.46   17.40
   0   1 -10  432.56   16.50
   0  -1 -10  431.26   16.00
   0   1  10  422.16   17.30
   0  -2  10   36.20    4.30
   0   2  10   36.40    4.30
   0  -2  10   36.60    4.00
   0   2 -10   36.30    3.70
   0   2  10   31.70    3.90
   0  -2 -10   35.90    4.10
   0   0 -11   -0.10    1.00
   0   0  11    0.20    1.10
   0   0  11   -0.20    1.00
   0   1  11   16.90    3.40
   0   1  11   19.70    3.30
   0  -1  11   20.60    3.20
   0  -1  11   20.50    3.20
  -1   0   0   -0.80    0.10
   1   0   0   -0.90    0.10
  -1   0   0   -0.90    0.10
  -1   0   0   -1.00    0.10
   1   0   0   -0.60    0.10
   1   0   0   -0.40    0.20
  -1   1   0   -0.20    0.20
   1   1   0    0.00    0.30
  -1  -1   0    0.00    0.30
   1   1   0   -0.10    0.20
   1  -1   0   -0.20    0.30
  -1  -1   0    0.20    0.20
  -1  -1   0   -0.30    0.20
   1  -1   0    0.00    0.30
   1   1   0    0.10    0.20
  -1   1   0   -0.30    0.30
   1   2   0   -0.20    0.20
  -1   2   0   -0.50    0.30
  -1  -2   0   -0.20    0.30
  -1   2   0    0.20    0.30
   1   2   0    0.20    0.20
   1  -2   0   -0.10    0.40
   1   2   0   -0.20    0.40
  -1  -2   0    0.10    0.40
  -1  -2   0    0.00    0.40
   1  -2   0    0.20    0.30
  -1  -2   0    0.00    0.20
   1  -2   0    0.40    0.40
  -1  -3   0    0.10    0.50
   1  -3   0   -0.60    0.40
   1  -3   0   -0.30    0.50
   1   3   0    0.40    0.60
  -1   3   0    0.20    0.50
   1   3   0    0.10    0.40
  -1   3   0    0.20    0.40
  -1  -3   0   -0.10    0.50
  -1   4   0   -0.30    0.80
  -1  -4   0    0.00    0.80
   1  -4   0   -0.20    0.80
   1   4   0    0.20    0.90
   1  -4   0   -0.10    0.80
  -1  -4   0    0.80    0.90
  -1   4   0   -0.60    0.40
   1   4   0    0.30    0.70
  -1   4   0    0.40    0.80
   1   0  -1   -3.60    0.40
  -1   0   1   -4.70    0.40
   1   0  -1   -5.00    0.40
  -1   0  -1   -5.60    0.30
  -1   0  -1   -3.80    0.30
  -1   0   1   -1.30    0.50
   1   0   1   -4.40    0.40
   1   0   1   -3.90    0.30
   1   0   1   -4.40    0.50
   1   0  -1   -4.40    0.30
  -1   0  -1   -4.10    0.40
  -1   0   1   -4.00    0.30
  -1   0   1   -4.30    0.30
  -1   0  -1   -4.00    0.40
   1  -1   1   35.50    2.00
  -1   1   1   33.10    2.00
   1  -1   1   33.10    1.90
  -1   1   1   34.00    1.50
  -1  -1  -1   35.80    1.90
  -1  -1  -1   33.70    1.80
  -1   1   1   32.90    2.00
   1   1  -1   33.70    1.80
  -1  -1  -1   36.30    2.00
   1  -1   1   35.40    1.60
   1   1  -1   32.50    1.70
  -1   1  -1   33.00    1.90
   1   1   1   33.10    1.90
   1  -1  -1   33.80    1.90
  -1   1  -1   33.00    1.80
   1   1   1   32.20    1.60
  -1  -1   1   32.90    2.00
   1  -1  -1   31.80    1.80
   1  -1  -1   29.50    1.90
   1   1   1   31.60    1.60
   1  -1  -1   34.80    1.20
  -1   1  -1   36.80    1.50
   1  -2   1  129.39    4.70
   1  -2   1  133.99    5.70
   1   2  -1  132.19    5.70
  -1   2   1  135.29    5.00
  -1   2   1  136.79    5.80
  -1  -2  -1  131.49    5.50
   1   2  -1  127.49    5.30
  -1  -2  -1  130.49    5.80
  -1  -2  -1  138.89    4.90
   1   2  -1  130.99    4.70
  -1   2   1  143.29    6.00
   1  -2   1  127.99    5.60
  -1   2  -1  130.29    5.30
  -1  -2   1  133.79    5.70
  -1   2  -1  136.49    5.70
   1   2   1  137.09    4.50
   1  -2  -1  130.59    5.70
  -1  -2   1  128.39    4.00
   1   2   1  135.09    5.10
  -1  -2   1  132.49    5.80
   1   2   1  136.79    5.70
  -1   2  -1  130.29    4.20
  -1  -2   1  128.99    5.30
   1  -2  -1  134.19    5.80
  -1  -3  -1  140.79    6.50
  -1   3   1  149.19    6.00
   1  -3   1  139.59    6.70
  -1   3   1  131.89    6.70
  -1   3   1  126.79    6.80
   1   3  -1  137.89    6.20
  -1  -3  -1  130.39    6.80
   1   3  -1  127.09    6.70
   1  -3   1  135.39    6.80
  -1   3  -1  147.49    7.00
  -1  -3   1  148.59    7.30
   1   3   1  142.39    6.90
  -1   3  -1  133.39    6.10
   1  -3  -1  152.68    5.90
   1   3   1  139.89    6.00
  -1  -3   1  138.09    6.40
   1  -3  -1  136.59    6.70
   1  -3  -1  140.09    6.90
   1  -4   1   72.49    5.20
  -1   4   1   69.49    5.50
   1   4  -1   76.79    4.90
   1  -4   1   69.59    5.30
   1   4  -1   70.99    5.30
  -1  -4  -1   84.99    5.40
  -1  -4  -1   76.99    5.60
  -1   4   1   68.99    5.20
  -1  -4   1   76.29    5.60
   1  -4  -1   84.69    5.80
  -1  -4   1   75.69    5.10
   1  -4  -1   77.59    5.30
   1   4   1   65.69    5.40
   1   4   1   77.59    5.50
  -1   4  -1   69.19    4.60
  -1   4  -1   76.49    5.50
   1   0  -2   -1.00    0.30
   1   0   2   -0.70    0.30
  -1   0  -2   -0.80    0.30
  -1   0   2   -1.10    0.20
   1   0  -2   -0.70    0.30
  -1   0  -2   -0.50    0.30
  -1   0   2   -0.90    0.30
   1   0   2   -1.60    0.20
   1   0  -2   -1.00    0.20
   1   0   2   -1.20    0.20
   1  -1   2  548.65   15.80
  -1   1   2  563.44   16.60
   1  -1   2  563.14   16.50
  -1   1   2  552.94   16.40
  -1  -1  -2  562.34   15.60
   1   1  -2  548.95   16.10
   1   1  -2  563.24   15.10
   1   1  -2  550.54   16.30
  -1   1   2  566.84   15.20
  -1  -1  -2  568.24   16.40
  -1  -1  -2  540.15   16.40
   1  -1   2  547.95   16.30
   1  -1  -2  562.54   16.40
   1   1   2  553.14   16.50
   1   1   2  549.45   16.10
   1  -1  -2  556.64   16.40
   1   1   2  547.45   15.60
  -1   1  -2  550.64   16.30
  -1  -1   2  574.54   16.80
  -1  -1   2  537.45   16.30
  -1   1  -2  551.84   15.90
   1  -1  -2  559.84   15.60
  -1   2   2  326.27   11.30
   1   2  -2  316.37   10.10
  -1  -2  -2  337.87   11.10
  -1  -2  -2  306.87   11.20
   1   2  -2  317.67   10.90
  -1  -2  -2  321.57    9.70
  -1  -2  -2  320.17   10.40
   1  -2   2  319.47    9.70
   1  -2   2  332.87   11.20
  -1   2   2  315.57   11.40
   1   2  -2  297.87   11.00
  -1   2   2  325.27    9.90
   1  -2   2  327.97   11.20
   1  -2  -2  327.87    9.00
   1  -2  -2  312.67   10.60
   1   2   2  325.67    9.80
   1   2   2  324.57   10.10
  -1   2  -2  327.57   10.90
  -1   2  -2  329.67   11.00
  -1   2  -2  317.97    9.70
   1  -2  -2  321.17   11.10
  -1  -2   2  328.07   10.80
   1   2   2  323.47   11.50
  -1  -2   2  319.67   11.10
   1   2   2  322.77   11.00
   1  -2  -2  313.47   11.30
  -1  -2   2  335.47   11.60
  -1   3   2   80.79    5.20
  -1  -3  -2   85.19    4.90
  -1  -3  -2   91.49    5.40
   1   3  -2   83.79    5.10
  -1   3   2   79.49    5.00
   1  -3   2   89.19    5.10
  -1  -3  -2   98.49    4.40
   1   3  -2   89.99    4.90
   1  -3   2   80.69    5.00
   1  -3  -2   92.79    5.20
   1   3   2   82.29    5.30
  -1  -3   2   88.79    5.30
   1   3   2   83.29    5.00
  -1   3  -2   85.79    4.80
   1  -3  -2   91.69    4.50
   1  -3  -2   75.59    5.00
   1   3   2   89.99    4.30
  -1   3  -2   85.39    5.00
  -1  -3   2   85.69    4.70
   1  -4   2    3.20    1.60
  -1   4   2    2.90    1.50
  -1  -4  -2    5.30    1.80
  -1  -4  -2    3.70    1.50
   1   4  -2    3.50    1.40
   1   4  -2    5.60    1.80
   1  -4   2    3.60    1.40
  -1   4   2    4.70    1.80
   1   4   2    4.50    1.70
  -1   4  -2    3.60    1.30
   1  -4  -2    2.00    1.20
  -1  -4   2    3.30    1.40
  -1  -4   2    2.10    1.30
   1   4   2    4.10    1.60
   1  -4  -2    2.80    1.40
  -1   4  -2    5.40    1.80
   1   0   3 2421.46   64.89
  -1   0   3 2365.06   64.49
   1   0  -3 2348.36   63.89
   1   0  -3 2362.56   64.59
   1   0  -3 2338.57   64.49
  -1   0  -3 2319.97   64.59
  -1   0   3 2338.47   64.99
  -1   0   3 2347.86   64.19
   1   0   3 2388.96   64.59
  -1   0  -3 2417.56   64.69
  -1  -1  -3 1232.08   33.50
  -1  -1  -3 1251.87   34.70
   1   1  -3 1206.88   33.40
  -1   1   3 1228.28   34.40
  -1  -1  -3 1236.18   34.10
   1  -1   3 1247.98   34.60
   1   1  -3 1225.78   34.40
  -1  -1  -3 1218.18   34.60
   1   1  -3 1216.98   34.40
   1  -1   3 1223.78   34.80
  -1   1   3 1237.48   35.10
   1  -1   3 1171.78   33.90
   1  -1  -3 1208.08   34.60
  -1   1  -3 1215.38   34.20
   1  -1  -3 1232.08   34.70
  -1   1  -3 1232.98   34.40
   1   1   3 1202.38   34.70
  -1   1  -3 1236.48   33.90
  -1  -1   3 1202.28   34.20
   1   1   3 1238.78   34.80
   1   1   3 1196.38   34.00
  -1  -1   3 1251.57   35.00
   1   2  -3  242.18    8.40
  -1  -2  -3  240.68    9.10
   1  -2   3  243.68    9.20
   1   2  -3  263.87    9.20
  -1  -2  -3  264.37    9.00
   1  -2   3  239.08    9.20
  -1   2   3  240.28    9.50
   1   2  -3  241.18    9.10
  -1  -2  -3  240.58    8.00
  -1   2   3  242.48    9.20
  -1  -2  -3  252.57    9.50
   1  -2   3  248.28    7.80
   1   2   3  253.17    8.00
   1  -2  -3  246.28    9.00
  -1  -2   3  247.38    8.90
  -1  -2   3  251.77    9.50
  -1   2  -3  243.68    9.00
   1  -2  -3  238.08    9.10
   1  -2  -3  254.77    7.60
   1   2   3  252.37    9.00
  -1   2  -3  254.27    8.20
   1   2   3  243.78    9.50
  -1   2  -3  251.57    8.90
  -1  -2   3  251.17    9.20
  -1   3   3   10.30    2.10
  -1   3   3   12.20    2.40
   1   3  -3    8.50    1.80
   1  -3   3   11.30    2.10
  -1  -3  -3    9.70    1.90
  -1  -3  -3   10.70    1.50
  -1  -3  -3   10.60    2.20
   1  -3   3    8.30    1.80
   1   3  -3   12.70    1.80
   1   3   3    9.70    2.00
  -1  -3   3   11.70    1.70
   1   3   3   11.30    2.30
  -1   3  -3    7.10    1.70
   1  -3  -3    9.70    1.90
  -1  -3   3    9.40    2.10
  -1   3  -3    8.00    1.70
   1  -3  -3   11.20    1.60
   1   4  -3    0.50    1.10
  -1   4   3    0.00    0.70
   1  -4   3    0.00    0.70
  -1  -4  -3    0.10    0.80
   1  -4   3   -0.10    0.80
  -1   4   3   -0.30    0.80
   1   4  -3   -0.20    0.70
  -1  -4  -3   -0.10    0.80
  -1  -4   3    0.70    1.10
   1   4   3    0.30    1.00
   1   4   3    0.40    1.00
  -1   4  -3    0.00    0.90
  -1  -4   3    0.60    0.90
  -1   4  -3    0.60    0.90
   1  -4  -3    0.30    0.80
  -1   0  -4    0.00    0.30
  -1   0  -4   -0.40    0.20
   1   0  -4    0.10    0.20
  -1   0   4   -0.30    0.30
   1   0  -4   -0.30    0.30
   1   0   4    0.10    0.40
  -1   0   4    0.00    0.40
   1   0  -4    0.00    0.30
  -1   0  -4    0.00    0.40
  -1   0   4   -0.10    0.20
   1   0   4   -0.20    0.30
  -1   1   4    7.20    1.30
  -1  -1  -4    5.00    1.10
  -1  -1  -4    6.80    1.00
   1  -1   4    5.40    1.20
   1  -1   4    6.00    1.00
  -1   1   4    5.80    1.30
   1   1  -4    8.60    1.10
  -1  -1  -4    6.80    1.30
  -1  -1  -4    6.20    0.60
   1   1  -4    6.70    0.80
  -1   1   4    6.90    0.90
   1   1  -4    7.00    1.00
  -1   1  -4    7.20    0.90
  -1   1  -4    7.00    1.00
  -1   1  -4    8.50    0.80
   1  -1  -4    5.80    1.10
   1   1   4    7.00    0.80
   1   1   4    7.00    1.10
   1  -1  -4    3.40    0.90
  -1   1  -4    7.80    1.00
  -1  -1   4    5.80    0.80
   1  -1  -4    5.40    0.80
   1   1   4    6.70    1.10
  -1  -1   4    7.00    1.20
  -1  -1   4    5.80    0.90
  -1   2   4    0.60    0.70
   1   2  -4   -0.10    0.30
  -1   2   4    0.60    0.50
   1  -2   4    0.60    0.60
   1  -2   4    0.20    0.50
   1   2  -4   -0.20    0.30
   1  -2   4   -0.30    0.50
  -1  -2  -4   -0.20    0.40
  -1  -2  -4    0.30    0.60
   1   2  -4    0.10    0.40
  -1  -2  -4    0.20    0.30
  -1  -2   4    0.20    0.50
  -1   2  -4    0.00    0.40
  -1   2  -4    0.10    0.40
   1  -2  -4    0.40    0.60
   1   2   4    0.10    0.40
  -1  -2   4    0.20    0.40
   1   2   4   -0.30    0.50
   1  -2  -4    0.10    0.40
   1  -2  -4    0.20    0.30
  -1  -2   4   -0.40    0.30
   1   2   4    0.30    0.60
  -1   3   4    3.80    1.40
   1  -3   4    2.90    1.30
   1  -3   4    2.40    1.20
  -1  -3  -4    3.60    1.20
   1   3  -4    3.80    1.30
  -1   3   4    3.30    1.40
   1   3  -4    2.30    1.00
  -1  -3  -4    2.90    1.20
   1   3   4    5.30    1.60
   1  -3  -4    4.90    1.40
  -1   3  -4    3.10    1.20
  -1  -3   4    3.80    1.20
   1  -3  -4    3.80    1.20
  -1  -3   4    3.20    1.20
   1   3   4    2.00    1.00
  -1   3  -4    2.00    1.00
  -1  -4  -4    2.10    1.40
  -1   4   4    0.20    1.20
   1  -4   4    2.20    1.30
   1   4  -4    0.50    1.10
   1   4  -4    3.20    1.50
   1  -4   4    2.50    1.40
  -1   4   4    1.30    1.30
   1   4   4    2.90    1.40
   1  -4  -4    1.30    1.10
  -1  -4   4    4.30    1.50
  -1   4  -4    1.70    1.20
   1   4   4    0.70    1.10
  -1   4  -4    0.70    1.00
  -1  -4   4    2.90    1.50
   1   0   5  740.63   22.40
  -1   0  -5  742.83   22.20
   1   0  -5  745.23   21.00
  -1   0   5  730.13   22.10
   1   0   5  740.23   22.50
   1   0  -5  740.53   22.00
  -1   0  -5  753.02   21.30
   1   0  -5  718.73   22.00
  -1   0  -5  760.42   22.20
  -1   0   5  747.73   21.20
  -1   0   5  735.43   22.80
   1  -1   5  516.85   16.60
   1   1  -5  534.95   16.40
   1   1  -5  507.35   15.50
  -1   1   5  533.75   15.90
  -1   1   5  514.85   16.60
  -1  -1  -5  522.65   14.80
  -1  -1  -5  525.45   16.70
   1   1  -5  527.85   16.10
   1  -1   5  500.45   16.70
  -1  -1  -5  535.75   16.10
  -1   1   5  488.05   17.00
  -1  -1   5  535.35   17.10
   1   1   5  504.45   16.80
  -1   1  -5  523.85   16.20
   1  -1  -5  518.35   16.70
   1   1   5  519.15   15.20
  -1  -1   5  527.55   15.70
   1  -1  -5  520.85   16.60
   1   1   5  512.95   16.90
  -1  -1   5  529.05   16.30
   1  -1  -5  509.55   15.90
  -1   1  -5  520.75   15.00
  -1   1  -5  505.15   16.20
  -1   1  -5  522.95   15.90
   1   2  -5   80.69    4.30
   1  -2   5   89.49    5.00
  -1   2   5   87.89    4.60
  -1  -2  -5   90.19    5.00
   1  -2   5   85.59    4.90
  -1   2   5   76.29    4.80
   1   2  -5   85.49    4.60
   1   2  -5   92.29    4.60
  -1  -2  -5   90.39    4.90
  -1   2   5   91.19    5.30
   1   2   5   86.59    4.40
   1   2   5   92.69    5.10
  -1  -2   5   81.39    4.60
   1  -2  -5   88.69    4.90
   1  -2  -5   86.79    3.90
  -1  -2   5   82.69    5.10
   1   2   5   88.49    5.20
  -1  -2   5   86.29    4.50
  -1   2  -5   89.99    4.40
   1  -2  -5   83.49    4.80
  -1   2  -5   90.59    4.30
  -1   2  -5   88.59    4.70
   1   3  -5    9.50    2.00
  -1  -3  -5    6.40    1.60
  -1   3   5    4.60    1.50
  -1   3   5    5.00    1.70
   1  -3   5    9.70    2.20
   1   3  -5    5.60    1.60
  -1  -3  -5    4.70    1.50
   1  -3   5    8.30    1.90
  -1   3  -5    5.70    1.60
   1  -3  -5    2.10    1.10
  -1  -3   5    8.50    2.20
  -1   3  -5    5.80    1.60
  -1  -3   5    8.70    1.90
   1   3   5    9.10    2.20
   1   3   5    8.80    2.10
   1   3   5    9.10    1.90
   1  -3  -5    5.80    1.60
   1  -4   5   -0.20    1.00
   1   4  -5    0.60    1.10
  -1   4   5    0.10    0.90
   1   4  -5    0.00    0.70
  -1   4   5   -1.30    0.90
  -1  -4  -5    0.20    0.90
   1  -4   5   -0.50    1.00
  -1  -4   5   -0.10    1.00
  -1   4  -5    0.50    0.80
  -1   4  -5    0.10    1.30
   1   4   5    0.40    1.10
   1  -4  -5    0.80    1.00
   1  -4  -5    0.90    1.20
   1   4   5    0.70    1.10
   1   0  -6   -0.20    0.30
  -1   0  -6    0.10    0.50
  -1   0  -6    0.30    0.30
   1   0  -6   -0.20    0.30
   1   0  -6   -0.10    0.40
  -1   0   6    0.10    0.40
   1   0   6    0.20    0.50
  -1   0  -6   -0.40    0.30
  -1   0   6   -0.10    0.50
   1   0   6   -0.30    0.40
   1   1  -6   81.39    4.30
   1  -1   6   72.89    4.40
   1   1  -6   82.09    3.80
   1  -1   6   78.19    4.50
  -1   1   6   81.79    4.90
   1   1  -6   81.09    4.00
  -1  -1  -6   72.09    4.40
  -1  -1  -6   79.69    4.10
  -1   1   6   74.59    4.40
   1   1   6   77.19    4.60
   1  -1  -6   85.79    4.70
  -1  -1   6   78.89    4.70
  -1   1  -6   76.59    3.90
  -1  -1   6   79.89    4.30
  -1   1  -6   75.99    4.00
   1   1   6   87.99    4.90
  -1   1  -6   85.49    4.40
   1  -1  -6   84.89    4.10
  -1   2   6  145.09    7.50
   1   2  -6  138.89    6.60
   1   2  -6  157.28    6.60
   1  -2   6  136.19    6.80
  -1  -2  -6  150.88    6.10
   1  -2   6  146.39    7.00
  -1  -2  -6  137.99    6.80
  -1  -2  -6  136.79    7.00
  -1   2   6  136.89    6.30
   1   2  -6  136.79    6.30
  -1   2   6  123.19    6.70
   1   2   6  139.99    7.00
   1  -2  -6  125.89    6.60
  -1  -2   6  144.39    7.30
  -1   2  -6  140.49    6.30
  -1  -2   6  145.09    6.60
   1   2   6  131.29    7.10
  -1   2  -6  140.79    6.60
   1  -2  -6  132.79    6.80
   1  -2  -6  139.89    5.80
   1   3  -6   51.89    4.10
  -1   3   6   53.79    4.40
   1  -3   6   43.90    4.00
  -1  -3  -6   45.30    4.00
  -1   3   6   46.20    3.90
  -1   3   6   43.20    4.30
  -1  -3  -6   54.39    4.20
   1   3  -6   55.39    6.00
   1  -3   6   46.40    4.00
  -1  -3   6   50.09    4.00
  -1  -3   6   42.70    4.10
   1  -3  -6   52.39    4.20
  -1   3  -6   52.09    4.10
   1  -3  -6   47.70    4.20
   1   3   6   52.29    4.40
   1   3   6   50.09    4.50
   1   4  -6    8.10    2.20
  -1  -4  -6    5.60    2.00
   1  -4   6    6.50    2.20
  -1   4   6    4.60    2.10
   1  -4   6    6.20    2.10
  -1   4   6    5.30    2.00
   1  -4  -6    7.90    2.10
  -1  -4   6    8.60    2.60
   1  -4  -6    6.70    2.20
  -1   4  -6   10.00    2.50
   1   4   6    9.60    2.70
   1   4   6    7.80    2.60
   1   0   7   -0.30    0.40
  -1   0   7   -0.30    0.40
   1   0  -7    0.60    0.60
   1   0   7    0.90    0.60
   1   0  -7    0.10    0.60
  -1   0   7    0.60    0.70
  -1   0  -7    1.10    0.70
  -1   0  -7    2.00    0.80
   1   1  -7    0.40    0.60
   1   1  -7    1.40    0.90
   1  -1   7    1.40    0.80
  -1   1   7    1.90    1.00
  -1  -1  -7    0.40    0.80
  -1  -1  -7    1.50    0.80
   1  -1   7    0.80    0.60
   1  -1   7    0.50    0.60
  -1   1   7    0.30    0.70
  -1   1  -7    2.00    0.90
   1   1   7    0.50    0.70
  -1  -1   7    0.60    0.70
  -1  -1   7    1.40    1.00
  -1   1  -7    0.20    0.60
   1  -1  -7   -0.30    0.50
  -1   1  -7    0.00    0.50
   1   1   7    0.80    0.80
   1  -1  -7    0.40    0.60
   1  -2   7   16.60    2.40
  -1  -2  -7   23.80    2.30
   1   2  -7   22.30    2.40
   1  -2   7   27.70    2.90
   1   2  -7   24.90    2.50
  -1   2   7   26.10    3.10
  -1   2   7   19.10    2.50
  -1  -2  -7   26.80    2.90
   1  -2  -7   28.20    3.00
  -1  -2   7   26.40    3.00
  -1   2  -7   18.80    2.30
  -1  -2   7   23.80    2.60
  -1   2  -7   21.60    2.40
   1  -2  -7   30.30    3.10
   1   2   7   31.40    3.20
   1   2   7   21.60    2.70
   1   3  -7   44.80    3.90
   1  -3   7   48.90    4.30
  -1  -3  -7   42.50    4.10
  -1   3   7   46.60    4.30
   1  -3   7   41.00    4.00
  -1   3   7   45.80    4.60
  -1  -3  -7   45.80    4.20
   1  -3  -7   48.60    4.30
   1   3   7   51.59    4.80
   1  -3  -7   43.30    4.00
  -1  -3   7   52.69    4.10
  -1  -3   7   42.70    4.20
  -1   3  -7   43.30    4.00
   1   3   7   46.20    4.30
  -1   0   8    0.20    0.80
  -1   0  -8    0.00    0.60
   1   0  -8   -0.40    0.50
  -1   0  -8   -0.80    0.50
   1   0   8   -0.20    0.60
  -1   0   8    0.40    0.70
   1   0  -8   -0.40    0.50
   1   0   8   -0.50    0.50
   1  -1   8    0.30    0.70
  -1   1   8    0.00    0.70
  -1  -1  -8    0.60    0.70
  -1   1   8    0.40    0.70
   1  -1   8    0.40    0.70
   1  -1   8    0.20    0.60
   1   1  -8   -0.60    0.50
  -1  -1  -8    0.20    0.60
   1  -1  -8   -0.30    0.60
  -1   1  -8    0.40    0.60
   1   1   8    0.10    0.70
  -1  -1   8   -0.10    0.60
  -1   1  -8    0.20    0.60
   1  -1  -8    0.40    0.70
   1   1   8    0.40    0.70
  -1  -1   8   -0.20    0.60
   1   2  -8    0.00    0.80
   1   2  -8    0.20    0.70
  -1   2   8   -0.50    0.60
   1  -2   8    0.80    0.90
  -1  -2  -8    0.00    0.70
  -1  -2  -8    0.60    0.90
   1  -2   8    0.00    0.70
  -1   2   8    0.70    0.90
  -1   2  -8   -0.40    0.50
  -1  -2   8    0.00    0.80
  -1  -2   8    0.10    0.80
   1   2   8   -0.10    0.80
   1   2   8   -0.30    0.70
  -1   2  -8    0.20    0.70
   1  -2  -8   -0.70    0.70
  -1  -3  -8    0.10    0.90
   1  -3   8   -0.40    0.90
  -1  -3  -8   -0.90    0.80
   1   3  -8   -0.20    0.80
  -1   3   8   -0.30    1.10
  -1   3   8    0.00    1.00
   1  -3   8   -0.40    0.70
  -1   3  -8   -0.70    0.80
  -1  -3   8    0.40    1.20
   1   3   8    0.70    1.20
   1  -3  -8    0.70    1.00
   1  -3  -8    0.10    0.90
   1   3   8    0.00    1.00
   1   0   9    0.40    0.80
   1   0   9    0.70    1.00
  -1   0  -9    0.90    0.80
  -1   0   9    0.20    0.90
   1   0  -9    0.20    0.80
  -1   0  -9    1.90    1.10
   1   0  -9    0.70    0.80
  -1   0   9    2.30    1.20
   1   0   9    0.50    0.80
  -1  -1  -9   12.30    2.30
   1  -1   9    8.50    2.20
  -1   1   9   10.60    2.50
   1  -1   9   10.20    2.30
  -1  -1  -9    8.40    2.00
   1   1  -9    6.90    1.80
  -1   1   9    6.50    1.90
  -1  -1   9    7.80    1.90
   1   1   9    7.00    2.00
  -1   1  -9    9.50    2.00
   1   1   9    8.30    2.10
   1  -1  -9    6.80    1.70
   1  -1  -9    7.90    2.00
  -1  -1   9    9.90    2.40
  -1   2   9   26.50    3.30
   1  -2   9   22.80    3.10
   1   2  -9   25.90    3.00
  -1  -2  -9   26.90    3.30
  -1  -2  -9   23.70    2.80
  -1   2   9   24.90    3.50
   1   2  -9   26.50    3.00
   1  -2   9   26.20    3.20
  -1  -2   9   24.30    3.00
   1   2   9   25.30    3.30
   1  -2  -9   23.70    3.10
   1   2   9   24.90    3.30
  -1  -2   9   22.00    3.20
  -1   2  -9   29.20    3.10
  -1   2  -9   18.00    2.60
   1   0  10   -0.10    0.80
  -1   0 -10   -0.20    0.80
  -1   0  10   -0.10    1.00
   1   0 -10    0.40    0.90
  -1   0  10   -1.00    0.80
   1   0  10    0.00    0.80
  -1   0 -10   -0.20    0.80
   1   0 -10    0.50    0.90
   1   0  10   -0.80    0.60
   1  -1  10   15.70    2.60
  -1  -1 -10   11.20    2.50
  -1  -1 -10    8.60    2.10
   1  -1  10   17.80    3.30
  -1   1  10   14.60    3.10
   1   1 -10   13.00    2.60
  -1   1  10   12.80    2.80
   1   1  10    9.80    2.60
  -1  -1  10   13.10    2.90
   1   1  10    8.50    2.30
   1  -1 -10   13.90    2.90
  -1   1 -10   14.50    2.70
  -1  -1  10   12.00    2.70
   1  -1 -10   12.00    2.40
   1   2 -10   24.70    3.10
   1  -2  10   26.20    3.50
  -1   2  10   22.20    3.50
  -1   2  10   23.80    3.30
  -1  -2 -10   20.30    3.10
  -1  -2  10   23.60    3.60
   1   2  10   20.20    3.20
   1   2  10   23.40    3.50
  -1   2 -10   23.00    3.00
   1  -2 -10   20.10    3.00
  -1   0 -11   99.99    6.40
   1   0 -11  107.79    6.60
  -1   0 -11   84.59    6.00
   1   0  11  104.29    6.70
   1   0  11   88.19    6.60
  -1   0  11  100.39    6.70
  -1   0  11   88.49    6.70
   1   0  11  100.89    6.90
  -2   0   0  612.84   17.40
   2   0   0  609.04   16.90
  -2   0   0  606.94   16.80
  -2   0   0  623.04   17.30
   2   0   0  594.04   17.30
   2   0   0  613.54   17.40
   2  -1   0 6742.43  198.58
  -2   1   0 7486.55  197.68
   2  -1   0 7358.56  195.48
   2   1   0 7234.78  198.28
   2  -1   0 7168.78  197.58
  -2   1   0 7495.75  199.38
  -2   1   0 7160.78  195.48
   2   1   0 6672.93  195.98
  -2  -1   0 7213.88  197.68
   2   1   0 7622.54  196.38
  -2  -1   0 6819.32  198.78
  -2  -1   0 7848.61  198.98
  -2  -1   0 7611.64  197.18
   2  -1   0 6809.32  198.08
   2   2   0   40.40    2.90
  -2  -2   0   48.60    3.10
  -2  -2   0   46.90    2.10
  -2   2   0   47.40    3.00
  -2   2   0   48.20    2.60
   2  -2   0   50.69    3.10
   2   2   0   46.80    2.70
  -2  -2   0   46.70    2.70
  -2  -2   0   41.30    2.90
   2   2   0   48.10    2.10
   2   2   0   50.09    2.40
   2  -2   0   47.00    2.90
  -2  -3   0  203.58    8.10
  -2   3   0  186.68    8.60
   2   3   0  201.98    8.70
   2  -3   0  190.98    7.30
   2  -3   0  206.28    8.80
   2  -3   0  181.98    8.30
  -2  -3   0  191.08    8.80
   2   3   0  205.78    8.00
  -2   3   0  204.58    7.80
  -2   3   0  198.48    8.70
   2  -4   0    2.60    1.30
  -2  -4   0    1.70    1.20
   2  -4   0    1.40    1.20
  -2   4   0    1.20    1.10
   2   4   0    0.90    1.00
  -2  -4   0    1.60    1.10
   2   4   0    3.20    1.20
  -2   4   0    1.30    1.20
   2   0   1   -1.00    0.30
  -2   0  -1   -1.20    0.20
  -2   0   1   -0.70    0.30
   2   0  -1   -0.80    0.10
   2   0   1   -1.10    0.20
  -2   0   1   -0.80    0.30
   2   0  -1   -0.70    0.30
   2   0  -1   -0.70    0.30
  -2   0  -1   -0.40    0.30
  -2  -1  -1  810.12   23.10
  -2   1   1  809.62   22.50
   2  -1   1  815.22   22.70
   2   1  -1  807.52   22.80
   2  -1   1  800.52   23.20
  -2  -1  -1  801.22   22.80
   2  -1   1  816.62   22.90
  -2   1   1  772.32   23.00
  -2  -1  -1  794.92   22.80
   2   1  -1  814.62   22.10
  -2   1   1  804.52   23.30
   2   1  -1  807.82   23.00
  -2  -1  -1  834.82   23.10
   2   1   1  801.32   22.80
  -2  -1   1  825.72   23.30
   2  -1  -1  814.72   23.10
  -2   1  -1  812.02   23.00
  -2   1  -1  810.52   23.10
  -2  -1   1  793.72   22.40
  -2   1  -1  813.42   22.40
   2  -1  -1  821.32   23.20
   2   1   1  820.12   22.80
   2  -1  -1  781.62   22.10
   2   1   1  791.62   22.80
   2  -2   1    4.80    1.20
  -2   2   1    3.70    1.00
   2  -2   1    5.90    1.20
  -2  -2  -1    5.10    1.20
  -2   2   1    6.00    1.00
  -2  -2  -1    4.10    1.00
   2   2  -1    4.70    0.90
  -2  -2  -1    4.30    1.10
   2   2  -1    3.80    0.90
  -2   2   1    5.20    1.20
   2  -2   1    5.50    0.80
   2   2  -1    4.30    1.10
  -2  -2  -1    4.80    0.70
  -2   2  -1    5.20    0.50
   2  -2  -1    3.00    0.90
   2   2   1    4.80    0.80
  -2  -2   1    5.90    1.40
  -2   2  -1    5.00    1.20
   2   2   1    6.30    0.90
   2  -2  -1    5.50    1.10
   2   2   1    5.70    1.20
  -2  -2   1    3.20    1.00
   2  -2  -1    6.60    1.30
  -2   2  -1    4.80    1.00
  -2   3   1  232.38    9.90
  -2  -3  -1  242.88   10.20
  -2   3   1  235.68   10.10
  -2   3   1  256.27    8.90
   2   3  -1  233.98    9.30
   2  -3   1  256.57   10.00
   2   3  -1  235.58   10.00
   2  -3   1  246.68    9.90
  -2  -3  -1  255.27    9.60
  -2   3  -1  244.68    9.90
   2   3   1  243.58    9.10
  -2   3  -1  223.98    9.10
   2  -3  -1  236.38    9.90
   2  -3  -1  239.78    9.90
  -2  -3   1  229.58   10.10
   2   3   1  254.37   10.10
  -2  -3   1  229.88    9.90
  -2  -3   1  245.08    9.30
  -2  -4  -1   17.00    2.70
  -2   4   1   21.10    2.90
   2   4  -1   20.80    2.60
  -2   4   1   21.20    2.90
   2  -4   1   22.10    2.90
  -2  -4  -1   22.00    2.70
   2  -4   1   23.10    2.90
   2   4  -1   21.90    3.00
   2   4   1   19.40    3.00
  -2  -4   1   25.90    2.80
  -2   4  -1   27.30    3.20
  -2   4  -1   21.90    2.60
   2   4   1   24.70    2.50
  -2  -4   1   22.60    3.10
   2   4   1   22.70    3.00
   2  -4  -1   17.70    2.60
   2  -4  -1   24.50    3.00
  -2   4  -1   22.40    3.00
   2   0   2 4860.91  129.19
  -2   0   2 4668.23  129.99
   2   0  -2 4589.84  128.69
   2   0  -2 4632.24  128.29
   2   0   2 4760.32  128.69
  -2   0  -2 5169.68  128.39
  -2   0  -2 4707.83  127.39
  -2   0   2 4674.83  128.49
   2   0   2 4822.32  128.59
  -2   0  -2 4975.70  129.69
   2   0  -2 4364.66  128.19
   2   0  -2 4210.28  127.19
  -2   0   2 4606.34  127.79
  -2   0   2 4916.41  128.69
  -2   0  -2 4861.21  127.19
  -2  -1  -2   49.90    2.50
   2  -1   2   50.59    2.80
  -2   1   2   48.20    2.70
   2  -1   2   52.89    2.60
   2   1  -2   51.59    1.90
  -2  -1  -2   48.40    2.40
   2   1  -2   50.29    2.50
  -2  -1  -2   49.80    2.70
  -2   1   2   52.59    2.80
   2  -1   2   50.29    2.40
  -2  -1  -2   54.09    2.60
   2   1  -2   52.19    2.60
  -2   1   2   53.39    1.90
   2  -1  -2   49.70    2.60
   2  -1  -2   51.99    2.10
  -2  -1   2   48.50    2.80
   2  -1  -2   51.19    2.70
  -2  -1   2   54.39    2.20
  -2   1  -2   52.09    2.30
  -2   1  -2   50.69    2.60
  -2  -1   2   50.59    2.70
   2   1   2   53.49    2.60
   2   1   2   50.79    2.60
   2   1   2   51.59    2.50
  -2  -2  -2 1167.78   34.40
  -2  -2  -2 1192.88   33.10
  -2   2   2 1179.58   34.50
  -2   2   2 1202.28   32.80
  -2  -2  -2 1173.28   33.90
   2   2  -2 1138.59   34.00
   2  -2   2 1214.58   33.20
   2   2  -2 1190.58   34.40
   2   2  -2 1210.68   33.40
   2  -2   2 1178.08   34.50
  -2   2   2 1165.48   34.50
   2  -2   2 1176.98   34.00
  -2  -2   2 1149.89   34.30
   2   2   2 1146.99   34.10
  -2   2  -2 1155.98   33.90
   2   2   2 1173.28   33.30
   2   2   2 1189.68   34.60
  -2  -2   2 1187.68   34.70
   2   2   2 1193.78   33.10
  -2   2  -2 1162.98   32.60
   2  -2  -2 1153.48   34.30
  -2   2  -2 1194.28   34.10
   2  -2  -2 1182.28   33.90
   2  -3   2   14.10    2.00
   2  -3   2   16.50    2.10
  -2  -3  -2   12.80    2.00
  -2  -3  -2   21.20    1.90
  -2  -3  -2   16.00    2.00
   2   3  -2   15.10    1.90
  -2   3   2   13.30    2.00
  -2   3   2   16.30    2.20
   2   3  -2   18.70    2.30
   2   3   2   15.50    2.10
   2  -3  -2   18.80    2.30
  -2  -3   2   14.90    2.10
  -2  -3   2   15.40    2.10
   2  -3  -2   17.20    1.90
   2   3   2   14.70    1.60
   2   3   2   19.00    2.40
   2  -3  -2   14.60    2.00
  -2  -3   2   15.70    1.90
  -2   3  -2   16.20    2.10
  -2   3  -2   19.60    2.10
  -2  -4  -2  109.89    7.20
   2  -4   2  129.79    7.30
   2   4  -2  121.39    6.80
  -2  -4  -2  118.29    6.80
  -2   4   2  118.39    7.40
   2   4  -2  137.39    7.70
   2  -4   2  127.09    7.20
  -2   4   2  122.39    7.40
  -2  -4   2  111.09    7.20
   2  -4  -2  131.29    7.50
  -2   4  -2  120.89    6.60
  -2  -4   2  130.59    6.80
   2   4   2  116.19    7.50
  -2   4  -2  128.59    7.30
   2  -4  -2  117.89    7.20
   2   4   2  119.89    7.20
  -2   0  -3   -0.10    0.30
   2   0  -3   -0.40    0.20
   2   0   3   -0.20    0.30
   2   0  -3    0.30    0.20
   2   0  -3    0.00    0.30
  -2   0  -3    0.00    0.30
  -2   0  -3   -0.10    0.30
  -2   0   3   -0.20    0.30
  -2   0  -3   -0.10    0.10
   2   0   3    0.00    0.20
  -2   0   3    0.20    0.30
  -2   0   3   -0.30    0.20
   2   0   3   -0.10    0.30
   2  -1   3   25.30    2.00
  -2   1   3   22.10    1.90
  -2   1   3   23.80    0.90
  -2  -1  -3   28.10    2.00
  -2  -1  -3   25.30    1.70
   2  -1   3   24.00    1.70
   2   1  -3   23.00    1.70
   2  -1   3   23.90    1.70
  -2  -1  -3   24.40    1.80
  -2   1   3   24.00    1.90
   2   1  -3   27.90    1.80
  -2  -1  -3   23.70    1.50
   2   1  -3   22.70    1.20
  -2  -1   3   24.90    2.10
   2   1   3   26.00    1.90
  -2   1  -3   25.50    1.70
   2   1   3   24.40    1.80
  -2   1  -3   26.00    1.50
   2  -1  -3   24.20    1.90
   2   1   3   24.70    1.50
  -2  -1   3   25.70    1.80
  -2   1  -3   23.80    1.80
  -2  -1   3   22.00    1.50
   2  -1  -3   23.40    1.80
  -2   2   3  375.16   13.20
  -2  -2  -3  396.66   12.90
   2   2  -3  394.46   12.60
   2   2  -3  365.16   12.90
  -2  -2  -3  401.06   13.50
   2  -2   3  396.06   13.50
   2  -2   3  394.36   12.10
  -2  -2  -3  379.56   13.00
   2   2  -3  392.36   13.20
  -2   2   3  399.36   13.70
   2  -2   3  402.26   13.10
  -2   2  -3  408.46   12.90
   2  -2  -3  379.76   13.20
   2   2   3  388.16   12.10
  -2   2  -3  393.36   12.00
  -2  -2   3  391.96   13.70
  -2  -2   3  401.46   13.30
   2  -2  -3  391.06   13.10
   2   2   3  375.76   12.90
   2   2   3  401.76   13.60
   2  -2  -3  394.06   11.70
  -2   2  -3  370.16   13.00
  -2  -3  -3    5.10    1.50
  -2   3   3    3.50    1.30
   2   3  -3    2.10    1.10
   2  -3   3    4.10    1.50
  -2  -3  -3    6.10    1.60
  -2   3   3    3.20    1.30
   2  -3   3    5.20    1.60
   2   3  -3    1.20    0.80
  -2  -3   3    2.10    1.10
  -2   3  -3    3.50    1.20
  -2  -3   3    4.90    1.40
   2  -3  -3    4.30    1.30
   2   3   3    4.70    1.50
  -2  -3   3    4.90    1.70
   2   3   3    5.90    1.60
  -2   3  -3    4.30    1.40
   2  -3  -3    5.00    1.50
   2   4  -3   69.69    5.00
  -2  -4  -3   65.39    4.80
   2  -4   3   60.19    4.90
   2  -4   3   59.99    5.00
  -2   4   3   67.29    5.30
  -2  -4  -3   60.59    5.20
   2   4  -3   64.29    5.20
  -2   4   3   53.59    4.70
   2  -4  -3   71.79    5.30
   2   4   3   67.29    5.50
  -2   4  -3   56.99    4.50
   2   4   3   61.39    5.00
  -2   4  -3   73.39    5.30
  -2  -4   3   61.69    5.20
   2   0   4  727.43   22.30
   2   0  -4  743.83   21.90
  -2   0   4  739.03   21.80
   2   0   4  745.33   22.30
   2   0  -4  761.62   21.10
   2   0   4  742.83   21.80
  -2   0  -4  745.03   22.20
  -2   0   4  767.12   22.80
  -2   0  -4  750.22   21.60
  -2   0  -4  763.82   22.10
   2   0  -4  761.02   22.00
   2  -1   4  652.93   19.70
  -2  -1  -4  649.93   19.60
   2  -1   4  656.63   20.40
  -2   1   4  649.04   19.90
  -2  -1  -4  659.53   20.10
   2   1  -4  676.63   19.90
  -2   1   4  647.24   20.50
  -2  -1  -4  653.43   18.90
  -2   1   4  647.64   19.90
   2   1  -4  651.73   18.80
   2   1  -4  664.63   19.60
   2  -1   4  661.83   19.60
   2   1   4  662.63   20.20
  -2   1  -4  664.83   18.70
   2   1   4  660.73   18.90
   2   1   4  659.43   20.00
   2  -1  -4  646.54   19.90
   2  -1  -4  686.83   20.20
  -2  -1   4  668.13   20.60
  -2  -1   4  666.43   19.40
  -2  -1   4  652.73   19.70
  -2   1  -4  656.03   19.80
  -2   1  -4  658.83   19.60
   2  -1  -4  664.13   19.30
   2   2  -4    2.60    0.80
  -2  -2  -4    1.90    0.80
   2  -2   4    3.90    1.20
   2   2  -4    2.20    0.80
   2  -2   4    3.50    0.80
   2  -2   4    2.70    1.00
  -2   2   4    2.60    1.00
  -2  -2  -4    3.10    1.00
  -2   2   4    1.20    0.80
  -2  -2   4    2.50    0.90
  -2   2  -4    2.00    0.70
   2   2   4    2.60    1.00
   2  -2  -4    5.00    1.30
   2   2   4    2.30    1.00
   2  -2  -4    2.40    0.90
  -2   2  -4    2.60    1.00
   2   2   4    1.90    0.80
  -2  -2   4    1.20    0.80
  -2  -3  -4  489.15   16.30
  -2  -3  -4  483.95   16.90
   2   3  -4  473.65   16.90
  -2   3   4  462.35   16.90
   2   3  -4  464.15   16.70
  -2   3   4  473.25   17.60
   2  -3   4  481.05   17.20
   2  -3   4  484.85   16.90
   2   3   4  493.85   16.80
  -2   3  -4  478.25   16.50
   2   3   4  457.35   17.20
   2  -3  -4  484.65   16.60
  -2   3  -4  494.65   16.90
  -2  -3   4  479.85   17.00
   2  -3  -4  480.35   17.10
  -2  -3   4  495.55   17.60
  -2   4   4   84.99    6.10
  -2  -4  -4   86.09    5.90
   2  -4   4   91.99    6.20
   2   4  -4   95.89    6.00
   2   4  -4   88.39    6.10
  -2   4   4   84.49    6.40
   2  -4   4   69.79    5.70
  -2   4  -4   79.39    5.60
  -2   4  -4   88.99    5.90
   2   4   4   97.59    6.30
   2   4   4   89.99    6.50
   2  -4  -4   84.79    6.00
  -2  -4   4  105.69    6.90
  -2   0   5   -0.20    0.30
   2   0   5    0.00    0.40
  -2   0   5    0.10    0.50
   2   0   5   -0.30    0.30
   2   0  -5   -0.10    0.20
   2   0  -5    0.50    0.40
   2   0  -5   -0.10    0.40
  -2   0   5   -0.30    0.30
   2   0   5   -0.20    0.40
  -2   0  -5   -0.20    0.40
  -2   0  -5   -0.10    0.30
  -2   1   5   25.50    2.50
  -2   1   5   22.90    2.10
  -2   1   5   18.90    1.80
  -2  -1  -5   22.10    1.90
   2  -1   5   22.30    2.00
  -2  -1  -5   20.40    2.00
   2  -1   5   26.20    2.00
  -2  -1  -5   24.80    1.50
   2   1  -5   24.70    1.90
   2  -1   5   23.60    2.20
   2   1  -5   20.90    2.00
   2   1  -5   26.80    1.70
   2  -1  -5   30.30    2.40
  -2   1  -5   23.50    2.00
   2   1   5   23.90    2.20
   2   1   5   22.00    2.10
   2  -1  -5   24.20    1.80
  -2   1  -5   21.50    1.90
   2  -1  -5   27.90    2.20
  -2  -1   5   19.50    2.20
  -2  -1   5   22.20    1.90
   2   2  -5  206.38    8.20
  -2   2   5  205.48    8.50
  -2   2   5  220.18    9.50
   2  -2   5  215.88    8.60
  -2  -2  -5  203.68    8.70
   2   2  -5  214.78    8.40
   2   2  -5  213.98    8.60
   2  -2   5  203.58    8.90
  -2  -2  -5  218.78    8.00
  -2  -2  -5  215.48    8.70
   2   2   5  208.18    8.90
  -2  -2   5  214.48    8.40
  -2  -2   5  206.88    9.20
  -2   2  -5  222.78    8.10
  -2   2  -5  210.08    8.60
   2  -2  -5  202.58    8.70
   2  -2  -5  210.58    8.70
   2   2   5  209.98    8.90
  -2  -3  -5    0.40    0.70
   2   3  -5    1.50    0.90
  -2   3   5   -0.30    0.80
   2   3  -5    2.80    1.10
   2  -3   5    1.20    1.00
  -2  -3  -5    0.60    0.80
  -2   3   5    2.20    1.10
   2  -3   5    1.70    1.10
   2  -3  -5    3.00    1.40
   2   3   5    1.90    1.10
   2  -3  -5    1.80    1.10
  -2  -3   5    1.20    1.10
   2   3   5   -0.20    0.70
  -2  -3   5    1.50    1.00
  -2  -3   5    1.90    1.00
  -2   3  -5    0.10    0.70
   2   3   5    1.30    1.10
   2  -4   5   74.19    5.70
   2   4  -5   75.49    5.50
   2  -4   5   67.29    5.50
  -2   4   5   68.69    5.90
  -2   4   5   75.29    5.80
   2   4  -5   60.49    5.10
  -2  -4  -5   80.29    5.70
   2   4   5   72.19    5.60
   2  -4  -5   64.59    5.30
   2  -4  -5   78.59    5.30
  -2   4  -5   69.09    5.30
   2   4   5   69.09    5.90
  -2  -4   5   67.29    5.80
   2   0   6  907.11   27.60
  -2   0   6  912.31   26.90
   2   0   6  910.71   27.10
   2   0  -6  907.21   27.00
  -2   0  -6  936.91   27.20
  -2   0  -6  906.11   27.30
  -2   0   6  873.21   27.90
   2   0  -6  894.01   27.00
  -2   0   6  904.41   26.20
   2   0   6  876.31   27.30
   2  -1   6    2.90    1.00
  -2   1   6    1.40    0.70
  -2  -1  -6    1.60    0.70
   2  -1   6    2.20    1.00
  -2  -1  -6    1.10    0.80
   2  -1   6    2.00    0.90
   2   1  -6    1.40    0.70
  -2   1   6    3.50    1.20
   2   1  -6    2.10    0.80
  -2   1   6    2.30    0.90
   2   1  -6    2.80    1.00
   2  -1  -6    2.50    0.90
  -2  -1   6    1.80    0.90
  -2  -1   6    2.60    0.90
  -2   1  -6    0.50    0.60
   2   1   6    2.00    0.90
  -2  -1   6    2.90    1.10
   2   1   6    1.50    0.80
   2  -1  -6    1.70    0.80
   2  -1  -6    3.80    1.10
  -2   1  -6    1.20    0.60
  -2   2   6  513.25   17.00
  -2  -2  -6  510.85   17.40
  -2  -2  -6  501.55   16.40
  -2   2   6  504.85   18.10
  -2  -2  -6  512.55   17.50
  -2   2   6  495.25   17.40
   2  -2   6  511.75   17.20
   2   2  -6  504.05   16.80
   2   2  -6  511.25   17.00
   2   2  -6  516.45   17.00
   2  -2   6  495.15   17.60
  -2  -2   6  488.45   16.60
   2   2   6  508.65   17.70
   2  -2  -6  508.55   17.40
   2  -2  -6  505.95   17.50
   2   2   6  504.15   17.70
  -2  -2   6  492.15   18.00
  -2   2  -6  513.35   17.00
  -2   2  -6  497.65   16.50
   2  -3   6    4.80    1.60
   2   3  -6    5.10    1.60
   2  -3   6    2.20    1.20
  -2   3   6    3.10    1.60
  -2   3   6    4.90    1.60
  -2   3   6    3.70    1.60
   2   3  -6    3.60    1.40
  -2  -3  -6    7.00    1.80
  -2  -3  -6    3.40    1.50
   2   3   6    8.20    2.20
   2  -3  -6    7.70    1.90
  -2   3  -6    2.80    1.20
   2   3   6    4.80    1.70
  -2  -3   6    1.70    1.10
   2  -3  -6    0.50    0.80
   2  -4   6   75.09    5.90
  -2  -4  -6   79.49    5.90
   2   4  -6   65.09    7.90
   2   4  -6   64.09    5.70
  -2   4   6   73.19    5.70
  -2   4   6   69.29    7.00
   2  -4  -6   61.19    5.50
   2   4   6   58.49    5.30
   2   4   6   75.59    6.30
  -2  -4   6   88.99    6.90
  -2   4  -6   74.99    6.10
   2  -4  -6   78.39    5.60
  -2   0  -7   -0.40    0.50
   2   0   7   -0.20    0.40
  -2   0  -7    0.10    0.40
   2   0  -7    0.10    0.60
  -2   0   7   -0.30    0.40
   2   0   7    0.80    0.60
   2   0  -7   -0.10    0.50
  -2   0   7   -0.30    0.30
  -2   0  -7   -0.20    0.50
   2   0   7   -0.20    0.50
   2   1  -7   49.99    3.50
  -2   1   7   37.00    3.20
  -2   1   7   43.30    3.70
   2  -1   7   48.90    3.80
   2  -1   7   35.10    2.90
  -2  -1  -7   50.09    3.70
  -2  -1  -7   44.00    3.20
   2  -1   7   48.00    3.50
   2   1   7   45.00    3.50
   2   1   7   47.40    3.80
  -2  -1   7   49.00    4.00
   2  -1  -7   45.10    3.50
  -2   1  -7   43.60    3.10
  -2   1  -7   38.90    3.00
   2  -1  -7   50.19    3.20
  -2   1  -7   41.00    3.20
  -2  -1   7   39.90    3.10
  -2  -2  -7    1.30    0.80
  -2  -2  -7    0.90    0.80
  -2   2   7    0.50    0.90
   2   2  -7    0.00    0.60
   2  -2   7    0.30    0.70
  -2   2   7    0.20    0.80
   2  -2   7    0.00    0.80
   2   2  -7    0.20    0.70
   2   2   7   -0.10    0.70
   2  -2  -7    0.60    0.80
  -2  -2   7    1.00    0.80
  -2   2  -7   -0.10    0.60
  -2  -2   7    2.20    1.20
   2  -2  -7   -0.40    0.50
  -2   2  -7    0.50    0.60
   2   2   7   -0.10    0.70
   2   3  -7   79.89    5.40
  -2  -3  -7   79.89    5.50
  -2   3   7   73.19    6.00
   2   3  -7   86.79    7.60
  -2   3   7   72.09    5.50
  -2  -3  -7   75.69    5.60
   2  -3   7   81.09    5.80
  -2   3  -7   80.09    5.40
   2   3   7   79.69    5.80
   2  -3  -7   75.89    5.50
   2  -3  -7   67.19    5.20
   2   3   7   84.89    6.20
  -2  -3   7   90.29    6.30
   2   0   8   89.39    5.50
  -2   0   8   93.99    6.10
   2   0   8  106.69    6.10
   2   0  -8   94.89    5.40
   2   0  -8  102.49    5.40
  -2   0  -8  109.09    5.80
  -2   0   8  117.69    5.90
   2   0   8   94.09    5.60
  -2   0  -8   97.29    5.50
   2  -1   8  665.53   21.70
  -2   1   8  669.13   23.10
   2  -1   8  653.03   22.10
  -2   1   8  678.33   22.30
  -2  -1  -8  656.73   22.40
   2  -1   8  646.24   22.50
   2   1  -8  670.83   22.00
  -2  -1  -8  668.23   21.70
  -2   1  -8  670.03   21.10
  -2   1  -8  680.03   22.00
   2  -1  -8  659.73   21.30
  -2   1  -8  670.53   21.50
   2  -1  -8  676.33   22.40
  -2  -1   8  684.13   23.20
   2   1   8  688.63   22.80
  -2  -1   8  680.63   21.80
   2   1   8  670.23   22.50
  -2  -2  -8    2.80    1.20
   2   2  -8    2.90    1.20
  -2   2   8    1.80    1.20
  -2  -2  -8    3.00    1.40
   2  -2   8    2.40    1.40
   2   2  -8    4.90    1.50
  -2   2   8    1.10    1.10
  -2   2  -8    4.80    1.50
  -2  -2   8    5.70    1.90
  -2   2  -8    2.20    1.10
   2   2   8    3.20    1.40
   2   2   8    5.80    1.90
   2  -2  -8    5.40    1.80
   2  -2  -8    1.50    1.00
   2   3  -8   74.79    5.40
   2  -3   8   75.29    5.80
   2   3  -8   81.69    6.40
  -2   3   8   67.49    5.60
  -2  -3  -8   62.79    5.20
  -2   3   8   79.09    6.40
  -2  -3   8   66.79    5.80
   2   3   8   75.49    6.00
   2   3   8   72.49    5.90
   2  -3  -8   73.19    5.70
  -2   3  -8   76.19    5.50
   2  -3  -8   74.29    5.60
  -2   0   9    0.30    0.80
   2   0   9   -0.20    0.80
   2   0   9    0.80    1.10
  -2   0   9    0.30    0.80
   2   0  -9    0.10    0.70
  -2   0  -9   -0.10    0.70
   2   0  -9    0.40    0.70
   2   0   9   -0.40    0.80
  -2   0  -9    0.50    0.70
   2  -1   9   37.60    3.80
  -2   1   9   33.80    3.50
   2   1  -9   34.20    3.40
  -2  -1  -9   40.00    3.80
  -2  -1  -9   35.10    3.30
   2  -1   9   39.90    3.50
  -2   1   9   39.30    4.00
   2   1   9   34.70    3.60
   2  -1  -9   36.10    3.50
   2  -1  -9   29.00    2.90
  -2   1  -9   34.50    3.40
  -2  -1   9   34.60    3.80
   2   1   9   33.50    3.60
  -2  -1   9   44.90    4.30
  -2   2   9    1.90    1.40
  -2   2   9    2.70    1.40
   2   2  -9    1.60    1.10
  -2  -2  -9    1.30    1.20
  -2  -2  -9    1.20    1.10
   2  -2   9    2.40    1.50
  -2   2  -9    2.40    1.30
   2   2   9    1.70    1.30
  -2   2  -9    1.90    1.30
   2   2   9    1.70    1.30
  -2  -2   9    0.90    1.10
   2  -2  -9    2.10    1.40
   2   0  10  187.28    9.60
  -2   0  10  171.78    8.80
  -2   0 -10  171.98    8.80
   2   0  10  174.48    9.10
   2   0 -10  185.28    8.80
  -2   0  10  177.88    9.70
  -2   0 -10  203.98    9.30
   2  -1  10    1.10    1.10
  -2  -1 -10    1.70    1.20
  -2   1  10    0.70    1.10
  -2  -1 -10    0.80    1.00
  -2   1  10    0.20    0.90
   2   1 -10    1.30    1.00
  -2   1 -10    1.50    1.20
  -2  -1  10    0.40    1.10
   2   1  10    0.90    1.30
   2  -1 -10    1.60    1.30
   2   1  10    2.90    1.50
   2  -1 -10    1.10    0.90
   2   2 -10  117.99    7.00
  -2   2  10  112.29    7.30
  -2   2  10  104.09    8.80
  -2  -2 -10  102.39    6.50
   2  -2  10  103.39    7.20
   2  -2 -10  115.19    8.40
   2   2  10  114.49    7.60
  -2  -2  10  106.49    7.70
  -2   2 -10  106.89    6.70
   2   0  11    0.10    1.00
   2   0 -11   -0.10    0.90
   2   0  11    0.00    1.20
  -2   0 -11    0.10    1.10
  -2   0  11    0.20    1.10
  -3   0   0   -0.80    0.30
   3   0   0   -0.80    0.20
  -3   0   0   -0.70    0.20
   3   0   0   -0.80    0.30
   3   0   0   -0.90    0.30
  -3   0   0   -0.80    0.20
  -3  -1   0    0.00    0.20
   3   1   0   -0.30    0.20
  -3   1   0   -0.20    0.40
   3   1   0   -0.10    0.20
   3  -1   0    0.00    0.20
  -3   1   0    0.00    0.20
  -3   1   0    0.00    0.30
   3  -1   0    0.20    0.30
   3   1   0   -0.30    0.20
   3  -1   0    0.10    0.40
   3   1   0   -0.30    0.30
  -3  -1   0    0.10    0.40
  -3  -1   0   -0.40    0.20
  -3   2   0    0.00    0.40
   3  -2   0    0.10    0.40
   3  -2   0    0.00    0.40
   3  -2   0    0.00    0.20
  -3  -2   0    0.20    0.50
   3   2   0    0.00    0.30
  -3   2   0    0.30    0.30
  -3   2   0   -0.30    0.40
  -3  -2   0   -0.20    0.30
   3   2   0   -0.30    0.40
   3   2   0    0.20    0.40
  -3  -2   0    0.00    0.40
   3  -2   0    0.30    0.50
   3   2   0    0.20    0.40
   3   3   0    0.00    0.60
  -3  -3   0   -0.20    0.60
  -3   3   0    0.20    0.50
  -3   3   0    0.00    0.60
   3  -3   0    0.20    0.60
  -3  -3   0    0.70    0.60
   3  -3   0    0.50    0.60
  -3  -3   0   -0.10    0.60
   3   3   0    0.10    0.60
  -3   3   0    0.40    0.40
   3  -4   0    0.40    0.80
  -3  -4   0   -1.00    0.60
   3   4   0    0.00    1.00
   3   4   0    0.80    0.80
  -3   4   0    0.20    0.80
  -3   4   0   -0.50    0.80
   3  -4   0    0.20    0.90
  -3  -4   0   -0.20    0.80
   3   0  -1 2635.14   74.69
  -3   0   1 2832.62   75.09
   3   0   1 2804.92   75.09
  -3   0  -1 2686.43   74.79
  -3   0   1 2736.73   74.59
  -3   0   1 2786.42   75.09
   3   0   1 2682.43   74.49
  -3   0  -1 2924.01   74.89
   3   0  -1 2761.42   74.49
   3   0   1 2618.14   74.69
   3   0  -1 2742.33   74.89
  -3  -1  -1 1455.65   41.90
   3  -1   1 1502.05   41.40
  -3   1   1 1522.65   42.50
  -3   1   1 1495.95   41.50
   3   1  -1 1525.65   42.10
   3   1  -1 1512.75   41.40
  -3  -1  -1 1528.45   42.00
   3  -1   1 1500.45   42.30
  -3  -1  -1 1532.15   42.20
   3   1  -1 1507.85   42.00
  -3  -1  -1 1536.55   41.60
   3  -1   1 1517.15   42.20
  -3   1  -1 1479.45   41.50
  -3   1  -1 1540.75   42.20
   3  -1  -1 1488.55   41.30
  -3  -1   1 1533.75   42.30
  -3   1  -1 1516.15   42.00
   3  -1  -1 1492.75   42.30
  -3  -1   1 1529.35   40.90
   3  -1  -1 1507.75   42.00
  -3  -1   1 1545.05   42.50
   3   1   1 1518.65   41.60
   3   1   1 1498.85   42.00
  -3  -1   1 1493.35   42.00
   3   1   1 1457.95   41.80
  -3  -2  -1  228.58    8.80
   3   2  -1  230.58    8.10
  -3   2   1  238.38    9.00
  -3  -2  -1  245.58    8.00
   3  -2   1  239.28    7.20
   3  -2   1  242.38    8.30
  -3   2   1  239.28    8.90
   3  -2   1  242.38    9.10
   3   2  -1  223.08    8.50
  -3   2   1  238.68    8.00
   3  -2   1  232.48    8.50
   3  -2  -1  222.38    8.60
   3   2   1  240.38    8.00
  -3  -2   1  237.28    9.10
   3   2   1  245.78    8.50
   3  -2  -1  243.28    9.00
  -3   2  -1  228.08    8.90
   3  -2  -1  239.78    8.60
  -3  -2   1  235.78    9.10
   3   2   1  241.48    8.90
  -3   2  -1  227.18    8.40
   3   2   1  231.18    8.10
  -3  -2   1  245.38    8.00
  -3  -3  -1   24.00    2.30
   3   3  -1   19.40    2.40
  -3  -3  -1   20.00    2.50
   3   3  -1   18.70    2.10
   3  -3   1   23.30    2.00
   3  -3   1   22.40    2.40
   3  -3   1   20.50    2.40
  -3   3   1   16.60    2.30
  -3   3   1   21.80    2.00
  -3  -3  -1   20.10    2.40
  -3   3   1   21.20    2.50
  -3  -3   1   24.80    2.70
  -3  -3   1   21.50    2.60
   3  -3  -1   14.90    2.10
   3   3   1   18.90    2.00
   3  -3  -1   25.30    2.20
   3  -3  -1   22.00    2.50
  -3   3  -1   29.70    2.50
   3   3   1   18.70    2.30
  -3   3  -1   19.00    2.40
   3  -4   1    0.00    0.80
   3   4  -1   -0.40    0.90
  -3  -4  -1    0.70    0.80
   3  -4   1    1.50    1.10
   3   4  -1   -0.10    0.70
  -3  -4  -1   -0.50    0.80
  -3   4   1   -0.10    0.90
  -3   4   1    0.30    1.00
  -3   4  -1    0.50    0.90
   3  -4  -1    0.40    1.00
  -3   4  -1    0.90    0.90
   3  -4  -1   -0.10    0.90
  -3   4  -1    1.40    1.20
   3   4   1    1.40    1.00
   3   4   1    1.60    1.10
  -3  -4   1    0.10    0.90
   3   4   1    1.20    1.30
  -3   0  -2   -0.10    0.30
  -3   0  -2   -0.40    0.20
  -3   0  -2    0.10    0.20
  -3   0   2   -0.10    0.30
   3   0  -2   -0.40    0.20
   3   0   2   -0.10    0.10
  -3   0   2    0.00    0.20
   3   0   2   -0.10    0.30
   3   0  -2   -0.20    0.10
   3   0   2    0.00    0.30
  -3   0   2    0.10    0.20
   3   0  -2    0.00    0.30
  -3   0   2   -0.10    0.30
  -3   1   2  175.08    6.60
  -3  -1  -2  184.78    6.50
  -3   1   2  180.98    5.70
  -3   1   2  177.18    6.80
   3   1  -2  171.88    6.40
   3   1  -2  178.88    5.70
   3  -1   2  178.48    6.50
  -3  -1  -2  181.38    6.40
   3  -1   2  167.68    6.60
   3  -1   2  173.28    5.80
  -3  -1  -2  182.38    6.20
   3   1  -2  175.38    6.40
   3   1   2  174.38    6.30
   3  -1  -2  176.18    6.70
  -3  -1   2  185.98    6.80
   3  -1  -2  179.58    6.30
  -3   1  -2  176.68    6.50
  -3  -1   2  183.28    5.40
  -3  -1   2  170.28    6.70
   3   1   2  178.98    6.30
  -3   1  -2  174.58    6.10
   3  -1  -2  185.28    6.00
   3   1   2  172.48    6.50
  -3  -2  -2  357.86   11.50
   3  -2   2  352.46   12.60
   3   2  -2  362.56   12.20
   3   2  -2  358.76   11.70
  -3   2   2  355.16   11.00
  -3   2   2  365.96   12.60
  -3  -2  -2  356.96   11.60
  -3  -2  -2  362.76   12.40
   3  -2   2  365.36   11.90
  -3  -2  -2  354.86   11.90
  -3  -2  -2  366.56   12.30
  -3   2   2  358.16   12.60
  -3  -2   2  335.77   12.60
  -3  -2   2  368.66   11.30
   3   2   2  350.36   12.50
   3  -2  -2  357.76   12.10
   3   2   2  366.16   11.80
   3   2   2  365.16   12.30
   3   2   2  370.56   11.80
   3  -2  -2  350.46   12.30
  -3   2  -2  357.36   10.90
  -3   2  -2  358.16   12.20
   3   2   2  363.06   11.60
  -3  -2   2  346.17   12.50
  -3   2  -2  361.26   12.10
  -3  -3  -2   73.49    4.30
  -3   3   2   64.69    4.50
   3  -3   2   67.79    4.40
   3  -3   2   74.69    4.80
   3   3  -2   69.79    4.30
  -3  -3  -2   77.69    4.90
  -3   3   2   70.99    4.70
   3   3  -2   64.19    4.60
  -3  -3   2   61.09    4.40
  -3   3  -2   68.69    4.50
   3  -3  -2   68.69    4.60
  -3  -3   2   68.39    4.80
   3  -3  -2   68.09    4.10
   3   3   2   72.69    4.90
   3   3   2   61.79    3.80
  -3   3  -2   61.09    4.10
   3   3   2   68.89    4.50
   3   4  -2    7.60    2.30
  -3  -4  -2    6.50    1.70
  -3   4   2    5.20    1.90
  -3   4   2    2.60    1.60
   3  -4   2    5.80    1.90
   3   4  -2    4.60    1.60
  -3  -4  -2    3.60    1.60
   3  -4   2    5.60    1.80
   3   4   2    6.20    2.10
  -3  -4   2    7.20    2.10
   3  -4  -2    5.20    1.80
  -3   4  -2    5.70    1.90
   3   4   2    4.60    1.70
  -3   4  -2    4.50    1.60
   3   0  -3    0.80    0.60
   3   0   3    1.70    0.80
  -3   0   3    1.70    0.50
   3   0  -3    3.60    0.60
   3   0   3    0.80    0.60
   3   0  -3    2.40    0.80
  -3   0  -3    1.90    0.70
  -3   0   3    1.70    0.70
  -3   0  -3    1.40    0.70
  -3   0  -3    1.70    0.50
  -3   0   3    2.20    0.80
   3   0   3    5.10    0.60
  -3   0   3    2.40    0.60
   3   1  -3   10.00    1.30
   3  -1   3   10.30    1.00
   3  -1   3   12.90    1.40
  -3   1   3   12.20    1.50
  -3  -1  -3   12.50    1.10
   3  -1   3   11.40    1.40
  -3   1   3   11.10    1.40
  -3   1   3   12.60    0.80
  -3  -1  -3   10.10    1.20
  -3  -1  -3   12.80    1.40
   3   1  -3   12.90    1.30
  -3  -1  -3   11.10    1.10
   3   1  -3   12.10    1.00
   3   1   3    9.00    1.30
   3  -1  -3    9.00    1.20
  -3  -1   3   10.50    1.40
  -3   1  -3    9.50    1.20
  -3   1  -3   14.20    1.20
   3   1   3   10.50    1.20
   3  -1  -3   10.10    1.20
  -3  -1   3    9.90    0.90
  -3   1  -3   11.80    1.30
   3   1   3   11.10    1.10
   3   1   3    7.30    1.10
  -3  -1   3    9.30    1.30
  -3  -2  -3  119.69    5.60
  -3  -2  -3  122.99    5.40
   3   2  -3  122.19    5.30
   3   2  -3  105.99    5.30
  -3   2   3  115.09    5.80
  -3  -2  -3  121.79    5.00
  -3  -2  -3  113.79    5.30
  -3  -2  -3  108.59    5.20
   3  -2   3  111.29    5.70
  -3  -2  -3  115.29    4.80
   3  -2   3  122.69    5.20
  -3   2   3  115.69    5.70
   3   2   3  117.69    5.30
  -3  -2   3  118.09    4.80
   3   2   3  123.59    5.00
  -3  -2   3  118.89    5.90
   3  -2  -3  123.39    5.60
   3   2   3  119.19    5.30
  -3   2  -3  113.29    5.40
   3   2   3  109.39    5.50
   3   2   3  114.89    4.90
   3   2   3  119.69    5.50
  -3   2  -3  109.59    4.60
   3  -2  -3  118.99    5.60
  -3   2  -3  121.09    5.30
  -3  -2   3  117.59    5.70
   3   3  -3   77.89    5.20
  -3   3   3   81.69    5.40
   3   3  -3   85.39    5.00
  -3  -3  -3   88.69    5.00
   3  -3   3   75.99    4.80
   3  -3   3   77.59    5.20
  -3  -3  -3   88.09    5.40
  -3   3   3   90.99    5.50
  -3  -3   3   85.89    5.40
   3   3   3   85.09    5.40
   3  -3  -3   82.39    4.80
   3   3   3   82.79    5.10
  -3   3  -3   86.79    5.00
  -3  -3   3   79.69    5.40
   3  -3  -3   77.79    5.00
  -3   3  -3   87.69    5.10
  -3  -4  -3   69.59    5.60
   3  -4   3   70.49    5.40
  -3   4   3   77.69    5.70
  -3   4   3   67.19    5.50
  -3  -4  -3   60.49    4.80
   3   4  -3   60.49    5.10
   3  -4   3   61.99    5.10
   3   4  -3   75.49    5.20
  -3   4  -3   63.59    5.10
  -3  -4   3   70.39    5.60
   3   4   3   70.59    5.70
   3   4   3   65.19    5.10
  -3   4  -3   74.19    5.00
   3  -4  -3   61.89    5.10
   3   0  -4   -0.60    0.30
  -3   0  -4    0.00    0.40
   3   0   4   -0.10    0.30
  -3   0  -4    0.30    0.40
  -3   0  -4   -0.20    0.40
  -3   0   4    0.20    0.40
  -3   0  -4    0.00    0.20
   3   0  -4    0.10    0.40
  -3   0   4   -0.30    0.30
   3   0  -4   -0.10    0.20
   3   0   4    0.20    0.40
  -3   0   4   -0.30    0.20
   3   0   4    0.00    0.30
   3   1  -4    7.10    1.30
   3  -1   4    5.40    1.10
   3   1  -4    7.00    0.90
  -3  -1  -4   10.20    1.00
   3  -1   4    9.10    1.40
  -3  -1  -4    9.40    1.20
  -3  -1  -4    8.60    1.30
   3  -1   4    9.10    1.10
  -3   1   4    6.10    1.40
   3   1  -4    7.00    1.00
  -3   1   4    9.40    1.30
  -3   1  -4    7.90    0.90
  -3  -1   4    7.90    1.30
   3   1   4    8.50    0.90
   3   1   4    7.00    1.40
  -3  -1   4    9.70    1.00
  -3   1  -4    8.00    1.10
   3   1   4    9.50    1.20
   3  -1  -4    7.90    1.50
  -3   1  -4    7.40    1.10
  -3  -1   4    9.20    1.30
   3   1   4    7.20    1.40
   3  -1  -4    6.90    1.00
   3  -1  -4    9.50    1.20
  -3  -2  -4    7.90    1.60
  -3  -2  -4    5.20    1.10
  -3  -2  -4    6.50    1.40
   3  -2   4    4.90    1.40
  -3   2   4    4.80    1.50
  -3   2   4    3.80    1.20
   3   2  -4    6.90    1.40
   3  -2   4    5.80    1.30
   3   2  -4    7.40    1.50
  -3  -2  -4    7.20    1.00
   3   2   4    6.90    1.20
  -3   2  -4    4.80    1.20
  -3  -2   4    6.60    1.60
   3   2   4    5.30    1.40
  -3   2  -4    7.70    1.10
   3  -2  -4    5.40    1.30
  -3  -2   4    5.20    1.10
   3   2   4    6.00    1.20
  -3   2  -4    5.60    1.30
   3  -2  -4    3.90    1.20
   3   2   4    5.40    1.40
  -3  -2   4    6.40    1.40
  -3   3   4    0.10    0.70
   3   3  -4    0.00    0.50
  -3  -3  -4   -0.20    0.60
   3  -3   4   -0.40    0.60
   3   3  -4   -0.10    0.70
   3  -3   4   -0.10    0.70
  -3   3   4   -0.20    0.70
   3   3  -4    0.00    0.50
  -3  -3  -4   -0.10    0.50
   3   3   4   -0.10    0.60
  -3  -3   4    0.60    0.80
   3   3   4   -0.10    0.70
  -3   3  -4   -0.20    0.60
   3   3   4   -0.50    0.60
   3  -3  -4    0.10    0.70
   3  -3  -4   -0.50    0.60
  -3   3  -4    0.20    0.40
  -3  -3   4    0.70    0.90
  -3   4   4    0.00    1.00
  -3  -4  -4    0.10    0.90
   3   4  -4    1.00    1.10
   3   4  -4   -0.20    0.80
   3  -4   4    0.10    1.00
  -3   4   4    0.00    1.00
  -3   4  -4   -0.30    0.80
   3  -4  -4   -0.90    0.80
   3   4   4   -0.60    1.10
  -3  -4   4    0.30    0.90
   3   4   4    0.60    1.00
   3   4   4    0.80    1.30
   3  -4  -4    0.30    0.80
  -3   4  -4   -1.60    0.70
   3   0  -5    0.70    0.40
  -3   0   5    0.50    0.60
   3   0   5    0.40    0.40
  -3   0  -5    1.20    0.60
  -3   0  -5    0.00    0.40
   3   0   5   -0.20    0.30
   3   0  -5   -0.20    0.30
  -3   0   5    0.30    0.40
   3   0  -5    0.30    0.40
  -3   0  -5    1.10    0.60
  -3   0   5    0.80    0.50
   3   0   5   -0.20    0.40
   3   1  -5   30.30    2.30
   3   1  -5   34.10    2.60
  -3   1   5   35.80    2.60
   3  -1   5   36.60    2.60
   3  -1   5   35.30    2.40
  -3  -1  -5   34.50    2.10
  -3  -1  -5   30.10    2.40
  -3   1   5   31.20    2.50
  -3  -1  -5   28.50    2.50
   3  -1   5   30.30    2.70
   3   1  -5   32.10    2.00
  -3   1   5   32.60    2.90
   3  -1  -5   33.10    2.30
  -3  -1   5   38.00    2.30
   3   1   5   34.20    2.50
  -3   1  -5   30.40    2.40
   3  -1  -5   32.50    2.70
   3  -1  -5   30.50    2.40
   3   1   5   28.20    2.60
  -3   1  -5   34.00    2.50
  -3  -1   5   29.80    2.80
   3   1   5   34.40    2.70
  -3  -1   5   36.80    2.60
  -3  -2  -5   41.30    2.90
   3   2  -5   39.00    3.00
   3  -2   5   41.30    2.90
  -3  -2  -5   36.30    3.10
   3  -2   5   44.80    3.10
  -3  -2  -5   41.60    3.20
   3  -2   5   51.29    3.90
   3   2  -5   43.40    3.10
  -3   2   5   37.40    3.40
  -3   2   5   43.40    3.30
   3   2   5   39.80    3.20
  -3  -2   5   38.20    3.50
  -3  -2   5   43.80    3.30
   3  -2  -5   36.10    3.00
  -3   2  -5   42.80    2.90
   3   2   5   43.20    3.40
   3  -2  -5   43.70    3.40
  -3   2  -5   46.60    3.30
  -3  -3  -5   79.09    5.10
   3   3  -5   93.49    5.00
   3   3  -5   84.39    5.40
  -3   3   5   76.69    5.70
   3  -3   5   95.39    6.00
  -3   3   5   81.59    5.50
  -3  -3  -5   85.79    5.40
   3   3  -5   79.49    5.20
   3   3   5   87.49    5.50
   3   3   5   76.39    5.50
   3  -3  -5   82.49    5.40
  -3  -3   5   75.59    5.60
   3  -3  -5   86.09    5.40
  -3   3  -5   89.09    5.40
  -3  -3   5   83.99    5.40
  -3  -4  -5   53.99    4.70
  -3   4   5   39.90    4.60
  -3   4   5   53.89    4.90
   3   4  -5   44.20    4.20
   3  -4   5   48.50    4.70
   3   4  -5   44.00    4.30
  -3  -4   5   41.00    4.50
  -3   4  -5   39.40    4.00
   3  -4  -5   49.99    4.30
   3   4   5   44.40    4.50
   3  -4  -5   41.60    4.30
   3   4   5   50.49    5.00
  -3   0  -6    0.40    0.50
   3   0   6   -0.20    0.50
  -3   0   6    0.40    0.50
  -3   0  -6   -0.20    0.40
   3   0   6   -0.10    0.40
  -3   0  -6   -0.10    0.30
  -3   0   6   -0.30    0.40
   3   0  -6    0.00    0.40
   3   0  -6    0.20    0.40
   3   0   6    0.20    0.60
  -3   1   6   84.29    4.40
   3   1  -6   83.99    4.60
  -3  -1  -6   74.39    4.30
  -3   1   6   74.59    4.40
   3  -1   6   79.49    4.80
  -3  -1  -6   80.49    4.70
   3   1  -6   84.49    4.10
   3  -1   6   75.39    4.10
  -3   1   6   82.79    5.10
   3  -1   6   86.39    4.60
  -3  -1  -6   81.19    3.70
  -3   1  -6   70.69    4.20
   3   1   6   69.89    4.60
   3   1   6   92.49    5.00
  -3  -1   6   79.59    4.20
  -3   1  -6   73.49    4.10
   3   1   6   84.99    4.60
   3  -1  -6   77.69    4.60
   3  -1  -6   75.39    4.30
  -3  -1   6   78.29    4.00
   3  -1  -6   79.59    4.10
  -3  -1   6   79.09    5.00
  -3  -2  -6   69.49    4.00
  -3  -2  -6   65.69    4.50
   3  -2   6   71.79    4.80
  -3   2   6   55.79    4.60
   3   2  -6   66.19    4.20
  -3   2   6   54.59    4.00
  -3   2   6   65.59    4.40
   3   2  -6   51.29    3.70
   3   2   6   66.39    4.50
   3  -2  -6   63.59    4.40
  -3   2  -6   62.49    3.80
  -3   2  -6   60.09    4.10
  -3  -2   6   61.69    4.10
  -3  -2   6   57.99    4.60
   3  -2  -6   53.99    4.00
   3   2   6   57.69    4.30
  -3  -3  -6   35.90    3.60
  -3  -3  -6   30.60    3.40
   3  -3   6   40.90    3.90
   3   3  -6   41.10    3.70
  -3   3   6   34.50    3.60
   3   3  -6   34.20    3.40
  -3   3   6   38.80    4.10
   3   3  -6   36.30    3.20
  -3  -3   6   30.20    3.30
  -3  -3   6   36.90    3.90
   3   3   6   36.20    3.70
   3  -3  -6   36.90    3.70
   3   3   6   36.70    3.70
  -3   3  -6   35.40    3.50
   3  -3  -6   38.40    3.70
   3   0   7  354.46   13.40
  -3   0  -7  364.26   12.90
  -3   0   7  351.56   13.80
  -3   0  -7  360.56   13.20
   3   0   7  355.76   13.30
  -3   0   7  363.06   12.60
   3   0  -7  341.27   12.60
   3   0  -7  360.66   12.80
   3  -1   7  170.28    8.20
  -3  -1  -7  174.58    8.10
   3   1  -7  175.58    7.80
   3  -1   7  181.98    7.70
  -3   1   7  170.48    7.60
  -3   1   7  177.18    8.60
  -3  -1  -7  179.98    7.70
  -3   1  -7  162.68    7.20
   3   1   7  152.68    7.80
   3   1   7  167.78    7.70
   3  -1  -7  185.18    8.10
   3  -1  -7  166.18    7.10
  -3   1  -7  159.68    7.40
   3   1   7  174.58    8.20
  -3  -1   7  159.08    8.30
   3   2  -7   72.79    4.60
   3   2  -7   75.09    4.80
  -3  -2  -7   65.09    4.20
  -3   2   7   62.49    5.10
  -3  -2  -7   61.69    4.70
  -3   2   7   68.99    4.80
   3  -2   7   70.19    5.10
  -3  -2   7   71.69    5.40
  -3   2  -7   68.99    4.50
   3  -2  -7   71.79    4.80
   3  -2  -7   65.79    4.80
   3   2   7   72.69    4.90
  -3   2  -7   69.89    4.30
   3   2   7   54.79    4.50
   3   3  -7    4.00    1.50
  -3   3   7    4.90    1.70
  -3   3   7    6.10    2.10
  -3  -3  -7    4.50    1.70
   3   3  -7    7.80    1.90
   3  -3   7    2.30    1.50
  -3   3  -7    3.60    1.50
   3  -3  -7    5.20    1.90
   3   3   7    5.70    1.90
   3  -3  -7    3.70    1.40
   3   3   7    4.10    1.80
  -3  -3   7    9.60    2.50
  -3   0  -8    0.00    0.60
   3   0   8   -0.20    0.70
   3   0  -8    0.30    0.80
   3   0   8    0.30    0.80
  -3   0  -8    0.50    0.60
  -3   0   8   -0.20    0.70
   3   0  -8   -0.10    0.60
  -3   0   8    1.00    0.80
  -3  -1  -8    0.30    0.80
   3  -1   8    1.40    1.10
  -3   1   8    0.50    0.70
  -3   1   8   -0.10    0.70
   3  -1   8    0.80    0.80
   3   1  -8    0.20    0.70
  -3  -1  -8    0.30    0.70
  -3  -1   8    1.00    0.90
  -3   1  -8   -0.30    0.60
   3  -1  -8    0.20    0.70
  -3   1  -8    0.20    0.60
   3   1   8    0.50    0.80
   3   1   8    0.00    0.80
   3  -1  -8    0.70    0.90
   3  -2   8    1.20    1.00
  -3  -2  -8    0.10    0.80
  -3   2   8    0.90    0.90
  -3  -2  -8    2.00    1.20
   3   2  -8   -0.20    0.80
  -3   2   8    1.20    1.30
   3   2  -8    0.30    0.80
  -3   2  -8    0.10    0.80
   3   2   8    1.00    1.20
  -3  -2   8    1.20    1.10
   3  -2  -8    0.20    0.90
   3   2   8    0.10    0.90
   3   2   8    1.60    1.20
   3  -2  -8    0.10    0.90
  -3   2  -8    0.90    0.90
  -3  -3  -8    2.20    1.40
   3   3  -8    2.60    1.40
   3   3  -8    2.70    1.40
  -3   3   8    4.60    1.90
   3  -3   8    1.70    1.30
  -3   3   8    1.00    1.40
  -3  -3   8    2.40    1.60
   3   3   8    5.40    2.00
   3  -3  -8    4.50    1.70
   3   3   8    2.90    1.40
   3  -3  -8    2.60    1.50
   3   3   8    2.90    1.60
  -3   3  -8    1.00    1.20
  -3   0  -9   86.09    5.60
   3   0   9   88.09    5.80
   3   0  -9   89.29    5.50
  -3   0  -9   82.19    5.40
   3   0   9   89.89    6.00
   3   0  -9   91.29    5.40
  -3   0   9   95.89    6.40
  -3  -1  -9   76.09    5.50
  -3   1   9   79.69    5.40
   3  -1   9   86.19    5.40
   3  -1   9   91.79    6.10
  -3  -1  -9   75.49    5.10
   3   1  -9   83.09    5.40
  -3   1   9   73.79    5.80
   3   1   9   83.89    6.00
  -3  -1   9   79.79    6.10
   3   1   9   76.49    5.60
  -3   1  -9   81.69    5.30
   3  -1  -9   76.79    4.90
   3  -1  -9   69.89    5.20
   3   2  -9   17.80    3.00
  -3   2   9   15.10    3.00
  -3  -2  -9   17.00    3.20
   3  -2   9   14.90    3.10
  -3  -2  -9   19.60    2.70
  -3   2   9   11.00    2.70
  -3   2  -9    9.60    2.20
  -3   2  -9   15.10    2.70
  -3  -2   9   13.90    3.10
   3   2   9   27.50    3.50
   3  -2  -9   13.90    2.90
   3   2   9   15.30    3.10
   3   0 -10   -0.60    0.70
   3   0  10    0.30    1.00
  -3   0 -10   -0.40    0.70
  -3   0 -10    0.40    0.90
   3   0  10   -0.10    1.00
  -3   0  10   -0.30    0.90
  -3   1  10   16.90    3.40
  -3  -1 -10   12.70    2.80
   3  -1  10   16.20    3.20
   3   1 -10   18.10    3.20
  -3   1  10   17.40    2.60
  -3  -1 -10   18.50    2.70
   3   1  10   12.30    2.90
  -3  -1  10   17.90    3.60
   3   1  10   18.10    3.50
  -3   1 -10   18.30    2.70
   3  -1 -10   14.80    2.60
   3  -1 -10    8.60    2.50
   4   0   0 3233.38   89.39
   4   0   0 3239.98   89.19
  -4   0   0 3259.37   89.09
   4   0   0 3244.18   88.29
  -4   0   0 3294.87   88.19
  -4   0   0 3346.37   89.39
  -4   1   0   19.00    1.40
  -4  -1   0   19.60    1.80
   4  -1   0   17.00    1.70
   4  -1   0   19.80    1.60
  -4   1   0   18.00    1.50
  -4   1   0   16.40    1.70
  -4  -1   0   16.90    1.60
   4   1   0   21.90    1.60
   4   1   0   19.10    1.10
   4   1   0   17.40    1.60
   4   2   0  316.67   11.00
   4   2   0  318.97   10.00
  -4  -2   0  310.07   11.20
  -4   2   0  312.17   10.60
   4  -2   0  315.47   10.70
   4  -2   0  317.27   11.00
  -4   2   0  299.27   11.20
  -4  -2   0  314.37   11.40
   4  -2   0  314.47   11.30
   4   2   0  318.67   10.60
  -4  -2   0  313.97   10.00
   4  -3   0   80.19    4.40
   4  -3   0   72.69    4.80
   4   3   0   78.19    4.60
   4   3   0   69.69    4.80
  -4   3   0   70.79    4.60
  -4  -3   0   72.69    4.90
  -4   3   0   78.29    5.00
  -4  -3   0   65.19    4.70
  -4   3   0   67.39    4.00
   4  -3   0   78.19    4.70
   4  -4   0   -0.40    0.70
  -4  -4   0   -0.20    0.90
  -4   4   0    0.00    0.80
  -4   4   0   -0.70    0.90
   4   4   0    0.50    0.80
   4  -4   0    0.10    0.90
   4   4   0    0.10    1.00
   4   0   1    0.00    0.30
   4   0   1    0.20    0.40
  -4   0   1   -0.10    0.20
  -4   0   1   -0.50    0.30
  -4   0   1   -0.20    0.20
   4   0  -1   -0.10    0.30
   4   0   1   -0.30    0.20
  -4   0  -1   -0.40    0.20
   4   0  -1    0.40    0.20
  -4   0  -1    0.10    0.40
   4   0  -1   -0.10    0.30
  -4   0  -1    0.10    0.40
   4   1  -1    0.20    0.30
   4   1  -1    0.40    0.20
   4  -1   1    0.00    0.30
  -4   1   1   -0.30    0.30
  -4  -1  -1    0.10    0.40
  -4  -1  -1    0.40    0.40
   4   1  -1    0.50    0.40
  -4   1   1    0.10    0.30
  -4  -1  -1    0.10    0.30
  -4   1   1    0.40    0.40
   4   1  -1    0.20    0.40
   4  -1   1    1.00    0.60
  -4  -1  -1   -0.10    0.30
  -4   1  -1    0.60    0.30
   4  -1  -1    0.10    0.40
   4   1   1    0.90    0.50
  -4   1  -1    0.20    0.30
  -4  -1   1   -0.10    0.40
  -4   1  -1    0.80    0.50
  -4  -1   1    0.20    0.40
   4  -1  -1    0.40    0.30
  -4   1  -1    0.50    0.40
   4  -1  -1    0.60    0.40
   4   1   1    0.20    0.40
   4   1   1    0.60    0.40
  -4  -1   1    0.20    0.40
   4  -2   1  463.65   13.80
  -4   2   1  469.55   15.30
   4  -2   1  478.45   14.80
   4   2  -1  460.15   15.30
  -4   2   1  478.45   14.60
  -4  -2  -1  477.05   15.00
  -4  -2  -1  480.85   14.60
   4   2  -1  486.15   15.00
  -4  -2  -1  492.15   15.70
  -4  -2  -1  477.35   15.60
   4  -2   1  456.95   15.70
  -4   2   1  465.65   15.80
   4  -2   1  465.95   15.20
   4   2   1  467.25   14.90
   4   2   1  483.75   14.60
   4  -2  -1  466.95   15.40
  -4  -2   1  476.05   14.10
  -4   2  -1  455.85   15.50
  -4   2  -1  468.55   15.10
   4   2   1  471.45   15.20
   4   2   1  476.85   14.70
  -4   2  -1  470.95   14.90
  -4  -2   1  461.35   15.70
   4  -2  -1  444.86   15.40
  -4  -2   1  478.55   15.90
   4  -3   1    3.30    1.70
   4  -3   1    2.80    1.10
  -4  -3  -1    5.80    1.60
  -4  -3  -1    4.50    1.80
   4   3  -1    7.00    1.60
   4   3  -1    4.50    1.50
  -4   3   1    9.70    2.20
  -4  -3  -1    6.30    1.70
   4  -3   1    3.30    1.30
  -4   3   1    4.50    1.40
  -4   3  -1    5.40    1.50
  -4   3  -1    5.90    1.40
   4   3   1    5.60    1.40
   4  -3  -1    3.80    1.40
   4   3   1    5.00    1.50
  -4  -3   1    5.90    1.70
   4  -3  -1    4.60    1.20
  -4  -3   1    5.20    1.60
  -4   3  -1    4.50    1.50
  -4  -4  -1   81.39    5.80
  -4   4   1   55.79    5.00
   4   4  -1   72.99    5.60
   4   4  -1   74.89    5.10
   4  -4   1   62.29    5.10
  -4   4   1   78.89    5.60
  -4   4  -1   63.29    5.10
   4   4   1   60.49    4.50
  -4  -4   1   68.59    5.60
   4   4   1   61.99    5.30
  -4   4  -1   74.79    5.50
   4  -4  -1   69.59    5.40
  -4   4  -1   58.99    4.40
  -4   0   2  716.93   20.50
  -4   0  -2  731.43   20.90
   4   0  -2  704.73   19.50
  -4   0  -2  695.53   21.00
  -4   0  -2  689.23   20.80
   4   0  -2  707.43   20.90
   4   0   2  706.63   20.70
   4   0  -2  713.63   20.80
   4   0   2  690.13   21.10
  -4   0   2  716.53   21.30
   4   1  -2  455.15   14.40
   4  -1   2  444.76   14.50
  -4   1   2  454.25   14.80
   4  -1   2  442.06   14.40
   4   1  -2  459.25   14.40
   4   1  -2  456.45   13.60
  -4   1   2  452.55   13.60
  -4  -1  -2  456.95   14.20
  -4   1   2  474.95   14.50
   4  -1   2  460.75   13.10
  -4  -1  -2  452.45   13.70
  -4  -1  -2  461.45   14.30
  -4  -1  -2  455.95   14.10
   4   1   2  459.25   13.80
   4   1   2  450.45   13.90
   4   1   2  450.05   14.30
  -4  -1   2  471.35   14.70
  -4   1  -2  458.05   14.40
   4  -1  -2  452.65   14.00
  -4  -1   2  456.35   14.80
  -4   1  -2  463.65   14.00
  -4  -1   2  445.16   14.20
   4   1   2  449.36   14.30
   4  -1  -2  429.86   14.60
   4   2  -2  111.69    5.20
  -4  -2  -2  116.39    5.20
  -4   2   2  118.39    6.00
  -4  -2  -2  115.79    5.50
  -4  -2  -2  118.79    5.20
   4  -2   2  126.59    5.50
   4   2  -2  113.69    5.50
   4  -2   2  131.59    6.10
  -4  -2  -2  114.79    5.50
  -4   2   2  122.39    5.80
  -4  -2  -2  118.99    5.20
   4  -2   2  118.79    5.10
  -4   2   2  125.89    4.80
   4   2   2  116.39    5.60
   4   2   2  121.39    5.30
  -4  -2   2  115.19    5.80
   4  -2  -2  127.19    5.80
   4   2   2  125.29    5.40
   4  -2  -2  115.89    5.60
  -4   2  -2  119.89    5.60
  -4   2  -2  121.89    5.60
   4   2   2  125.19    5.40
  -4  -2   2  121.19    6.00
   4   2   2  121.89    5.80
   4   2   2  121.29    5.20
  -4  -3  -2   70.59    4.20
  -4   3   2   59.89    4.50
  -4  -3  -2   64.09    4.60
  -4   3   2   61.69    4.70
   4   3  -2   74.29    4.20
   4   3  -2   69.89    4.50
   4  -3   2   64.79    4.70
   4   3  -2   69.39    4.80
  -4  -3  -2   70.09    4.60
   4   3   2   72.49    5.00
   4   3   2   71.59    4.20
  -4   3  -2   57.09    4.20
  -4  -3   2   77.79    5.20
   4  -3  -2   63.69    4.20
  -4   3  -2   75.79    4.50
   4   3   2   73.49    4.80
   4  -3  -2   69.39    4.70
  -4  -3   2   71.49    4.90
  -4  -4  -2    0.30    0.90
   4   4  -2    0.30    1.10
   4  -4   2    0.20    1.00
  -4   4   2    0.60    1.10
   4   4  -2    0.60    0.90
  -4   4   2    1.60    1.30
   4  -4  -2   -0.20    0.90
   4   4   2   -0.50    0.90
  -4  -4   2    1.60    1.40
  -4  -4   2   -0.10    1.00
  -4   4  -2   -0.10    0.80
  -4   4  -2   -0.50    0.90
   4   4   2    0.30    1.00
  -4   0  -3    0.00    0.30
  -4   0   3   -0.40    0.30
   4   0  -3   -0.20    0.30
  -4   0  -3   -0.50    0.30
   4   0   3   -0.30    0.30
  -4   0   3   -0.10    0.20
   4   0   3    0.00    0.30
  -4   0  -3    0.10    0.30
   4   0  -3   -0.20    0.30
   4   0   3   -0.10    0.20
  -4   0   3    0.00    0.40
  -4   0   3   -0.50    0.20
  -4  -1  -3  198.78    7.60
  -4   1   3  190.88    7.80
   4  -1   3  197.18    7.60
  -4   1   3  196.28    7.80
  -4  -1  -3  198.58    7.20
   4   1  -3  199.38    7.60
  -4  -1  -3  196.48    7.50
   4   1  -3  203.08    7.40
   4   1  -3  214.38    6.90
  -4  -1  -3  210.98    7.20
   4  -1   3  209.08    7.90
  -4   1   3  199.18    6.50
  -4   1  -3  208.98    7.00
  -4  -1   3  201.88    7.90
   4   1   3  192.78    7.70
  -4  -1   3  204.68    8.00
   4  -1  -3  200.58    7.90
   4  -1  -3  200.88    7.20
   4   1   3  201.28    7.50
   4   1   3  208.28    7.10
  -4   1  -3  202.68    7.30
  -4  -1   3  199.48    6.20
  -4   1  -3  188.58    7.50
  -4  -2  -3    1.00    0.70
  -4  -2  -3   -0.10    0.40
  -4   2   3    0.40    0.60
  -4  -2  -3    0.00    0.30
  -4  -2  -3    0.30    0.50
   4   2  -3    0.10    0.40
  -4  -2  -3    0.00    0.40
   4  -2   3    0.20    0.60
   4  -2   3    0.50    0.50
  -4   2   3    0.40    0.60
   4   2  -3   -0.10    0.40
  -4  -2  -3    0.00    0.40
   4   2   3    0.00    0.30
  -4  -2   3    0.40    0.50
  -4   2  -3    0.50    0.40
   4   2   3    0.50    0.50
  -4   2  -3    1.30    0.70
   4   2   3    0.40    0.50
   4  -2  -3    0.30    0.50
   4  -2  -3    0.50    0.60
   4   2   3   -0.40    0.40
  -4  -2   3    0.20    0.60
   4   2   3    0.10    0.40
   4   2   3    0.70    0.60
  -4   2  -3    0.30    0.50
  -4   3   3  148.79    7.70
   4   3  -3  142.09    7.20
   4   3  -3  144.69    7.60
   4  -3   3  145.29    7.70
  -4  -3  -3  152.78    7.60
  -4  -3  -3  156.08    7.10
  -4   3   3  147.79    7.70
   4   3  -3  157.18    6.80
  -4  -3   3  149.19    7.90
   4  -3  -3  147.69    7.50
  -4  -3   3  153.38    7.80
   4   3   3  138.99    7.50
  -4   3  -3  141.89    7.10
   4   3   3  157.28    6.80
   4  -3  -3  145.59    7.10
   4   3   3  151.18    7.40
   4   3   3  139.49    7.00
  -4   3  -3  160.48    7.40
   4  -4   3   33.60    3.80
  -4  -4  -3   23.60    3.10
  -4  -4  -3   28.00    3.60
   4   4  -3   30.10    3.30
  -4   4   3   30.10    3.70
   4   4  -3   30.00    3.60
  -4   4   3   31.60    3.80
  -4   4  -3   27.50    3.20
   4  -4  -3   27.60    3.40
   4   4   3   41.10    4.40
  -4  -4   3   32.70    3.90
   4   4   3   30.70    3.50
  -4  -4   3   34.20    3.80
   4  -4  -3   24.10    3.20
  -4   4  -3   30.00    3.50
  -4   0   4   -0.80    0.40
   4   0  -4   -0.90    0.30
  -4   0   4   -0.90    0.30
  -4   0  -4   -1.20    0.30
   4   0   4   -0.80    0.40
  -4   0   4   -1.20    0.40
   4   0   4   -1.10    0.30
   4   0   4   -0.90    0.30
   4   0  -4   -0.70    0.40
   4   0  -4   -1.20    0.40
  -4   0  -4   -1.10    0.30
  -4   0  -4   -0.90    0.30
   4  -1   4  712.63   22.30
   4   1  -4  741.83   21.30
  -4  -1  -4  735.33   21.70
  -4  -1  -4  709.03   22.50
  -4  -1  -4  765.32   21.20
   4  -1   4  727.43   22.80
  -4  -1  -4  736.43   22.20
  -4   1   4  743.73   22.90
   4   1  -4  729.83   22.30
   4   1  -4  741.43   21.90
  -4   1   4  732.83   22.60
  -4   1  -4  712.83   22.20
   4  -1  -4  734.53   21.80
   4   1   4  742.73   21.70
  -4   1  -4  732.03   22.00
   4   1   4  722.63   21.20
   4  -1  -4  698.13   22.50
  -4   1  -4  718.03   21.00
  -4  -1   4  715.63   22.50
   4   1   4  724.63   22.40
   4  -1  -4  741.83   21.60
   4   1   4  718.83   22.60
  -4  -1   4  731.73   22.90
  -4   2   4   98.09    5.60
   4  -2   4  100.39    5.00
  -4  -2  -4  104.09    5.40
   4   2  -4   99.09    5.10
   4   2  -4  101.39    5.30
  -4  -2  -4   99.59    4.90
  -4  -2  -4  105.39    4.70
   4  -2   4   96.19    5.60
  -4   2   4   99.59    5.60
  -4  -2   4   99.69    5.40
  -4   2  -4  111.39    5.00
   4  -2  -4  104.79    5.30
   4   2   4   97.09    5.10
   4  -2  -4  101.49    5.50
   4   2   4  102.09    4.70
   4   2   4  106.69    5.50
  -4   2  -4   93.89    5.20
   4   2   4   96.29    4.80
  -4   2  -4  100.99    4.70
   4   2   4  102.09    5.00
  -4  -2   4  102.99    5.80
   4   2   4  101.09    5.30
   4   3  -4   -0.70    0.60
  -4  -3  -4   -0.20    0.60
   4  -3   4    0.20    0.90
  -4   3   4   -0.10    0.80
  -4  -3  -4    0.20    0.70
  -4   3   4    0.60    0.90
   4   3  -4   -0.20    0.70
   4   3  -4    0.50    0.70
   4  -3  -4   -0.10    0.70
   4   3   4    0.50    0.70
  -4  -3   4   -0.10    0.60
   4   3   4    0.80    0.80
   4   3   4    0.00    1.30
  -4  -3   4   -0.80    0.70
   4   3   4   -0.30    0.70
  -4   3  -4    0.40    0.70
  -4   3  -4   -0.40    0.40
   4  -3  -4   -0.70    0.60
  -4  -4  -4   93.19    6.20
  -4   4   4  108.29    7.30
   4   4  -4   94.79    6.60
   4  -4   4   94.79    6.70
   4   4  -4   84.29    6.00
  -4   4   4  112.19    7.30
   4  -4  -4   97.29    6.10
  -4  -4   4   99.39    7.00
  -4   4  -4  101.79    6.40
   4  -4  -4   96.89    6.60
   4   4   4   90.49    6.70
   4   4   4  104.79    6.70
  -4  -4   4   94.09    6.70
   4   0  -5   -0.20    0.30
  -4   0   5    0.10    0.50
   4   0   5    0.20    0.50
   4   0  -5   -0.30    0.30
  -4   0  -5   -0.60    0.30
   4   0   5   -0.10    0.40
  -4   0   5   -0.10    0.30
  -4   0  -5   -0.40    0.30
  -4   0   5   -0.40    0.30
   4   0  -5   -0.20    0.30
  -4   1   5   99.49    5.10
  -4   1   5  102.59    4.80
   4   1  -5  101.39    5.10
  -4  -1  -5   89.09    4.30
  -4  -1  -5  101.89    5.00
   4   1  -5   94.19    4.60
  -4  -1  -5   94.39    5.20
   4  -1   5   91.59    4.90
  -4   1   5   84.19    5.20
   4  -1   5   97.79    5.30
   4  -1  -5  101.89    4.60
   4  -1  -5   91.29    5.00
  -4  -1   5   93.49    5.40
  -4   1  -5   97.09    4.80
  -4  -1   5   97.69    5.10
   4   1   5   92.89    5.10
  -4   1  -5  101.69    5.00
   4   1   5  103.49    5.40
   4  -1  -5  100.79    4.70
   4   1   5   97.29    4.60
   4  -2   5    5.90    1.70
   4   2  -5    4.80    1.40
  -4  -2  -5    5.10    1.30
   4  -2   5    4.10    1.20
  -4  -2  -5    3.30    1.20
  -4   2   5    4.90    1.50
  -4   2   5    7.80    2.00
   4   2  -5    4.40    1.30
  -4  -2   5    3.30    1.20
   4  -2  -5    4.10    1.40
  -4  -2   5    2.80    1.30
   4  -2  -5    7.30    1.70
   4   2   5    4.40    1.40
  -4   2  -5    6.80    1.40
   4   2   5    6.40    1.60
  -4   2  -5    5.60    1.40
   4   2   5    5.50    1.50
  -4  -3  -5  160.88    7.90
  -4   3   5  162.58    8.40
   4   3  -5  162.08    7.90
   4  -3   5  149.49    8.20
   4   3  -5  146.39    7.10
   4   3  -5  157.48    8.10
  -4  -3  -5  152.98    7.60
  -4   3   5  149.49    8.40
  -4   3  -5  152.68    7.80
   4   3   5  152.78    7.70
   4   3   5  158.48    8.20
  -4  -3   5  145.89    7.90
   4  -3  -5  146.09    7.70
   4  -3  -5  143.79    7.70
   4   3   5  150.28    7.90
  -4  -3   5  164.78    8.70
  -4   4   5   13.40    3.00
  -4  -4  -5    8.60    2.30
   4  -4   5   10.20    3.10
   4   4  -5   10.40    3.00
   4   4  -5   12.10    2.80
  -4   4   5   12.20    3.10
   4   4   5   12.60    2.80
  -4   4  -5    8.90    2.40
   4   4   5   10.20    2.70
  -4  -4   5    6.00    2.10
   4  -4  -5    7.00    2.00
   4  -4  -5   13.10    2.80
  -4   0  -6   96.99    4.60
  -4   0   6   78.19    4.60
  -4   0  -6   93.19    5.00
  -4   0   6   98.39    4.50
   4   0  -6   91.39    4.80
   4   0   6   82.69    5.00
  -4   0   6   90.59    5.50
   4   0  -6   94.19    4.90
   4   0   6   95.69    5.30
  -4   1   6  189.58    7.90
   4  -1   6  169.88    8.20
  -4   1   6  176.18    8.40
   4   1  -6  196.98    7.40
   4  -1   6  176.68    7.80
  -4  -1  -6  177.28    7.70
  -4  -1  -6  175.38    8.10
   4   1  -6  184.58    7.90
  -4   1   6  174.18    7.40
  -4  -1   6  177.48    8.50
  -4   1  -6  181.88    7.60
   4  -1  -6  181.38    7.50
   4   1   6  181.38    8.30
  -4   1  -6  177.88    7.60
   4  -1  -6  185.38    7.40
   4  -1  -6  181.58    8.00
   4   1   6  167.48    7.90
  -4  -1   6  176.38    7.70
  -4   2   6   40.40    3.50
  -4  -2  -6   42.70    3.60
  -4  -2  -6   43.40    3.30
  -4   2   6   45.10    4.10
   4  -2   6   42.20    3.20
   4  -2   6   37.20    3.50
  -4   2   6   34.00    3.20
   4   2  -6   39.30    3.40
   4   2  -6   34.60    3.10
   4   2   6   40.60    3.60
   4   2   6   45.80    3.80
  -4  -2   6   39.10    3.80
   4  -2  -6   43.50    3.50
  -4   2  -6   48.80    3.30
   4  -2  -6   31.30    3.20
  -4   2  -6   41.60    3.40
  -4  -2   6   42.20    3.50
   4   2   6   38.70    3.40
  -4  -3  -6   56.59    4.50
   4   3  -6   50.99    4.30
   4  -3   6   51.59    4.60
  -4   3   6   54.39    4.90
   4   3  -6   45.40    3.80
   4   3  -6   53.59    4.30
  -4   3   6   53.49    4.60
   4   3   6   53.19    4.60
   4   3   6   52.49    4.40
  -4   3  -6   54.89    4.40
  -4  -3   6   60.49    5.10
   4   3   6   68.49    5.10
   4  -3  -6   59.99    4.70
  -4  -3   6   60.29    4.70
   4  -3  -6   54.09    4.50
  -4   0  -7   -0.30    0.50
   4   0  -7    0.20    0.50
   4   0  -7    0.20    0.70
  -4   0  -7   -0.10    0.60
  -4   0  -7   -0.10    0.40
   4   0   7   -0.50    0.50
  -4   0   7   -0.10    0.70
   4   0   7   -0.30    0.60
  -4   1   7    3.40    1.50
   4   1  -7    2.70    1.10
  -4  -1  -7    5.10    1.40
  -4   1   7    4.10    1.40
   4  -1   7    4.40    1.40
  -4   1   7    3.10    1.10
   4  -1   7    4.80    1.50
  -4  -1  -7    5.20    1.60
  -4  -1   7    2.40    1.20
   4  -1  -7    3.50    1.30
   4   1   7    7.00    1.80
   4  -1  -7    5.40    1.60
  -4   1  -7    5.90    1.40
  -4   1  -7    3.20    1.20
   4   1   7    3.30    1.30
   4   2  -7  100.49    5.80
  -4   2   7   93.89    5.80
  -4  -2  -7   93.79    5.40
  -4   2   7   94.59    6.50
   4   2  -7   94.59    5.50
  -4  -2  -7  104.19    6.20
   4  -2   7   95.79    6.20
  -4   2   7   95.19    5.80
   4   2   7  103.49    6.30
  -4  -2   7   85.49    6.20
  -4   2  -7  100.29    5.50
   4  -2  -7   97.79    5.80
  -4   2  -7  112.69    6.00
   4  -2  -7  105.09    6.20
   4   2   7  101.89    6.30
  -4   3   7    1.90    1.50
   4   3  -7    3.10    1.40
  -4   3   7    1.20    1.10
   4  -3   7    1.10    1.20
  -4  -3  -7    1.70    1.30
   4   3  -7    2.90    1.30
   4   3   7    1.70    1.40
  -4   3  -7   -0.30    0.90
   4  -3  -7    1.60    1.30
   4  -3  -7    1.50    1.20
  -4  -3   7    2.50    1.60
   4   3   7    0.90    1.20
   4   0   8  340.77   13.60
  -4   0  -8  341.67   13.30
  -4   0  -8  333.37   13.00
   4   0  -8  356.36   13.00
  -4   0   8  326.77   13.90
   4   0  -8  345.47   13.00
   4   0   8  337.07   13.50
   4   1  -8    0.70    1.00
  -4  -1  -8    1.20    0.90
  -4   1   8    0.40    0.80
   4  -1   8    1.10    1.10
  -4  -1  -8    0.70    0.90
   4  -1   8    1.70    1.10
  -4   1   8    1.80    1.20
   4   1   8    0.80    1.00
  -4   1  -8    0.40    0.70
   4  -1  -8    0.80    0.90
   4  -1  -8    1.60    1.00
   4   1   8    0.60    0.90
  -4  -1   8    1.50    1.10
  -4   1  -8    1.50    1.00
   4   2  -8   76.79    5.00
  -4  -2  -8   82.49    5.20
  -4  -2  -8   84.39    5.90
   4  -2   8   78.59    5.90
  -4   2   8   84.79    6.40
  -4   2   8   75.79    5.50
   4   2  -8   92.79    5.80
   4  -2  -8   79.89    5.40
  -4   2  -8   93.69    5.60
   4   2   8   93.19    6.30
  -4   2  -8   69.99    4.90
   4   2   8   87.69    6.10
   4  -2  -8   84.29    5.90
  -4  -2   8   85.09    6.40
   4   3  -8   29.20    3.30
   4   3  -8   31.10    3.50
  -4   3   8   26.40    3.60
  -4  -3  -8   26.30    3.50
   4   3   8   22.30    3.30
   4   3   8   30.40    3.90
   4  -3  -8   31.30    3.70
   4   0  -9    0.80    0.90
   4   0   9    0.40    0.80
  -4   0  -9    0.80    0.80
   4   0   9   -1.00    0.70
  -4   0   9   -0.30    0.90
  -4   0  -9   -1.00    0.70
  -4  -1  -9   -0.20    0.90
  -4   1   9    2.30    1.50
   4  -1   9   -0.30    0.70
   4  -1   9    0.40    0.90
  -4  -1  -9    1.00    1.10
   4   1  -9    1.10    1.20
   4  -1  -9    0.90    1.10
  -4  -1   9    1.60    1.20
   4   1   9   -0.20    1.00
  -4   1  -9    0.70    1.00
   4  -1  -9    1.20    1.10
   4   1   9    2.00    1.40
  -4   1  -9    0.60    0.90
   4  -2   9   63.49    5.40
  -4  -2  -9   51.89    4.30
  -4   2   9   50.59    4.60
  -4  -2  -9   56.69    5.10
  -4   2   9   52.69    5.20
   4   2  -9   62.49    4.90
   4  -2  -9   51.49    4.80
  -4   2  -9   57.99    4.50
  -4   2  -9   56.69    4.50
   4   2   9   56.39    5.10
   4   2   9   55.19    5.20
  -4  -2   9   59.99    5.50
   4   0 -10   49.50    4.30
  -4   0 -10   56.29    4.70
   4   0  10   55.69    5.00
  -4   0  10   64.09    5.60
   4   0  10   56.49    4.90
  -4   0 -10   47.80    4.40
  -4  -1 -10   36.30    4.00
  -4  -1 -10   33.50    3.60
  -4   1  10   39.30    4.50
   4   1 -10   42.40    4.00
   4  -1  10   41.00    4.40
  -4  -1  10   28.60    4.00
   4   1  10   33.60    4.00
   4  -1 -10   31.20    3.70
   4  -1 -10   43.20    3.80
  -4   1 -10   38.70    4.00
   4   1  10   38.90    4.20
  -5   0   0    0.00    0.30
   5   0   0    1.60    0.70
  -5   0   0    0.10    0.20
   5   0   0    0.10    0.20
   5   0   0   -0.10    0.30
  -5   0   0   -0.10    0.30
  -5   1   0    0.00    0.20
  -5   1   0    0.70    0.60
   5  -1   0    0.10    0.40
   5  -1   0    0.10    0.30
  -5  -1   0   -0.20    0.30
  -5   1   0   -0.10    0.30
  -5  -1   0    0.50    0.50
   5  -1   0   -0.30    0.40
   5   1   0    0.30    0.40
  -5  -1   0    0.10    0.30
   5   1   0   -0.10    0.30
   5   2   0    0.00    0.40
   5  -2   0    0.10    0.40
  -5  -2   0   -0.30    0.50
  -5   2   0    0.20    0.70
  -5   2   0   -0.10    0.40
  -5  -2   0    0.30    0.50
   5   2   0   -0.20    0.40
   5  -2   0    0.40    0.50
  -5   2   0    0.10    0.40
  -5  -2   0    0.90    0.50
   5   3   0    0.00    0.80
  -5   3   0    0.00    0.60
  -5   3   0    0.20    0.60
   5  -3   0    0.10    0.80
  -5   3   0   -0.20    0.50
  -5  -3   0    0.30    0.90
   5   3   0   -0.40    0.50
  -5  -3   0    0.10    0.70
   5   3   0   -0.50    0.50
   5  -3   0   -0.30    0.60
   5  -4   0    0.70    1.20
  -5  -4   0    0.50    1.10
  -5  -4   0   -0.40    1.10
  -5   4   0    0.10    1.00
   5   4   0    0.10    0.70
   5   4   0    0.70    1.10
   5   0   1  715.93   20.70
  -5   0   1  713.83   21.10
   5   0  -1  718.63   21.30
   5   0  -1  715.23   21.60
   5   0  -1  710.83   19.80
   5   0   1  739.73   21.80
  -5   0   1  706.53   20.60
  -5   0  -1  729.33   21.40
  -5   0  -1  662.13   21.20
  -5   0  -1  736.53   21.40
   5   0   1  711.73   21.30
  -5   0   1  717.93   21.80
  -5   1   1  427.56   13.70
  -5   1   1  439.96   14.70
   5  -1   1  441.26   14.50
   5   1  -1  439.76   14.30
  -5  -1  -1  440.26   14.20
  -5  -1  -1  458.65   13.60
   5   1  -1  436.96   14.20
   5   1  -1  458.05   13.90
   5  -1   1  447.16   13.80
   5  -1   1  443.46   14.10
  -5  -1  -1  430.16   14.30
  -5   1   1  454.45   13.70
   5  -1  -1  449.16   14.70
  -5  -1   1  436.06   14.10
  -5   1  -1  429.16   14.10
  -5   1  -1  454.15   14.40
   5   1   1  446.36   14.10
  -5   1  -1  443.96   13.80
  -5   1  -1  448.46   12.70
   5  -1  -1  430.16   13.70
  -5  -1   1  438.16   14.70
   5   1   1  431.86   14.30
   5   1   1  441.26   13.20
  -5  -2  -1   86.79    4.70
   5  -2   1   94.19    5.10
   5   2  -1   86.59    4.70
   5   2  -1   95.89    4.70
  -5  -2  -1   91.39    5.00
   5  -2   1   94.69    4.90
  -5  -2  -1   94.49    4.10
  -5   2   1   85.99    5.10
  -5   2   1   94.79    4.30
  -5  -2  -1   81.99    4.50
   5   2   1  100.99    4.50
   5  -2  -1   89.39    4.90
  -5   2  -1   92.69    4.70
  -5   2  -1   88.69    4.90
  -5  -2   1   83.69    4.80
   5   2   1   88.89    4.50
   5   2   1   90.89    4.70
  -5  -2   1   88.79    4.90
  -5   2  -1   90.99    4.30
   5  -2  -1  101.59    5.10
   5  -3   1    1.20    0.80
   5   3  -1    0.30    0.60
  -5  -3  -1    1.30    1.10
  -5   3   1    0.90    0.90
  -5   3   1    0.60    0.90
   5   3  -1    1.00    0.90
   5  -3   1    2.80    1.20
  -5  -3  -1    1.10    0.90
   5   3  -1    2.10    1.00
   5  -3  -1    1.00    0.90
  -5   3  -1    0.20    0.60
   5  -3  -1    1.60    1.00
  -5   3  -1    0.50    0.80
   5   3   1   -0.60    0.60
   5   3   1   -0.10    0.70
  -5  -3   1    1.80    1.10
  -5  -3   1    1.90    1.10
  -5  -4  -1    0.40    1.20
   5  -4   1   -0.40    0.80
   5   4  -1    0.20    1.20
  -5   4   1    0.50    1.00
   5   4  -1    1.80    1.10
  -5   4  -1    0.50    1.20
   5   4   1    1.30    1.20
  -5  -4   1    1.50    1.30
   5  -4  -1   -1.20    0.70
   5   4   1    0.00    1.00
  -5  -4   1   -0.60    0.90
  -5   0   2   -0.10    0.30
   5   0  -2   -0.10    0.40
   5   0   2    0.10    0.40
  -5   0   2   -0.10    0.40
   5   0  -2    0.00    0.40
   5   0   2   -0.10    0.40
   5   0   2   -0.40    0.30
  -5   0  -2    0.10    0.40
  -5   0  -2    0.00    0.30
   5   1  -2  181.18    7.30
   5  -1   2  201.68    7.10
   5   1  -2  198.58    7.00
  -5  -1  -2  202.98    7.30
  -5  -1  -2  199.78    6.60
  -5  -1  -2  194.58    7.30
   5  -1   2  176.78    7.40
  -5   1   2  184.38    6.70
   5  -1   2  194.28    7.70
   5   1  -2  192.58    7.40
  -5  -1  -2  176.08    7.30
  -5   1   2  185.68    7.80
   5   1   2  190.68    6.60
  -5   1  -2  188.08    7.00
   5  -1  -2  186.48    6.80
   5   1   2  187.08    7.40
  -5  -1   2  176.18    7.70
  -5  -1   2  192.08    7.30
  -5   1  -2  184.28    7.30
   5   1   2  190.18    6.80
  -5   1  -2  197.18    7.20
  -5  -1   2  186.58    7.40
   5   1   2  188.78    7.40
   5  -1  -2  187.98    7.70
   5  -2   2  112.39    5.90
  -5   2   2  115.49    5.70
  -5  -2  -2  113.19    5.60
  -5   2   2  121.89    5.20
  -5  -2  -2  110.99    5.30
   5  -2   2  126.09    4.90
   5   2  -2  118.39    5.60
  -5   2   2  118.59    6.20
   5   2  -2  128.49    5.90
   5  -2   2  120.09    5.70
  -5  -2  -2  118.79    5.10
  -5  -2  -2  118.79    6.30
  -5   2  -2  117.99    5.70
  -5  -2   2  119.79    6.10
   5   2   2  112.89    5.40
   5   2   2  109.89    5.40
   5  -2  -2  115.39    5.60
   5   2   2  110.19    5.30
   5   2   2  118.29    5.70
   5   2   2  116.79    5.20
  -5  -2   2  113.99    6.00
  -5   2  -2  116.69    5.60
   5  -2  -2  115.09    5.80
   5   3  -2   55.09    3.70
   5   3  -2   56.19    4.10
  -5  -3  -2   51.89    4.10
   5  -3   2   50.39    3.60
   5  -3   2   52.59    4.30
  -5   3   2   52.69    4.40
  -5   3   2   68.89    4.60
   5   3  -2   50.79    4.20
  -5  -3  -2   47.30    3.90
  -5  -3   2   51.69    4.30
   5  -3  -2   60.09    4.40
   5   3   2   66.09    4.60
   5  -3  -2   58.49    4.10
   5   3   2   51.39    3.70
   5   3   2   55.79    4.40
  -5   3  -2   55.09    4.20
  -5   3  -2   53.89    3.90
  -5  -3   2   49.60    4.20
  -5   4   2    5.40    2.00
  -5   4   2    5.60    2.10
   5   4  -2    4.40    1.60
   5   4  -2    2.80    1.40
  -5  -4  -2    5.10    2.10
   5  -4   2    4.30    2.00
   5  -4  -2    4.60    1.80
   5   4   2    5.60    2.00
  -5  -4   2    1.00    1.40
   5   4   2    4.20    1.80
  -5   4  -2    6.00    2.10
  -5  -4   2    4.00    1.80
  -5   4  -2    4.70    1.60
  -5   0   3    3.10    0.70
   5   0  -3    3.50    1.00
   5   0  -3    5.50    1.00
  -5   0   3    3.40    1.00
  -5   0  -3    5.00    0.90
   5   0   3    3.60    1.00
  -5   0   3    3.70    1.10
   5   0   3    3.30    0.90
   5   0  -3    2.80    0.90
  -5   0  -3    3.50    1.00
  -5   1   3    0.00    0.40
   5   1  -3   -0.10    0.30
   5  -1   3   -0.60    0.40
  -5  -1  -3    0.00    0.40
   5   1  -3    0.10    0.40
   5  -1   3   -0.20    0.40
  -5   1   3    0.10    0.30
  -5   1   3    0.00    0.50
  -5  -1  -3    0.40    0.40
   5   1  -3   -0.50    0.30
  -5  -1  -3   -0.10    0.30
   5   1   3   -0.60    0.30
  -5   1  -3    0.30    0.50
   5  -1  -3   -0.20    0.30
  -5  -1   3   -0.20    0.50
  -5  -1   3    0.40    0.50
   5   1   3    0.60    0.60
   5  -1  -3   -0.30    0.40
  -5   1  -3    0.10    0.40
   5   1   3   -0.20    0.30
  -5   1  -3   -0.30    0.30
   5  -1  -3    0.50    0.60
  -5   2   3    7.10    1.70
  -5   2   3    7.30    1.60
   5   2  -3    9.80    1.80
  -5  -2  -3    7.50    1.50
  -5  -2  -3    8.00    1.40
   5   2  -3    8.70    1.60
   5  -2   3   10.50    2.10
  -5  -2  -3    9.70    1.50
   5  -2   3    6.00    1.50
   5   2   3    9.80    1.70
  -5   2  -3   10.20    1.50
  -5   2  -3   10.70    1.90
   5   2   3    8.60    1.60
  -5  -2   3    8.60    1.90
   5   2   3    9.80    1.50
   5   2   3    6.40    1.30
   5   2   3    7.80    1.60
   5  -2  -3    9.70    1.90
   5  -2  -3    6.40    1.40
  -5  -2   3    7.30    1.70
   5   2   3    9.30    1.50
   5   3  -3   48.30    3.90
  -5  -3  -3   49.40    3.90
   5  -3   3   49.50    4.20
   5   3  -3   50.79    3.70
  -5   3   3   54.79    4.50
   5   3  -3   52.89    4.30
  -5  -3  -3   56.49    4.20
  -5   3   3   51.69    4.30
  -5  -3  -3   49.60    3.60
   5   3   3   52.59    4.20
   5  -3  -3   50.69    4.10
   5   3   3   47.10    3.50
   5  -3  -3   55.69    4.10
  -5  -3   3   39.90    3.80
  -5   3  -3   48.00    3.80
  -5   3  -3   58.79    4.20
  -5  -3   3   45.60    4.20
   5   3   3   50.59    4.00
   5   4  -3   37.70    4.20
   5  -4   3   36.20    4.00
  -5   4   3   37.70    4.40
  -5  -4  -3   33.40    4.00
   5   4  -3   39.60    3.90
  -5   4   3   36.00    4.10
  -5  -4   3   28.60    3.70
  -5   4  -3   39.30    4.10
   5   4   3   33.30    3.90
   5  -4  -3   32.40    3.80
   5   4   3   35.00    4.10
   5  -4  -3   28.90    3.30
  -5   4  -3   33.70    3.50
  -5  -4   3   33.70    4.00
  -5   0  -4   -0.20    0.30
   5   0   4    0.10    0.50
  -5   0   4    0.10    0.40
   5   0   4   -0.10    0.40
  -5   0  -4    0.00    0.40
   5   0  -4    0.20    0.40
  -5   0   4   -0.20    0.30
  -5   0   4    0.70    0.60
   5   0  -4    0.00    0.40
   5  -1   4    4.70    1.30
  -5   1   4    5.40    1.40
   5  -1   4    4.40    1.20
  -5  -1  -4    4.60    0.90
   5   1  -4    4.40    1.10
   5   1  -4    5.70    1.10
   5   1  -4    3.00    1.10
  -5   1   4    4.30    1.20
  -5  -1  -4    3.40    1.00
  -5  -1  -4    5.00    1.30
   5  -1  -4    2.70    0.80
   5   1   4    2.90    1.10
  -5   1  -4    4.30    1.10
  -5  -1   4    3.60    1.20
   5  -1  -4    4.40    1.20
   5   1   4    5.20    1.20
   5  -1  -4    4.60    1.00
  -5  -1   4    3.80    1.30
  -5   1  -4    3.20    1.00
  -5   2   4    0.60    0.80
  -5  -2  -4    1.60    0.90
  -5   2   4    0.30    0.80
   5  -2   4    0.80    1.00
   5   2  -4    0.70    0.70
   5   2  -4    1.40    0.80
   5  -2   4    1.30    0.80
  -5  -2  -4    0.70    0.60
  -5  -2  -4    1.70    0.80
   5  -2  -4    1.30    0.80
   5   2   4    1.60    0.90
   5   2   4   -0.50    0.40
   5   2   4    0.70    0.50
   5   2   4    1.50    0.90
  -5  -2   4    0.90    0.80
  -5  -2   4    1.60    1.00
   5  -2  -4    1.40    0.80
  -5   2  -4    0.80    0.70
  -5   2  -4    0.00    0.50
  -5   3   4    0.70    1.00
  -5  -3  -4    0.20    0.70
   5   3  -4   -0.50    0.80
  -5  -3  -4    0.40    0.80
   5   3  -4   -0.60    0.60
   5   3  -4    1.20    0.90
  -5   3   4    1.10    1.20
   5  -3   4    0.30    0.80
   5  -3  -4    1.80    1.00
   5   3   4    1.60    1.10
   5  -3  -4    0.50    0.80
  -5   3  -4    1.10    0.80
  -5  -3   4    0.10    0.90
  -5  -3   4    0.40    0.80
   5   4  -4    0.00    0.90
  -5   4   4   -0.70    1.00
   5  -4   4    0.60    1.40
  -5   4   4    0.80    1.30
   5   4  -4    1.50    1.30
  -5   4  -4    1.20    1.00
   5  -4  -4    1.20    1.20
   5  -4  -4    1.70    1.30
  -5  -4   4    0.20    1.00
  -5  -4   4    0.90    1.40
   5   4   4    0.60    1.20
  -5   0  -5    0.30    0.50
   5   0   5    1.50    0.90
   5   0   5    0.50    0.60
  -5   0  -5    0.80    0.60
  -5   0   5    0.50    0.70
   5   0  -5    1.10    0.70
   5   0  -5    1.70    0.60
   5   0  -5    1.40    0.80
  -5   0   5    0.10    0.50
  -5   1   5    0.10    0.50
  -5  -1  -5    0.30    0.40
   5  -1   5   -0.10    0.50
   5   1  -5   -0.40    0.30
  -5  -1  -5    0.20    0.50
   5   1  -5   -0.10    0.40
  -5   1   5   -0.50    0.50
   5  -1   5   -0.30    0.50
  -5   1   5   -0.20    0.40
   5   1   5    0.10    0.50
   5  -1  -5    0.20    0.50
  -5  -1   5    0.40    0.60
   5  -1  -5   -0.20    0.40
  -5   1  -5    0.00    0.50
  -5   1  -5   -0.60    0.30
  -5  -1   5    0.00    0.60
   5   1   5    0.10    0.50
  -5   2   5   31.50    3.20
  -5   2   5   24.90    2.90
  -5  -2  -5   21.20    2.60
   5   2  -5   20.90    2.40
  -5  -2  -5   25.20    2.50
  -5  -2  -5   28.40    2.40
   5  -2   5   24.60    2.50
   5   2  -5   25.00    2.60
   5  -2   5   26.10    3.00
  -5  -2   5   21.10    2.70
   5   2   5   26.00    2.50
  -5  -2   5   25.60    2.70
   5   2   5   28.50    2.90
   5  -2  -5   22.70    2.60
   5  -2  -5   27.40    2.60
  -5   2  -5   27.80    2.50
   5   2   5   24.50    2.70
  -5   2  -5   23.20    2.60
   5   3  -5   30.10    3.20
  -5  -3  -5   27.30    3.10
  -5   3   5   34.10    3.70
   5   3  -5   29.40    3.00
  -5   3   5   31.00    3.60
   5   3  -5   18.60    2.80
   5  -3   5   27.50    3.40
   5  -3  -5   28.20    3.20
   5   3   5   33.00    3.30
  -5  -3   5   31.90    3.70
  -5  -3   5   34.40    3.60
   5  -3  -5   28.40    3.20
  -5   3  -5   28.40    3.10
   5   3   5   25.30    3.10
   5   0   6    0.30    0.60
   5   0   6    0.10    0.70
   5   0  -6    0.30    0.60
   5   0  -6   -0.60    0.50
  -5   0   6    0.00    0.60
  -5   0   6    0.10    0.50
  -5   0  -6   -0.40    0.40
  -5   0  -6   -0.20    0.50
   5  -1   6   26.20    2.90
  -5   1   6   28.80    3.00
  -5  -1  -6   23.40    2.60
  -5  -1  -6   27.20    2.30
  -5   1   6   25.60    2.70
   5  -1   6   28.70    2.80
  -5  -1  -6   23.10    2.50
   5   1  -6   29.50    2.80
   5   1  -6   30.70    2.50
   5  -1  -6   25.30    2.30
   5  -1  -6   32.70    3.00
  -5   1  -6   23.40    2.40
  -5   1  -6   34.60    2.90
  -5  -1   6   32.20    3.30
   5   1   6   25.90    2.80
  -5  -1   6   24.00    2.60
   5   1   6   19.10    2.50
  -5  -2  -6   64.99    4.80
   5   2  -6   63.89    4.50
   5   2  -6   67.59    4.50
  -5   2   6   77.89    4.80
  -5   2   6   69.89    5.20
  -5  -2  -6   68.29    4.50
   5  -2   6   68.69    4.50
  -5   2   6   69.09    4.90
   5  -2   6   75.09    5.30
   5   2   6   79.79    5.30
  -5   2  -6   69.89    4.30
   5  -2  -6   59.39    4.60
   5  -2  -6   80.39    4.80
  -5   2  -6   63.89    4.50
  -5  -2   6   65.59    5.20
   5   2   6   74.99    5.00
  -5  -2   6   65.79    4.60
  -5   3   6   28.90    3.60
   5   3  -6   22.90    3.10
  -5   3   6   21.20    3.10
  -5  -3  -6   23.90    2.90
   5  -3   6   22.20    3.10
   5   3  -6   20.50    2.80
   5   3  -6   20.80    2.70
   5  -3  -6   22.60    2.90
  -5  -3   6   25.70    3.30
   5  -3  -6   18.00    2.70
  -5   3  -6   23.10    2.90
   5   3   6   19.80    2.80
  -5  -3   6   22.80    3.20
   5   3   6   26.90    3.20
  -5   0  -7  131.39    6.10
  -5   0  -7  131.09    6.70
  -5   0   7  126.19    6.50
  -5   0   7  138.89    7.40
   5   0  -7  130.09    6.50
   5   0   7  130.39    6.90
   5   0  -7  126.59    6.40
   5   0   7  115.39    6.60
  -5  -1  -7  100.79    5.90
   5  -1   7  121.19    6.50
   5  -1   7  113.79    6.70
  -5   1   7  123.39    7.10
  -5   1   7  109.39    6.20
  -5  -1  -7  113.09    6.50
   5   1  -7  109.99    6.20
   5   1   7  120.59    6.80
  -5   1  -7  120.69    6.00
  -5   1  -7  114.29    6.20
  -5  -1   7  115.29    7.10
   5  -1  -7  120.89    6.00
  -5  -1   7  119.39    6.40
   5  -1  -7  115.39    6.40
   5   1   7  111.79    6.50
  -5  -2  -7   21.20    2.80
   5   2  -7   15.80    2.20
   5  -2   7   24.80    3.10
  -5   2   7   23.90    3.20
  -5   2   7   22.80    2.80
  -5  -2  -7   17.10    2.40
   5   2  -7   25.90    2.90
  -5   2   7   27.60    3.00
  -5   2  -7   22.00    2.60
  -5  -2   7   17.90    2.90
  -5  -2   7   21.40    2.70
   5   2   7   19.10    2.80
  -5   2  -7   20.90    2.60
   5  -2  -7   19.20    2.70
   5   2   7   19.40    2.80
  -5   3   7    1.40    1.40
   5   3  -7    1.20    1.30
  -5  -3  -7    1.30    1.20
   5   3  -7    3.30    1.60
  -5   3   7    1.10    1.30
  -5   3   7    2.20    1.60
   5  -3   7    1.40    1.40
   5   3  -7    0.50    1.10
   5   3   7    0.20    1.20
   5   3   7    3.20    1.70
   5  -3  -7    0.80    1.10
  -5  -3   7    1.50    1.40
   5  -3  -7    0.00    1.00
  -5   3  -7    0.40    0.90
   5   0  -8    0.10    0.70
   5   0   8   -0.80    0.60
   5   0  -8    1.00    0.90
  -5   0  -8    1.20    1.00
  -5   0  -8    0.00    0.60
  -5   0   8    0.30    1.00
   5   0   8    0.10    0.80
  -5   1   8    0.30    0.90
   5  -1   8    0.40    1.00
  -5  -1  -8    1.20    1.00
   5   1  -8   -0.20    0.80
  -5  -1  -8   -0.50    0.60
   5  -1   8    0.20    0.80
   5   1   8    0.20    0.80
   5   1   8   -1.20    0.80
  -5   1  -8    0.10    0.70
   5  -1  -8   -0.50    0.70
  -5   1  -8   -0.40    0.80
  -5  -1   8   -0.10    0.90
   5  -1  -8    1.50    1.00
  -5  -2  -8    1.10    1.00
   5  -2   8    0.50    1.00
  -5   2   8   -1.00    0.90
   5   2  -8    1.80    1.10
  -5  -2  -8    0.50    0.90
  -5   2  -8    0.40    0.90
   5  -2  -8    0.00    0.90
  -5   2  -8    1.50    1.10
   5   2   8    0.50    1.10
  -5  -2   8   -0.20    1.00
   5   2   8   -0.20    0.90
   5   0   9   61.59    5.10
  -5   0   9   69.89    5.70
  -5   0  -9   66.89    5.00
   5   0   9   73.39    5.50
   5   0  -9   60.69    4.70
   5  -1   9   26.40    3.40
   5  -1   9   36.60    4.00
  -5  -1  -9   27.20    3.20
  -5  -1  -9   29.90    3.50
  -5   1   9   26.70    3.70
   5   1  -9   30.20    3.40
   5   1   9   24.70    3.30
  -5   1  -9   33.30    3.60
  -5  -1   9   33.80    4.10
   5   1   9   26.30    3.50
   5  -1  -9   31.10    3.20
   5  -1  -9   25.90    3.30
  -5   1  -9   25.80    2.70
  -5   2   9    3.90    2.20
   5   2  -9    5.40    2.30
  -5  -2  -9    8.00    2.10
  -5   2  -9    5.30    1.80
  -5   2  -9    8.60    2.20
   5   2   9    6.10    2.10
   5   0  10   -0.90    1.10
  -5   0  10   -0.30    1.20
   5   0 -10   -0.80    0.80
   5   0  10   -0.30    1.00
  -5   0 -10   -0.20    1.00
   6   0   0  568.34   17.90
  -6   0   0  547.15   17.30
   6   0   0  569.34   17.50
  -6   0   0  538.85   17.70
  -6  -1   0 2217.78   58.79
   6   1   0 2062.09   59.59
   6   1   0 2110.99   59.39
  -6   1   0 2093.69   59.29
  -6  -1   0 2091.69   59.49
  -6   1   0 2058.89   59.89
   6  -1   0 2184.78   58.99
   6  -1   0 2093.39   60.09
  -6  -1   0 2098.99   59.99
   6  -1   0 2149.48   59.09
  -6   2   0   74.39    4.70
  -6  -2   0   72.39    4.10
  -6   2   0   73.49    4.00
   6  -2   0   60.89    4.00
   6  -2   0   68.29    4.30
   6   2   0   60.59    3.90
   6   2   0   61.79    4.00
  -6  -2   0   57.79    4.00
  -6  -2   0   64.79    4.00
  -6  -3   0  186.68    8.90
   6   3   0  178.18    8.40
   6   3   0  170.68    8.80
  -6  -3   0  180.78    8.70
  -6   3   0  168.08    8.70
   6  -3   0  183.88    8.40
   6   3   0  183.98    7.90
   6  -3   0  170.28    8.50
  -6   3   0  179.18    7.80
   6   4   0    0.50    1.30
  -6   4   0    0.80    1.20
  -6  -4   0    0.70    1.40
  -6  -4   0    2.30    1.50
   6   4   0   -0.80    0.70
   6  -4   0    0.80    1.10
  -6   0   1    0.10    0.30
   6   0   1   -0.20    0.50
   6   0   1    0.10    0.30
  -6   0   1   -0.10    0.40
  -6   0  -1   -0.20    0.30
  -6   0  -1   -0.30    0.40
   6   0  -1    0.00    0.40
  -6   0   1    0.10    0.30
   6   0   1   -0.20    0.40
   6   0  -1   -0.10    0.40
   6   1  -1  153.28    6.70
  -6   1   1  165.18    6.50
   6   1  -1  157.18    6.50
   6  -1   1  168.68    6.50
   6  -1   1  164.68    6.60
  -6  -1  -1  163.28    7.00
   6   1  -1  166.58    6.90
  -6   1   1  171.98    7.40
   6  -1   1  156.48    7.10
  -6   1   1  162.88    6.10
  -6  -1  -1  164.08    6.80
  -6   1  -1  160.08    6.70
  -6  -1   1  160.88    6.70
   6   1   1  139.59    6.60
  -6  -1   1  167.88    6.50
   6  -1  -1  171.08    6.40
   6  -1  -1  168.28    7.20
  -6  -1   1  166.48    7.30
   6   1   1  170.08    6.90
   6  -1  -1  169.98    6.30
  -6   1  -1  151.98    6.80
   6  -2   1   -0.10    0.50
   6   2  -1   -0.30    0.50
  -6  -2  -1    0.50    0.60
  -6   2   1    0.40    0.50
  -6   2   1    0.20    0.70
   6   2  -1    0.40    0.50
  -6  -2  -1   -0.10    0.60
   6  -2   1   -0.20    0.60
   6   2   1   -0.10    0.40
  -6  -2   1   -0.20    0.40
   6  -2  -1    0.50    0.70
  -6  -2   1    0.00    0.60
  -6   2  -1    0.00    0.50
   6   2   1   -0.70    0.30
  -6  -2   1   -0.30    0.50
   6  -2  -1    0.30    0.60
   6   2   1    0.20    0.70
  -6   2  -1    0.10    0.50
   6  -3   1  155.48    7.50
  -6   3   1  156.38    8.30
   6   3  -1  172.58    7.50
  -6  -3  -1  155.18    8.00
   6   3  -1  157.28    8.20
   6  -3   1  161.68    8.10
  -6  -3  -1  161.58    8.00
   6   3  -1  152.88    7.70
   6  -3  -1  160.38    8.00
  -6  -3   1  170.28    8.30
  -6  -3   1  156.08    8.20
  -6   3  -1  155.38    8.10
   6   3   1  143.99    7.90
   6  -3  -1  142.19    7.50
   6   3   1  149.88    7.50
  -6   3  -1  163.28    7.50
   6   3   1  157.98    7.20
  -6  -4  -1   17.10    3.30
   6   4  -1   25.50    3.20
   6  -4   1   22.00    3.20
   6   4  -1   18.30    3.00
  -6   4   1   13.90    3.10
  -6  -4  -1   18.10    3.50
  -6  -4   1   14.80    3.20
   6   4   1   20.80    2.80
   6  -4  -1   12.80    2.90
  -6   4  -1   24.60    3.50
  -6  -4   1   18.40    3.00
   6   4   1   22.10    3.30
   6   0  -2 1209.48   35.70
  -6   0   2 1237.38   35.00
  -6   0  -2 1208.48   35.60
  -6   0   2 1233.28   35.20
   6   0   2 1223.08   36.00
  -6   0   2 1227.18   36.20
   6   0  -2 1193.98   35.40
   6   0   2 1240.18   35.00
   6   0   2 1213.58   35.60
  -6   0  -2 1230.58   35.20
  -6   0  -2 1235.68   35.60
  -6  -1  -2   30.00    2.40
  -6   1   2   27.20    2.20
  -6  -1  -2   29.80    2.50
  -6   1   2   27.00    2.60
   6  -1   2   26.90    2.20
   6  -1   2   26.40    2.50
   6   1  -2   24.60    2.30
  -6  -1  -2   29.40    2.40
   6   1  -2   27.00    2.20
   6  -1   2   23.80    2.20
  -6   1   2   32.60    2.20
   6   1  -2   30.50    2.50
  -6  -1   2   28.20    2.30
  -6   1  -2   27.80    2.20
   6  -1  -2   29.10    2.30
   6  -1  -2   28.20    2.20
  -6  -1   2   26.40    2.60
  -6   1  -2   28.50    2.40
  -6   1  -2   28.40    2.30
   6  -1  -2   23.90    2.40
   6   1   2   24.90    2.30
   6   1   2   31.20    2.60
  -6   2   2  569.74   19.40
   6   2  -2  560.44   18.50
  -6  -2  -2  590.74   19.80
  -6  -2  -2  565.64   18.80
  -6  -2  -2  569.74   18.30
   6  -2   2  577.54   19.00
   6   2  -2  547.15   18.60
   6  -2   2  573.24   18.80
  -6   2  -2  552.64   18.70
   6   2   2  558.24   18.50
  -6  -2   2  559.34   18.90
   6  -2  -2  566.24   18.50
   6   2   2  598.94   18.70
  -6   2  -2  561.34   18.50
  -6  -2   2  562.74   19.20
   6   2   2  543.15   18.20
   6  -2  -2  565.34   19.20
   6   3  -2   22.20    2.70
   6  -3   2   21.40    2.50
  -6   3   2   24.00    3.00
  -6  -3  -2   28.60    3.10
   6  -3   2   23.20    2.90
  -6  -3  -2   25.00    2.90
   6   3  -2   27.00    2.70
   6  -3  -2   23.50    2.70
   6   3   2   19.20    2.80
   6   3   2   25.10    2.70
  -6   3  -2   22.00    2.80
  -6  -3   2   21.60    2.90
   6  -3  -2   27.80    3.10
  -6   3  -2   22.10    2.50
  -6  -3   2   22.90    2.90
   6   4  -2  133.89    7.60
  -6   4   2  110.79    7.70
   6   4  -2  120.69    7.90
   6  -4   2  124.39    7.80
  -6  -4  -2  117.39    7.50
   6   4   2  123.09    7.70
   6   4   2  111.99    7.60
   6  -4  -2  121.19    7.60
  -6   4  -2  120.69    7.00
  -6  -4   2  126.49    7.90
  -6  -4   2  113.49    7.70
   6  -4  -2  113.69    7.50
  -6   0   3    0.00    0.50
  -6   0  -3    0.30    0.40
  -6   0   3   -0.30    0.70
   6   0  -3   -0.50    0.40
   6   0   3    0.10    0.40
  -6   0   3    0.10    0.40
   6   0  -3    0.40    0.50
   6   0   3   -0.10    0.40
  -6   0  -3    0.00    0.40
   6   0   3   -0.30    0.40
  -6   0  -3    0.10    0.40
   6   0  -3    0.20    0.40
   6   1  -3    0.90    0.60
   6  -1   3    1.10    0.80
   6   1  -3    1.60    0.80
  -6  -1  -3    1.30    0.70
  -6   1   3    0.60    0.70
  -6  -1  -3    0.80    0.70
   6   1  -3    1.20    0.70
  -6   1   3    1.40    0.60
   6  -1   3    1.50    0.80
   6  -1   3    0.90    0.70
   6   1   3    1.10    0.80
  -6   1  -3    2.00    0.90
   6   1   3    0.50    0.60
   6   1   3    0.40    0.60
   6  -1  -3    0.80    0.80
   6  -1  -3    1.60    0.80
  -6  -1   3    1.60    0.80
  -6  -1   3    0.90    0.80
  -6   1  -3    0.60    0.60
  -6  -1   3    1.60    0.70
   6   2  -3  180.88    8.00
   6   2  -3  167.38    7.90
  -6   2   3  189.08    8.20
  -6  -2  -3  182.98    7.80
   6  -2   3  168.38    8.10
  -6  -2  -3  182.38    7.90
   6  -2   3  188.88    8.20
  -6  -2  -3  185.18    7.70
  -6   2   3  186.88    8.70
   6  -2  -3  190.18    8.50
  -6  -2   3  172.68    8.20
   6   2   3  172.08    7.70
   6   2   3  191.28    7.90
  -6  -2   3  195.48    8.70
  -6   2  -3  191.08    8.10
   6   2   3  171.38    7.80
   6  -2  -3  176.68    7.70
  -6   2  -3  178.38    7.80
  -6   3   3    5.00    1.80
  -6   3   3    4.30    1.70
   6   3  -3    3.50    1.40
   6   3  -3    5.10    1.60
  -6  -3  -3    6.50    1.80
   6  -3   3    3.90    1.60
  -6   3  -3    3.90    1.40
  -6  -3   3    5.90    1.90
   6  -3  -3    4.80    1.60
   6  -3  -3    4.70    1.60
  -6  -3   3    6.80    2.00
  -6   3  -3    5.90    1.70
   6   3   3    2.90    1.30
   6   3   3    6.20    1.80
   6   0  -4   53.39    3.70
  -6   0   4   63.59    3.40
  -6   0   4   66.09    4.10
   6   0   4   67.69    4.30
   6   0   4   75.29    4.20
  -6   0  -4   62.19    3.90
  -6   0  -4   65.79    4.00
  -6   0   4   62.59    4.20
   6   0  -4   59.29    3.90
  -6  -1  -4  306.37   11.20
  -6   1   4  313.97   11.70
   6   1  -4  332.07   11.40
  -6   1   4  304.07   12.10
   6  -1   4  312.57   11.80
  -6  -1  -4  324.67   11.80
   6   1  -4  313.67   11.70
   6  -1   4  312.07   11.90
   6  -1  -4  318.37   11.00
  -6   1  -4  301.87   11.50
  -6   1  -4  309.57   11.30
   6  -1  -4  302.27   11.80
   6   1   4  314.57   11.70
   6   1   4  307.37   11.30
  -6  -1   4  320.57   12.20
   6   1   4  310.37   11.90
  -6  -1   4  319.17   12.00
   6  -2   4    8.50    1.90
   6   2  -4    7.20    1.70
   6   2  -4    4.30    1.50
  -6  -2  -4    5.30    1.30
  -6   2   4    7.40    1.90
   6  -2   4    7.30    1.70
  -6  -2  -4    5.00    1.30
  -6   2   4    7.80    2.00
   6   2   4    5.70    1.50
  -6   2  -4    6.10    1.70
   6  -2  -4    6.20    1.50
  -6  -2   4    7.80    1.90
   6   2   4    4.00    1.20
   6   2   4    8.70    1.80
   6  -2  -4    4.40    1.40
  -6  -2   4    7.70    1.90
   6  -3   4  338.17   14.30
   6   3  -4  354.06   14.00
   6   3  -4  335.87   13.30
  -6   3   4  347.07   14.30
  -6   3   4  347.47   14.70
  -6  -3   4  357.76   14.50
   6  -3  -4  348.77   13.80
  -6  -3   4  339.97   14.40
   6  -3  -4  342.97   13.90
  -6   3  -4  362.56   13.90
   6   0  -5    0.60    0.60
   6   0  -5    0.30    0.70
  -6   0  -5    0.10    0.70
  -6   0   5   -0.10    0.50
  -6   0   5    0.10    0.60
  -6   0  -5    0.20    0.50
   6   0   5   -0.20    0.60
   6   0   5   -0.40    0.50
   6  -1   5    2.00    1.00
   6   1  -5    4.10    1.30
  -6   1   5    3.30    1.20
  -6  -1  -5    2.10    1.00
  -6   1   5    2.90    1.20
   6   1  -5    3.60    1.10
  -6  -1  -5    1.40    0.80
   6  -1   5    1.70    1.10
   6  -1  -5    1.20    0.80
   6   1   5    2.40    1.10
  -6   1  -5    2.50    0.90
   6  -1  -5    1.60    0.90
  -6  -1   5    0.70    0.70
  -6   1  -5    1.30    0.90
   6   1   5    1.10    0.90
  -6  -1   5    0.80    0.90
  -6   2   5  117.09    6.80
   6   2  -5  120.49    6.40
   6  -2   5  132.59    7.20
  -6  -2  -5  114.99    6.20
  -6  -2  -5  128.09    6.00
   6   2  -5  112.59    6.40
  -6   2   5  121.29    7.00
   6  -2   5  127.79    6.60
   6   2   5  113.89    6.20
   6   2   5  119.89    6.70
  -6  -2   5  117.39    6.90
  -6  -2   5  121.79    6.80
   6  -2  -5  120.29    6.70
  -6   2  -5  121.59    6.50
   6   2   5  123.49    6.50
   6   3  -5    1.10    0.90
   6   3  -5    0.90    1.20
   6  -3   5    2.10    1.50
  -6   3   5    0.60    1.10
  -6   3   5    1.30    1.30
   6  -3  -5    0.80    1.10
  -6  -3   5    0.90    1.20
  -6   3  -5    1.70    1.10
   6  -3  -5    2.80    1.50
  -6  -3   5    1.40    1.20
  -6   0  -6  580.94   19.00
   6   0   6  572.64   19.80
   6   0  -6  578.34   19.20
  -6   0   6  571.44   19.50
  -6   0  -6  582.44   19.40
  -6   0   6  561.54   20.00
   6   0  -6  587.04   19.30
   6   0   6  592.64   20.10
  -6   1   6   15.50    2.40
   6  -1   6    9.10    2.10
  -6  -1  -6   19.50    2.40
   6   1  -6   14.10    2.10
   6   1  -6   18.20    2.00
  -6  -1  -6   13.20    1.80
  -6   1   6   18.20    2.50
   6  -1   6   15.40    2.30
  -6  -1   6   16.50    2.20
  -6   1  -6   18.00    2.20
  -6   1  -6   15.40    2.00
   6   1   6   16.00    2.30
   6  -1  -6   14.00    1.90
  -6  -1   6   23.90    2.90
   6   1   6   17.80    2.40
   6  -1  -6   16.60    2.30
  -6   2   6  329.57   14.20
   6   2  -6  350.46   13.30
   6   2  -6  352.66   13.60
   6  -2   6  353.96   13.50
  -6   2   6  348.67   14.10
  -6  -2  -6  338.77   13.20
   6  -2   6  364.46   14.60
   6   2   6  336.37   13.90
  -6  -2   6  344.77   14.40
   6   2   6  352.36   13.40
  -6  -2   6  346.47   13.80
   6  -2  -6  350.26   14.00
  -6   2  -6  322.67   13.30
   6   2   6  346.37   13.60
  -6   3   6   18.50    3.10
   6   3  -6   14.90    2.80
   6   3  -6   19.20    2.70
   6  -3   6   11.30    2.80
  -6   3   6   21.90    3.20
   6  -3  -6   17.40    2.80
  -6  -3   6   14.30    3.00
  -6  -3   6   11.20    2.80
  -6   3  -6   11.30    2.50
   6   3   6   19.80    2.90
   6   0  -7   -0.50    0.60
   6   0   7   -0.10    0.80
  -6   0  -7    0.40    0.70
  -6   0   7    0.50    0.90
  -6   0   7   -0.40    0.60
   6   0   7    0.10    0.70
   6   0  -7    0.20    0.70
  -6   0  -7    0.00    0.60
   6  -1   7   22.50    3.00
  -6   1   7   30.80    3.50
   6   1  -7   27.90    3.00
  -6   1   7   29.30    3.20
   6  -1   7   28.50    3.20
  -6  -1  -7   28.60    3.10
   6   1   7   26.50    3.10
  -6  -1   7   28.60    3.20
   6   1   7   28.60    3.30
  -6  -1   7   24.10    3.20
   6  -1  -7   35.20    3.40
   6  -1  -7   31.70    2.90
  -6   1  -7   35.90    3.20
  -6   1  -7   25.30    2.80
   6  -2   7   -0.20    1.10
  -6  -2  -7   -0.30    0.80
  -6   2   7    1.10    1.10
   6  -2   7    0.40    1.00
   6   2  -7    0.20    0.80
  -6   2   7    0.00    1.10
   6   2  -7    0.40    1.00
   6  -2  -7    0.30    1.00
  -6  -2   7    0.60    1.00
   6   2   7    0.20    1.00
   6   2   7    0.10    0.90
  -6   2  -7   -0.30    0.70
  -6  -2   7    0.10    0.90
   6   0   8   92.59    6.30
  -6   0   8  102.49    6.70
  -6   0  -8   92.39    5.40
  -6   0  -8   85.19    5.70
   6   0   8   93.49    6.30
   6   0  -8   88.89    5.70
   6  -1   8  523.05   19.90
  -6   1   8  545.45   20.40
   6  -1   8  564.94   19.60
   6   1  -8  537.45   19.00
  -6  -1  -8  547.35   19.10
   6   1   8  523.35   19.60
   6   1   8  521.45   19.70
   6  -1  -8  544.35   19.30
  -6  -1   8  521.35   20.30
   6  -1  -8  501.55   18.10
  -6   1  -8  501.55   18.70
  -6   1  -8  513.85   18.40
   6  -2   8   13.50    3.00
  -6   2   8   12.10    3.00
   6   2  -8    8.10    2.20
  -6  -2  -8   13.60    2.80
   6  -2  -8   12.40    2.70
   6   2   8   16.50    3.30
  -6   2  -8   11.80    2.50
  -6  -2   8    9.20    2.80
   6   2   8   16.20    3.10
  -6   0   9    0.90    1.20
   6   0   9   -0.30    1.00
  -6   0  -9    0.10    1.00
   6   0   9    1.00    1.20
   6   0  -9    0.00    0.80
   6  -1   9   19.70    3.00
   6   1  -9   22.20    3.00
  -6   1   9   24.30    3.50
  -6  -1  -9   20.10    3.00
   6  -1   9   25.10    3.70
   6   1   9   21.80    3.30
   6  -1  -9   19.20    2.90
  -6   1  -9   23.60    2.80
   6  -1  -9   15.00    2.70
  -6  -1   9   18.20    3.60
  -6   1  -9   18.40    3.20
   6   1   9   25.60    3.50
  -7   0   0    0.40    0.60
   7   0   0   -0.10    0.40
   7   0   0    0.00    0.50
  -7   0   0    0.00    0.50
  -7  -1   0   -0.20    0.60
   7   1   0   -0.10    0.50
   7  -1   0   -0.60    0.40
   7  -1   0    1.10    0.80
  -7   1   0    0.00    0.40
  -7  -1   0    0.40    0.50
  -7   1   0    0.40    0.60
   7   1   0    0.20    0.50
  -7   2   0   -0.10    0.60
  -7  -2   0    0.10    0.60
  -7   2   0   -0.10    0.50
  -7  -2   0    0.10    0.60
   7  -2   0    0.20    0.70
   7  -2   0   -0.20    0.60
   7   2   0   -0.30    0.60
   7   2   0   -0.30    0.50
  -7  -3   0   -0.10    0.80
   7   3   0    0.00    0.70
  -7   3   0   -0.40    0.80
   7  -3   0    0.10    0.80
   7  -3   0    0.10    0.80
   7   3   0    0.00    0.60
  -7  -3   0    0.20    0.90
   7   0   1    0.10    0.50
  -7   0   1    0.80    0.70
   7   0  -1   -0.30    0.60
   7   0   1    0.30    0.50
  -7   0   1    0.60    0.50
  -7   0  -1    1.40    0.70
   7   0  -1   -0.10    0.40
  -7   0  -1    0.00    0.60
  -7   1   1    7.00    1.70
   7  -1   1    8.80    1.40
   7  -1   1   11.90    1.50
   7  -1   1   10.50    2.10
  -7  -1  -1   11.00    1.60
   7   1  -1   12.00    1.60
  -7  -1  -1   13.90    1.90
  -7   1   1   11.00    1.50
   7   1  -1    9.80    1.90
   7   1  -1   13.30    1.70
   7   1   1    9.10    1.80
  -7   1  -1   10.80    1.70
   7  -1  -1   10.00    1.50
  -7  -1   1    7.50    1.70
  -7   1  -1   10.20    1.50
   7   1   1    9.60    1.90
  -7  -1   1   10.60    1.50
   7  -1  -1   11.50    1.70
   7   2  -1   48.70    3.60
  -7   2   1   43.20    3.70
  -7   2   1   43.30    3.10
   7   2  -1   41.50    3.40
   7  -2   1   43.20    3.50
   7  -2   1   41.10    3.50
  -7  -2  -1   43.80    3.50
  -7  -2  -1   45.90    3.50
   7  -2  -1   40.90    3.30
  -7   2  -1   45.90    3.40
  -7  -2   1   42.50    3.40
  -7   2  -1   44.10    3.60
  -7  -2   1   44.10    3.40
   7  -2  -1   39.00    3.50
  -7  -2   1   48.60    3.90
   7   2   1   51.09    3.70
   7   2   1   44.10    3.50
   7   3  -1   57.59    4.20
   7  -3   1   48.50    4.20
   7  -3   1   52.99    4.50
   7   3  -1   51.09    4.30
  -7  -3  -1   62.39    4.80
  -7   3   1   49.99    4.60
   7   3   1   65.19    5.00
   7   3   1   53.89    4.00
  -7  -3   1   57.49    4.60
  -7   3  -1   59.29    4.80
  -7  -3   1   55.19    4.70
  -7   3  -1   54.29    4.00
   7  -3  -1   62.59    4.70
   7  -3  -1   57.49    4.50
   7   3   1   63.19    4.50
   7   0  -2   -0.30    0.50
  -7   0   2   -0.20    0.40
  -7   0  -2    0.10    0.50
   7   0  -2    0.50    0.50
  -7   0  -2   -0.50    0.40
   7   0   2   -0.40    0.40
  -7   0   2   -0.30    0.50
  -7   0  -2    0.50    0.60
   7   0   2   -0.10    0.50
  -7   1   2   43.10    2.80
   7   1  -2   40.30    2.90
   7   1  -2   39.50    3.00
  -7  -1  -2   32.60    2.80
   7  -1   2   31.90    3.00
   7  -1   2   33.80    2.80
   7  -1   2   37.40    2.80
   7   1  -2   43.80    3.20
  -7  -1  -2   32.70    2.80
  -7   1   2   34.30    3.20
  -7   1  -2   37.70    3.00
  -7  -1   2   33.00    2.80
   7  -1  -2   45.80    3.00
  -7  -1   2   37.00    3.30
  -7   1  -2   40.60    2.90
   7  -1  -2   35.20    3.10
  -7   1  -2   37.40    3.00
   7   1   2   32.10    2.90
   7   1   2   38.50    3.20
   7   2  -2   85.99    5.20
  -7  -2  -2   78.89    5.00
   7   2  -2   81.79    5.00
   7  -2   2   82.69    5.20
  -7   2   2   87.59    5.60
   7  -2   2   91.99    5.50
  -7  -2  -2   89.49    5.00
   7   2   2   96.99    5.30
  -7   2  -2   94.29    5.30
   7   2   2   87.09    5.00
  -7   2  -2   93.09    5.20
  -7  -2   2   89.09    5.60
   7   2   2   90.79    5.20
   7  -2  -2   77.49    5.30
  -7  -2   2   94.99    5.40
   7   3  -2   36.00    3.20
  -7   3   2   25.50    3.30
   7  -3   2   30.40    3.40
   7   3  -2   27.80    3.10
  -7  -3  -2   24.30    3.00
   7  -3   2   30.80    3.20
  -7   3  -2   29.10    3.30
   7  -3  -2   29.90    3.30
   7  -3  -2   32.80    3.40
  -7  -3   2   24.10    3.20
  -7  -3   2   27.20    3.30
  -7   3  -2   28.90    3.00
   7   3   2   32.60    3.20
   7   3   2   29.70    3.30
   7   0   3  378.86   14.30
   7   0   3  393.86   14.00
  -7   0   3  393.86   13.40
   7   0  -3  397.86   13.90
   7   0  -3  414.46   14.30
  -7   0  -3  419.06   14.20
  -7   0   3  395.46   14.70
   7   0   3  397.46   13.60
  -7   0  -3  407.76   14.20
  -7  -1  -3  228.78    9.30
   7   1  -3  232.38    9.40
  -7   1   3  216.08    9.70
  -7  -1  -3  223.98    9.00
   7  -1   3  219.68    8.80
   7  -1   3  210.38    9.40
   7   1  -3  226.18    9.00
   7  -1   3  226.38    9.30
  -7  -1   3  230.18    9.20
   7   1   3  223.88    9.30
  -7  -1   3  226.48    8.90
   7  -1  -3  228.28    9.70
  -7   1  -3  219.98    8.80
   7  -1  -3  226.78    8.70
   7   1   3  216.98    9.40
  -7   1  -3  218.08    9.10
  -7  -1   3  223.58    9.80
  -7   2   3   63.19    4.80
   7  -2   3   57.29    4.40
   7  -2   3   64.59    4.60
   7   2  -3   73.19    4.60
  -7  -2  -3   63.19    4.30
   7   2  -3   67.19    4.60
  -7  -2  -3   67.29    4.30
   7  -2  -3   67.49    4.80
  -7  -2   3   64.59    4.80
   7   2   3   64.29    4.40
   7   2   3   60.49    4.20
  -7  -2   3   68.19    4.60
   7   2   3   68.79    4.60
  -7   2  -3   55.29    4.00
  -7   2  -3   57.59    4.20
  -7  -3  -3   13.80    2.70
   7  -3   3   13.00    2.50
   7  -3   3   11.40    2.50
   7   3  -3   14.00    2.60
  -7   3   3    9.30    2.50
   7   3  -3   11.10    2.40
   7  -3  -3   10.20    2.30
   7  -3  -3   10.30    2.30
  -7  -3   3   14.10    3.00
   7   3   3   15.00    3.50
  -7   3  -3   16.10    2.80
   7   3   3   15.40    2.70
  -7  -3   3    8.20    2.20
   7   3   3   15.90    2.90
   7   0  -4    0.30    0.50
   7   0   4   -0.50    0.50
  -7   0   4   -0.50    0.50
  -7   0  -4    0.00    0.50
  -7   0  -4    0.60    0.60
   7   0  -4   -0.20    0.50
   7   0   4    0.00    0.60
  -7   0   4   -0.10    0.40
  -7   0   4   -0.20    0.60
   7   0   4   -0.90    0.50
   7   0  -4    0.70    0.70
   7   1  -4   -0.10    0.60
   7  -1   4   -0.40    0.60
  -7  -1  -4    0.20    0.60
  -7   1   4   -0.40    0.50
   7  -1   4    0.20    0.60
  -7   1   4    0.20    0.70
   7   1  -4   -0.30    0.40
   7  -1   4   -0.10    0.60
  -7  -1  -4   -0.30    0.50
   7   1   4   -0.40    0.50
   7  -1  -4    0.80    0.80
  -7  -1   4   -0.10    0.70
  -7   1  -4    0.80    0.70
   7  -1  -4    0.10    0.50
  -7  -1   4   -0.20    0.60
   7   1   4    1.20    0.90
  -7   1  -4   -0.40    0.60
  -7   2   4    1.20    1.00
  -7  -2  -4    0.90    0.80
   7  -2   4    1.20    1.00
   7   2  -4    1.70    1.00
  -7   2   4    0.60    0.90
   7  -2   4    0.00    0.70
  -7  -2  -4    1.90    1.00
   7   2  -4    1.30    1.00
  -7  -2   4    2.20    1.30
   7   2   4    1.80    1.00
   7   2   4    1.60    1.10
   7   2   4    2.30    0.90
   7  -2  -4    3.10    1.30
  -7   2  -4    1.60    1.00
  -7  -2   4    1.20    1.10
  -7   3   4    0.80    1.10
   7   3  -4   -0.50    0.80
   7  -3   4    1.10    1.30
  -7  -3  -4    0.70    0.90
   7   3  -4   -0.10    0.90
   7  -3  -4    2.40    1.30
  -7  -3   4    2.70    1.50
  -7  -3   4    1.40    1.30
  -7   3  -4    1.40    1.10
  -7   0   5  203.18    9.10
   7   0  -5  202.38    8.80
   7   0   5  196.78    8.90
  -7   0   5  187.68    9.10
  -7   0  -5  202.98    8.90
   7   0   5  194.98    9.30
   7   0  -5  230.58    9.00
  -7   0  -5  211.98    8.90
   7  -1   5  149.19    7.60
   7   1  -5  152.18    7.00
  -7   1   5  142.89    7.40
  -7  -1  -5  145.49    7.30
  -7  -1  -5  152.58    7.00
  -7   1   5  145.99    7.80
   7  -1   5  142.79    7.60
   7   1  -5  151.08    7.50
  -7  -1   5  141.99    7.70
   7   1   5  148.89    7.70
   7  -1  -5  152.38    6.90
   7  -1  -5  152.38    7.60
  -7   1  -5  146.19    7.20
   7   1   5  149.39    7.40
  -7   1  -5  160.38    7.30
  -7  -1   5  141.29    7.50
   7   1   5  147.19    7.20
  -7  -2  -5   50.49    3.70
  -7  -2  -5   55.39    4.20
   7  -2   5   53.99    4.50
  -7   2   5   50.89    4.50
   7   2  -5   45.70    3.90
  -7   2   5   49.80    4.30
   7  -2   5   52.59    4.30
   7   2  -5   53.49    4.30
   7  -2  -5   49.50    4.30
  -7   2  -5   58.29    4.30
   7   2   5   55.89    4.30
  -7  -2   5   50.99    4.50
  -7  -2   5   55.29    4.60
   7   2   5   54.89    4.40
  -7   3   5    3.70    1.80
   7   3  -5    5.90    1.90
   7  -3   5    3.70    1.80
   7   3  -5    3.90    1.60
  -7  -3   5    2.60    1.50
  -7   3  -5    4.70    1.70
   7  -3  -5    6.60    2.10
  -7  -3   5    3.70    1.70
  -7   0  -6   -0.30    0.70
  -7   0   6    0.00    0.80
  -7   0   6    0.40    0.80
   7   0   6    0.10    0.70
  -7   0  -6   -0.30    0.50
   7   0   6    0.20    0.90
   7   0  -6    0.50    0.70
   7   0  -6    0.30    0.80
   7  -1   6   25.60    3.10
   7   1  -6   33.90    3.80
  -7   1   6   35.40    3.50
  -7  -1  -6   33.80    3.00
   7  -1   6   28.90    3.30
   7   1  -6   31.30    3.20
  -7   1   6   34.20    3.60
  -7  -1  -6   30.80    3.10
  -7   1  -6   30.40    3.10
  -7  -1   6   30.40    3.50
   7  -1  -6   27.30    3.00
   7   1   6   31.70    3.40
  -7   1  -6   30.50    3.00
   7  -1  -6   27.30    2.70
   7   1   6   29.90    3.10
  -7  -1   6   42.00    3.80
  -7   2   6   60.29    4.90
   7  -2   6   52.79    4.80
   7   2  -6   50.49    4.10
   7   2  -6   47.30    4.20
  -7   2   6   46.30    4.50
  -7  -2  -6   48.80    4.10
   7  -2   6   49.70    4.30
  -7  -2   6   48.40    4.60
  -7  -2   6   56.39    4.70
   7  -2  -6   51.29    4.50
  -7   2  -6   44.80    4.00
   7   2   6   50.19    4.50
   7   2   6   53.99    4.30
  -7   0   7    0.40    1.00
  -7   0  -7   -0.70    0.70
  -7   0  -7   -0.10    0.70
   7   0   7   -0.40    0.90
  -7   0   7    0.90    1.00
   7   0   7    1.00    1.00
   7   0  -7    1.00    1.00
   7   0  -7   -0.60    0.60
   7   1  -7    4.90    1.60
  -7  -1  -7    3.30    1.30
   7  -1   7    2.30    1.40
  -7   1   7    4.00    1.90
   7  -1   7    3.70    1.60
  -7   1   7    4.20    1.70
  -7  -1  -7    3.90    1.30
   7  -1  -7    2.70    1.20
   7   1   7    7.00    2.00
  -7   1  -7    1.40    1.20
   7  -1  -7    2.10    1.30
  -7  -1   7    3.70    1.70
  -7   1  -7    3.40    1.30
  -7  -1   7    4.30    1.60
   7   1   7    2.80    1.40
  -7  -2  -7   10.90    2.30
  -7   2   7   10.40    2.50
   7  -2   7   10.90    2.70
  -7   2   7   13.70    2.90
   7   2  -7   14.10    2.90
   7   2  -7   11.70    2.40
   7  -2   7   13.70    2.80
  -7   2  -7   10.40    2.30
  -7  -2   7    8.20    2.20
   7   2   7   13.30    2.60
   7  -2  -7    8.80    2.40
  -7  -2   7   13.50    3.20
   7   2   7    7.90    2.30
   7   0  -8   -1.40    0.70
   7   0   8    0.80    1.20
  -7   0  -8    0.00    0.60
   7   0   8   -0.20    1.00
  -7   0   8    0.50    1.10
  -7   0  -8    0.30    0.90
   7  -1   8    0.10    1.10
  -7  -1  -8   -0.40    0.90
   7  -1   8   -0.20    1.30
   7   1  -8   -0.40    0.80
  -7   1   8   -0.60    1.20
  -7   1  -8    1.70    1.20
   7  -1  -8   -1.10    0.80
   7   1   8   -0.70    0.80
   7   1   8   -0.10    1.00
   7  -1  -8    0.90    1.00
  -7   1  -8    0.40    0.80
  -7  -1   8   -0.80    0.90
  -8   0   0 1894.61   54.29
   8   0   0 1901.51   54.39
  -8   0   0 1897.21   54.89
   8   0   0 1886.71   54.89
   8  -1   0  379.26   12.90
  -8  -1   0  356.36   13.20
   8  -1   0  349.77   13.80
   8   1   0  351.46   13.10
   8   1   0  350.66   13.30
  -8   1   0  362.36   13.10
  -8  -1   0  382.56   13.90
  -8   1   0  362.76   13.80
   8   2   0  688.43   22.60
   8   2   0  699.03   22.90
  -8   2   0  685.43   22.20
  -8   2   0  699.83   23.40
  -8  -2   0  666.43   23.00
  -8  -2   0  690.73   22.70
   8  -2   0  684.13   23.20
   8   3   0   33.50    3.30
   8  -3   0   27.20    3.30
   8   3   0   37.30    3.60
  -8   3   0   35.10    3.90
  -8  -3   0   30.70    3.60
   8  -3   0   26.30    3.30
  -8   0   1    0.30    0.70
  -8   0   1   -0.40    0.50
  -8   0  -1   -0.40    0.50
   8   0   1    0.40    0.60
   8   0  -1    1.30    0.80
  -8   0  -1    0.00    0.50
   8   0   1   -0.20    0.60
   8   0  -1   -0.30    0.70
  -8  -1  -1    0.00    0.40
   8   1  -1    0.70    0.70
  -8  -1  -1    1.20    0.90
   8   1  -1    2.00    1.00
   8   1  -1    2.80    1.10
   8  -1   1    2.20    1.00
  -8   1   1    1.20    1.00
   8  -1   1    1.90    0.90
  -8   1   1    1.30    0.90
   8  -1  -1    1.90    1.10
   8  -1  -1    1.60    0.90
  -8   1  -1    1.60    1.10
   8   1   1    0.70    0.80
   8   1   1   -0.20    0.60
  -8  -1   1    0.40    0.80
  -8   1  -1    1.20    0.70
  -8  -1   1    2.90    1.10
  -8  -2  -1  129.49    6.70
   8   2  -1  122.89    6.70
   8  -2   1  135.09    7.20
  -8   2   1  118.09    6.10
   8   2  -1  120.79    6.50
  -8  -2  -1  126.59    6.80
  -8   2   1  126.39    7.20
  -8  -2   1  119.99    6.40
   8   2   1  135.49    6.90
   8  -2  -1  132.99    7.20
   8   2   1  118.59    6.50
  -8   2  -1  118.99    6.80
  -8   2  -1  125.59    6.50
  -8  -2   1  114.19    6.90
   8  -3   1    3.00    1.50
   8  -3   1    1.60    1.20
   8   3  -1    2.20    1.20
  -8  -3  -1    2.00    1.40
   8   3  -1    1.70    1.20
  -8   3   1    2.80    1.60
   8   3   1    1.30    1.00
   8  -3  -1    0.90    1.10
   8   3   1    2.50    1.30
  -8   3  -1    1.30    1.20
  -8   3  -1    3.60    1.40
   8   3   1    1.10    1.30
  -8  -3   1    1.40    1.30
   8   0   2  117.09    6.00
  -8   0   2  112.19    5.50
   8   0   2  104.79    6.00
  -8   0  -2  104.89    5.60
   8   0  -2  104.09    5.80
   8   0  -2  103.59    5.60
  -8   0   2  100.09    6.00
  -8   0  -2  107.69    5.50
  -8  -1  -2  812.52   26.10
  -8   1   2  848.82   25.50
  -8   1   2  840.92   27.30
   8  -1   2  826.42   25.80
  -8  -1  -2  831.42   26.20
   8   1  -2  834.32   26.40
   8  -1   2  800.42   26.70
   8   1  -2  843.42   25.90
   8   1  -2  824.42   26.10
  -8  -1   2  844.02   26.00
   8  -1  -2  846.72   26.90
  -8   1  -2  834.72   26.20
   8   1   2  838.62   26.50
  -8   1  -2  832.22   26.30
   8  -1  -2  839.32   25.60
   8   1   2  819.52   26.50
  -8  -1   2  825.92   27.20
   8   2  -2   70.49    4.90
   8   2  -2   74.39    5.10
  -8  -2  -2   68.89    4.70
   8  -2   2   72.09    5.20
   8  -2   2   83.29    5.20
  -8  -2  -2   77.29    5.10
  -8   2   2   84.69    5.70
   8  -2  -2   80.59    5.60
   8   2   2   75.09    5.00
  -8   2  -2   75.89    4.90
  -8   2  -2   79.59    5.10
   8   2   2   88.29    5.30
  -8  -2   2   74.59    5.40
   8   3  -2  309.57   13.10
  -8   3   2  310.87   13.70
  -8  -3  -2  283.47   12.70
   8  -3   2  302.37   12.70
   8  -3   2  304.17   13.10
   8   3  -2  320.57   12.70
  -8  -3   2  288.77   13.30
   8   3   2  291.17   12.50
  -8   3  -2  301.57   12.90
  -8   3  -2  286.57   12.20
   8   3   2  281.37   12.20
   8   3   2  304.67   13.10
   8  -3  -2  329.67   13.50
   8   0   3    0.80    0.80
   8   0  -3    0.00    0.60
   8   0   3    0.40    0.80
   8   0  -3    0.00    0.60
   8   0  -3    0.30    0.50
  -8   0  -3    0.30    0.70
  -8   0  -3    0.60    0.60
  -8   0   3    0.10    0.60
  -8   0   3    0.60    0.80
  -8   1   3   50.09    4.30
  -8  -1  -3   46.60    3.70
   8  -1   3   52.19    3.80
   8   1  -3   63.69    4.10
   8  -1   3   57.69    4.30
  -8  -1  -3   48.90    3.70
   8   1  -3   54.09    4.00
  -8  -1  -3   47.70    3.90
   8   1   3   51.49    4.10
  -8   1  -3   49.90    3.90
   8  -1  -3   48.20    4.10
   8   1   3   49.80    3.90
  -8   1  -3   53.19    3.80
  -8  -1   3   51.69    3.70
   8  -1  -3   53.89    3.60
  -8  -1   3   51.69    4.30
  -8  -2  -3    0.30    0.80
   8  -2   3    0.10    0.80
  -8  -2  -3   -0.30    0.60
   8   2  -3   -0.20    0.70
   8  -2   3    0.90    1.00
   8   2  -3    1.80    1.00
  -8   2   3   -1.60    0.70
   8  -2  -3    1.30    1.10
   8   2   3    0.30    0.70
  -8   2  -3   -0.10    0.50
   8   2   3    0.10    0.70
   8   2   3    0.40    0.90
  -8  -2   3   -0.70    0.90
   8  -3   3   72.39    5.70
  -8   3   3   86.49    6.40
   8   3  -3   72.49    5.50
  -8  -3  -3   74.79    5.10
   8   3  -3   77.39    5.50
   8  -3   3   76.59    5.40
  -8   3  -3   74.39    5.40
   8   3   3   77.29    5.40
   8  -3  -3   70.29    5.40
  -8  -3   3   87.09    7.10
   8   3   3   82.29    5.60
  -8  -3   3   72.69    5.80
   8   0   4  339.37   13.70
   8   0   4  352.86   13.20
  -8   0  -4  352.96   13.20
   8   0  -4  345.07   12.30
   8   0  -4  359.06   13.30
  -8   0   4  337.27   13.60
  -8   0  -4  338.17   13.10
   8   0  -4  337.47   13.00
  -8  -1  -4    4.10    1.40
   8  -1   4    7.50    1.80
  -8   1   4    7.80    2.20
   8  -1   4    3.50    1.40
   8   1  -4    3.90    1.40
   8   1  -4    5.70    1.70
  -8  -1  -4    6.10    1.60
   8  -1   4    5.30    1.60
  -8   1  -4    2.80    1.20
   8   1   4    2.50    1.20
   8  -1  -4    4.20    1.40
  -8  -1   4    4.10    1.40
   8  -1  -4    6.90    1.90
  -8  -1   4    5.60    1.80
  -8   1  -4    3.00    1.20
  -8  -1   4    1.50    0.80
   8   1   4    5.80    1.60
  -8   2   4  403.46   16.40
   8  -2   4  435.06   16.10
   8  -2   4  400.96   15.80
  -8  -2  -4  408.16   15.10
   8   2  -4  412.26   15.60
   8   2  -4  446.16   16.00
   8   2   4  391.36   15.50
   8   2   4  420.56   15.70
  -8  -2   4  411.96   15.80
   8  -2  -4  414.26   16.10
  -8  -2   4  392.36   16.30
  -8   2  -4  417.06   15.70
   8   2   4  428.86   15.40
   8   3  -4   96.79    6.40
   8  -3   4  108.89    7.20
   8   3  -4  103.89    6.80
  -8  -3  -4  106.79    6.20
  -8   3   4  100.79    7.40
   8  -3  -4  101.09    6.90
  -8   3  -4  101.79    6.50
  -8  -3   4  105.09    7.10
  -8  -3   4   98.39    7.10
   8   0  -5    1.00    0.90
   8   0   5    0.80    0.90
   8   0   5    0.00    0.80
  -8   0  -5    1.10    0.90
  -8   0   5    0.80    0.90
   8   0  -5   -0.40    0.60
  -8   0  -5    0.20    0.70
  -8   0   5    0.50    0.90
  -8   1   5   32.20    3.50
   8  -1   5   33.30    3.20
   8  -1   5   36.90    3.50
  -8  -1  -5   34.70    3.20
   8   1  -5   30.50    3.30
  -8  -1  -5   40.30    3.60
   8   1  -5   32.30    3.00
   8  -1   5   32.30    3.50
  -8  -1   5   35.30    3.80
   8   1   5   39.60    3.80
  -8   1  -5   32.90    3.20
   8   1   5   33.40    3.40
  -8  -1   5   33.10    3.40
  -8   1  -5   34.10    3.30
   8  -1  -5   30.10    3.20
   8  -1  -5   26.80    2.90
   8   2  -5   -1.00    0.70
  -8   2   5    1.80    1.40
   8   2  -5   -0.50    0.80
  -8  -2  -5    0.60    1.00
  -8  -2  -5    0.60    0.80
   8  -2   5   -0.30    0.90
   8  -2   5   -0.20    0.90
   8   2   5    0.40    1.00
  -8   2  -5   -0.60    0.70
   8  -2  -5    0.30    0.80
  -8  -2   5    0.20    1.30
   8   2   5    0.90    1.00
  -8  -2   5   -0.70    0.90
   8   0   6   57.69    4.80
   8   0   6   56.39    4.50
  -8   0   6   60.19    4.90
  -8   0  -6   59.49    4.60
  -8   0  -6   66.29    4.70
   8   0   6   66.09    5.20
   8   0  -6   66.19    4.70
   8   0  -6   67.19    4.70
  -8   0   6   58.49    4.80
  -8   1   6  547.75   20.30
  -8   1   6  538.05   20.30
  -8  -1  -6  565.44   19.20
   8  -1   6  569.84   20.50
  -8  -1  -6  560.84   19.70
   8   1  -6  559.64   19.80
   8  -1   6  547.45   20.00
   8   1   6  532.85   20.30
  -8  -1   6  571.44   20.50
  -8   1  -6  564.34   19.40
  -8  -1   6  532.35   20.10
   8   1   6  540.35   19.60
  -8   1  -6  563.44   19.50
   8  -1  -6  568.04   20.00
   8  -1  -6  526.05   18.70
  -8  -2  -6   61.29    4.80
   8  -2   6   67.29    5.40
   8   2  -6   71.49    5.30
   8  -2   6   53.79    4.70
   8   2  -6   62.89    4.70
  -8   2   6   63.19    5.40
  -8   2  -6   52.09    4.60
  -8  -2   6   53.59    5.00
  -8  -2   6   55.09    5.00
   8  -2  -6   57.89    5.00
   8   2   6   63.09    5.30
   8   2   6   55.69    4.70
  -8   0  -7   -0.30    0.80
   8   0   7   -0.40    1.10
   8   0  -7   -0.10    0.80
   8   0   7   -0.40    0.90
  -8   0   7    0.50    1.20
  -8   0  -7   -0.30    0.80
  -8   0   7    0.60    1.20
   8  -1   7   -0.40    1.00
  -8   1   7    0.40    1.10
   8   1  -7    0.40    0.90
  -8  -1  -7    1.10    0.90
  -8  -1  -7   -0.60    0.80
   8  -1   7   -0.10    1.00
  -8   1   7    0.90    1.30
  -8  -1   7    0.60    1.00
  -8  -1   7    1.00    1.10
   8   1   7    0.10    0.90
  -8   1  -7   -0.50    0.80
   8   1   7    0.80    1.00
  -8   1  -7    0.90    0.90
   8  -1  -7    1.50    1.20
  -8   0  -8  685.23   23.30
   8   0  -8  680.53   23.60
  -8   0   8  683.23   24.20
  -8   0  -8  639.84   25.20
  -8   0   8  707.33   25.00
   8   0   8  672.53   24.40
   9   0   0    0.30    0.70
   9   0   0   -0.90    0.50
  -9   0   0   -0.30    0.70
  -9   0   0    0.40    0.60
   9   1   0    0.30    0.80
  -9  -1   0   -0.10    0.60
   9  -1   0    0.50    0.70
   9   1   0    0.40    0.70
   9  -1   0   -0.30    0.80
  -9   1   0    0.10    0.60
  -9   1   0    0.60    0.90
  -9  -1   0    0.40    0.70
  -9  -2   0    0.00    0.70
  -9  -2   0   -0.30    0.70
  -9   2   0    1.10    1.00
   9   2   0   -0.10    0.80
   9  -2   0    0.90    1.10
  -9   2   0    0.80    0.80
   9   2   0   -0.30    0.80
  -9   3   0    0.00    1.20
  -9  -3   0    0.20    0.90
   9   3   0   -0.10    0.90
   9  -3   0   -0.10    1.00
   9   3   0    0.20    1.00
  -9   0  -1   12.40    2.20
   9   0  -1   12.50    2.50
  -9   0   1   13.30    2.60
   9   0   1   12.20    2.40
  -9   0   1   13.20    1.90
   9   0  -1    9.40    2.00
   9   0   1   15.20    2.10
  -9   0  -1   12.70    2.00
  -9  -1  -1    4.90    1.50
   9   1  -1    4.10    1.40
   9   1  -1    5.10    1.60
  -9   1   1    4.60    1.60
  -9  -1  -1    6.40    1.90
   9   1  -1    9.80    2.10
   9  -1   1    4.50    1.60
   9  -1   1    5.80    1.60
  -9   1   1    3.50    1.10
   9  -1  -1    5.80    1.80
   9   1   1    6.00    1.80
   9   1   1    5.40    1.60
  -9   1  -1    6.50    1.70
   9  -1  -1    5.80    1.60
  -9  -1   1    2.50    1.10
  -9   1  -1    7.00    1.90
  -9  -1   1    6.00    1.90
   9   2  -1    0.10    0.80
  -9  -2  -1    1.50    1.10
  -9   2   1    1.70    1.20
   9  -2   1   -0.30    0.80
   9   2  -1    1.60    1.10
  -9  -2  -1    0.40    0.80
  -9   2  -1    1.20    1.00
  -9  -2   1    1.00    0.70
  -9  -2   1    1.00    1.00
   9   2   1   -0.10    0.70
   9   2   1    0.30    0.80
  -9   2  -1    0.20    0.80
   9  -2  -1    1.40    1.20
   9   3  -1    6.90    2.00
   9   3  -1   15.10    3.50
   9  -3   1    7.20    2.20
  -9  -3  -1    6.90    2.20
  -9   3   1   12.60    3.00
   9   3   1    7.90    2.20
   9   3   1   11.00    2.60
   9  -3  -1    9.00    2.40
  -9   3  -1   12.10    2.90
  -9  -3   1   10.10    2.70
   9   0  -2   -0.40    0.60
  -9   0   2   -0.20    0.80
  -9   0   2    0.90    0.80
   9   0   2   -0.30    0.60
  -9   0  -2    0.30    0.70
   9   0   2    0.80    0.90
  -9   0  -2   -0.50    0.50
   9   0  -2   -0.20    0.70
  -9  -1  -2   27.00    2.90
   9   1  -2   22.50    2.70
  -9  -1  -2   27.50    3.00
  -9   1   2   25.30    2.50
  -9   1   2   26.40    3.20
   9  -1   2   32.60    3.50
   9   1  -2   31.20    3.00
   9  -1   2   30.40    3.00
   9   1   2   28.90    3.10
  -9  -1   2   32.40    3.50
   9  -1  -2   28.90    2.80
  -9   1  -2   24.40    2.90
  -9  -1   2   28.90    2.90
   9  -1  -2   34.70    3.40
   9   1   2   25.60    2.90
  -9   1  -2   25.40    2.80
   9  -2   2   33.50    3.70
  -9  -2  -2   42.50    3.80
   9   2  -2   33.80    3.50
  -9  -2  -2   35.60    3.40
  -9   2   2   40.50    4.10
   9   2  -2   41.70    3.80
  -9  -2   2   37.60    4.00
   9  -2  -2   48.10    4.40
   9   2   2   46.00    4.00
  -9  -2   2   46.40    3.80
  -9   2  -2   38.00    3.60
   9   2   2   38.70    3.80
  -9   2  -2   38.80    3.70
   9   0  -3   59.59    4.40
  -9   0   3   46.30    4.30
   9   0   3   54.79    4.20
  -9   0   3   59.79    4.00
   9   0  -3   58.89    4.30
  -9   0  -3   58.29    4.30
   9   0   3   61.39    4.70
  -9   0  -3   49.80    4.00
   9   0  -3   55.89    3.90
   9   1  -3   44.80    3.90
   9  -1   3   50.79    3.90
   9  -1   3   47.70    4.20
   9   1  -3   50.09    3.90
  -9  -1  -3   49.30    4.00
  -9   1   3   41.80    4.10
  -9  -1   3   45.70    3.70
  -9   1  -3   48.30    4.00
   9  -1  -3   52.99    4.50
   9   1   3   43.10    4.00
  -9   1  -3   52.99    4.00
   9   1   3   49.00    4.10
  -9  -1   3   46.60    4.40
   9  -1  -3   52.99    3.80
  -9   2   3    9.20    2.50
   9   2  -3    7.70    2.00
  -9  -2  -3    9.50    2.20
   9   2  -3    9.10    2.20
   9  -2   3   10.90    2.50
  -9  -2   3    8.30    2.30
   9   2   3   10.20    2.30
   9   2   3   10.50    2.30
  -9   2  -3   11.00    2.30
   9  -2  -3    8.10    2.30
   9   0  -4    0.00    0.60
   9   0  -4    0.00    1.10
  -9   0   4   -0.90    0.70
   9   0  -4    1.20    1.00
   9   0   4    0.20    0.80
  -9   0  -4    0.30    0.80
  -9   0  -4   -0.20    0.70
   9   0   4    0.60    0.90
   9  -1   4   -0.70    0.80
  -9   1   4   -0.30    0.90
   9   1  -4    0.70    0.90
   9  -1   4    0.80    1.00
   9   1  -4   -0.20    0.80
  -9  -1  -4    1.80    1.10
  -9  -1  -4   -0.40    0.80
   9   1   4    0.80    0.90
  -9  -1   4   -0.10    1.00
   9  -1  -4    1.00    0.90
  -9  -1   4    0.20    0.70
   9  -1  -4    0.30    1.00
  -9   1  -4   -0.20    0.70
  -9   1  -4    1.70    1.20
   9   1   4    0.90    1.00
  -9  -2  -4   -0.30    0.90
  -9   2   4    0.20    1.10
   9   2  -4    0.10    0.80
   9  -2   4    0.60    1.00
   9   2  -4    0.70    1.10
   9   2   4    1.10    1.00
   9   2   4    0.00    0.90
  -9   2  -4    1.90    1.10
  -9  -2   4    1.90    1.50
   9  -2  -4    0.80    1.10
   9   2   4   -0.20    0.80
  -9   0  -5   51.09    4.30
   9   0   5   49.99    4.60
  -9   0  -5   56.19    4.30
   9   0   5   48.80    4.20
   9   0  -5   59.39    4.60
   9   0  -5   44.00    4.00
  -9   0   5   48.10    4.50
   9   1  -5   25.40    2.80
   9  -1   5   24.90    3.30
  -9  -1  -5   28.80    3.30
   9   1  -5   32.90    3.60
  -9   1   5   29.70    3.60
   9  -1   5   25.10    2.90
  -9  -1  -5   20.90    2.80
   9   1   5   22.80    3.00
  -9   1  -5   30.80    3.20
   9  -1  -5   22.80    3.00
  -9   1  -5   18.70    2.70
   9   1   5   28.20    3.40
  -9  -1   5   21.30    3.30
   9   2  -5    1.80    1.30
  -9   2   5    4.80    2.20
  -9  -2  -5    1.30    1.20
   9  -2   5   -0.60    1.00
   9   2  -5    2.90    1.40
   9  -2   5    2.90    1.70
  -9  -2   5    4.40    2.00
   9   2   5    2.60    1.50
   9   2   5    4.30    1.80
   9  -2  -5    1.80    1.50
   9   2   5    1.80    1.40
  -9   2  -5    1.20    1.10
   9   0  -6   -0.40    0.90
   9   0   6   -0.40    1.00
   9   0   6    0.40    1.10
  -9   0   6    0.30    1.00
  -9   0  -6   -0.30    0.80
  -9   0  -6    0.40    1.20
   9   1  -6   13.50    2.90
  -9  -1  -6   16.50    3.00
   9  -1   6   20.80    3.10
  -9  -1  -6   14.40    2.70
   9  -1   6   15.10    2.80
  -9   1   6   19.60    3.70
  -9   1  -6   16.50    2.90
   9   1   6   16.60    3.00
   9  -1  -6   19.60    3.00
   9   1   6   14.30    3.00
  -9   1  -6   17.80    2.60
  -9  -1   6   18.30    3.00
   9   0  -7    6.00    2.00
  -9   0  -7    3.50    1.50
  -9   0   7    2.90    1.80
  -9   0  -7    4.60    1.90
 -10   0   0   19.90    2.50
 -10   0   0   18.40    2.60
  10   0   0   26.00    2.90
  10   0   0   16.80    2.60
  10   1   0  319.57   13.10
 -10  -1   0  322.57   13.70
 -10   1   0  332.47   12.90
  10  -1   0  311.37   13.60
  10   1   0  357.36   13.60
  10  -1   0  315.87   12.40
 -10  -1   0  334.57   13.20
 -10   1   0  319.57   13.60
  10  -2   0   -0.70    0.90
 -10  -2   0    0.30    0.90
  10   2   0    0.00    1.00
  10   2   0    0.20    1.00
 -10   2   0    0.20    1.00
 -10   2   0    0.00    1.00
 -10  -2   0    1.20    0.90
 -10   0   1   -0.50    0.60
  10   0  -1   -0.10    0.70
 -10   0   1   -0.20    0.80
  10   0   1    0.50    0.90
 -10   0  -1   -0.40    0.70
 -10   0  -1   -0.10    0.60
  10   0  -1   -0.50    0.60
  10   0   1    0.00    0.90
 -10   1   1   25.20    2.80
 -10  -1  -1   21.50    2.80
  10   1  -1   21.40    2.80
  10  -1   1   27.20    2.90
  10   1  -1   24.80    3.00
  10  -1   1   25.20    3.20
 -10   1   1   25.90    3.30
 -10  -1  -1   18.80    2.90
  10  -1  -1   25.60    2.80
  10   1   1   24.20    3.00
 -10   1  -1   26.80    3.20
 -10  -1   1   29.30    3.00
 -10   1  -1   22.50    2.80
  10  -1  -1   30.70    3.40
  10   1   1   26.70    3.10
 -10  -1   1   30.20    3.50
 -10  -2  -1    0.40    1.10
  10  -2   1    0.30    1.00
 -10   2   1    1.70    1.20
 -10  -2  -1    0.30    0.80
  10   2  -1    0.20    0.90
  10   2  -1    1.50    1.10
 -10  -2   1    0.00    1.10
 -10   2  -1    0.40    1.20
 -10  -2   1    1.40    1.00
 -10   2  -1   -0.30    0.70
  10   2   1    1.20    1.20
  10  -2  -1    0.40    0.90
  10   2   1   -0.10    0.80
  10   0   2  154.48    7.90
  10   0   2  154.88    8.30
 -10   0   2  153.08    7.60
  10   0  -2  139.79    7.50
 -10   0  -2  141.69    7.60
 -10   0   2  154.88    8.50
 -10   0  -2  147.79    7.70
  10   0  -2  149.88    8.00
 -10  -1  -2    7.10    1.90
 -10   1   2    8.90    2.40
  10   1  -2    6.60    1.80
  10  -1   2    7.90    1.90
 -10  -1  -2    3.90    1.40
  10  -1   2    5.80    1.90
  10   1  -2    4.70    1.60
 -10   1  -2    4.50    1.60
  10  -1  -2    5.10    1.80
 -10  -1   2    4.80    1.80
  10  -1  -2    6.00    1.70
  10   1   2    5.10    1.60
  10   1   2   10.00    2.20
 -10  -1   2    4.90    1.50
 -10   2   2   97.29    6.90
 -10  -2  -2   90.69    6.10
  10   2  -2   85.69    5.90
 -10  -2  -2   89.09    5.90
  10  -2   2   95.29    6.60
  10   2   2   85.49    6.00
  10   2   2   87.89    6.10
 -10  -2   2   88.39    6.60
 -10  -2   2   83.69    5.80
 -10   2  -2   93.39    6.10
  10  -2  -2   94.19    6.70
 -10   0   3   -0.60    0.80
  10   0  -3   -0.40    0.70
  10   0  -3   -0.50    0.80
  10   0  -3    1.30    1.00
 -10   0   3    0.00    0.70
  10   0   3   -0.30    0.80
  10   0   3    0.80    1.00
 -10   0  -3    0.40    0.90
  10  -1   3   -0.40    0.80
 -10   1   3    0.10    1.10
  10   1  -3    0.50    1.10
 -10  -1  -3    3.20    1.40
  10  -1   3    1.40    1.20
  10   1  -3    1.20    0.90
  10  -1  -3   -0.70    1.10
  10  -1  -3    0.70    1.50
 -10  -1   3    0.80    1.20
 -10   1  -3    3.00    1.40
  10   1   3    1.50    1.10
 -10  -1   3    1.80    1.10
  10   1   3    0.20    1.00
  10  -2   3   50.89    4.90
  10   2  -3   54.79    5.30
 -10   2   3   45.10    5.50
  10   2  -3   53.59    4.50
 -10  -2  -3   54.29    4.50
 -10   2  -3   48.40    4.40
  10   2   3   51.09    4.50
  10  -2  -3   49.90    5.50
  10   2   3   48.40    4.50
 -10  -2   3   51.69    6.40
  10   0   4   99.39    6.20
  10   0  -4   85.09    5.90
  10   0   4   93.59    6.50
 -10   0   4   91.19    6.50
 -10   0  -4   90.69    5.90
 -10   0  -4   90.39    6.10
  10  -1   4   39.20    3.70
  10   1  -4   39.90    4.00
  10   1  -4   33.60    3.40
 -10  -1  -4   29.10    3.30
 -10   1   4   30.60    3.90
  10  -1   4   35.00    3.90
  10   1   4   28.90    3.60
  10  -1  -4   27.20    3.50
 -10   1  -4   30.30    3.40
  10   1   4   40.10    4.00
 -10  -1   4   32.50    4.00
 -10  -1   4   33.70    3.30
 -10   1  -4   29.00    3.30
 -10   0  -5    0.00    0.80
  10   0  -5    1.10    1.20
  10   0   5    0.40    1.20
 -10   0   5    0.50    1.20
  10   0   5    0.40    1.20
 -10   0  -5    0.80    1.00
 -10  -1  -5    1.60    1.20
  10  -1   5    0.10    0.90
 -10   1   5    2.20    1.80
  10  -1   5    0.30    1.20
  10  -1  -5    0.60    1.10
 -10  -1   5    1.10    1.30
  10   1   5   -0.90    0.90
 -10   1  -5    1.90    1.30
 -11   0   0    1.10    1.10
  11   0   0    0.70    1.10
 -11   0   0   -0.90    0.80
  11   0   0   -0.10    0.80
 -11  -1   0    0.30    1.10
  11   1   0   -0.80    0.80
 -11   1   0    0.60    1.00
  11   1   0   -0.20    0.80
  11  -1   0   -0.10    1.00
 -11   1   0   -0.40    1.10
  11  -1   0   -0.80    0.80
 -11  -1   0   -0.20    0.80
  11   0   1  148.69    7.90
 -11   0   1  129.49    7.30
  11   0  -1  130.99    7.40
  11   0  -1  140.79    7.90
  11   0   1  139.09    8.00
 -11   0  -1  137.59    7.90
 -11   0   1  141.39    8.30
 -11   0  -1  127.69    7.50
 -11   1   1  104.99    7.20
  11  -1   1   88.19    6.60
 -11  -1  -1   95.59    6.50
  11   1  -1  101.99    6.50
 -11   1   1  116.49    6.50
  11  -1   1   97.59    6.10
  11   1  -1  102.39    6.50
 -11  -1  -1   95.59    6.40
  11   1   1   94.69    6.50
 -11   1  -1  118.19    7.10
  11   1   1  102.39    6.60
 -11  -1   1   92.19    6.80
  11  -1  -1  100.99    6.90
 -11  -1   1   94.49    6.10
  11   0   2   -0.50    1.10
  11   0   2    0.60    1.20
  11   0  -2   -0.20    0.90
  11   0  -2   -0.30    1.00
 -11   0   2   -0.40    0.80
 -11   0   2    0.30    1.30
 -11   0  -2    1.30    1.10
 -11  -1  -2    9.60    2.40
  11   1  -2    7.10    2.10
  11  -1   2   14.00    2.80
  11  -1   2   12.70    2.90
  11   1  -2    8.80    2.10
 -11   1   2   13.30    3.10
 -11  -1   2   13.60    2.60
  11   1   2   10.60    2.60
 -11  -1   2   13.60    3.00
 -11   1  -2   14.10    2.80
  11  -1  -2   15.80    3.20
  11   0   3    2.30    1.40
  11   0   3    4.50    1.70
 -11   0   3   -0.10    1.10
 -11   0  -3    1.70    1.30
  11   0  -3    6.60    2.20
  11   0  -3    4.60    1.50
  11   0  -3    5.20    1.80

_computing_structure_solution     'SHELXT 2014/4 (Sheldrick, 2014)'
;
_shelx_hkl_checksum              37726
_olex2_diffrn_ambient_temperature_device 'Oxford Cryosystems'
_olex2_exptl_crystal_mounting_method
'The crystal was mounted on a nylon loop with paratone oil'
_olex2_submission_original_sample_id 'JS  Gang Zhao NH5 N3'
_olex2_submission_special_instructions 'No special instructions were received'
loop_
_space_group_symop_operation_xyz
'x, y, z'
'-x+1/2, -y, z+1/2'
'-x+1/2, y, -z+1/2'
'x, -y, -z'
'-x, -y, -z'
'x-1/2, y, -z-1/2'
'x-1/2, -y, z-1/2'
'-x, y, z'
loop_
_atom_site_label
_atom_site_type_symbol
_atom_site_fract_x
_atom_site_fract_y
_atom_site_fract_z
_atom_site_U_iso_or_equiv
_atom_site_adp_type
_atom_site_occupancy
_atom_site_site_symmetry_order
_atom_site_calc_flag
_atom_site_refinement_flags_posn
_atom_site_refinement_flags_adp
_atom_site_refinement_flags_occupancy
N1 N 0.750000 0.4555(3) 0.250000 0.0203(3) Uani 1 2 d S T P
H1A H 0.7161(10) 0.330(3) 0.3248(11) 0.033(2) Uiso 1 1 d . . .
H1B H 0.6754(11) 0.594(3) 0.2153(10) 0.035(3) Uiso 1 1 d . . .
N2 N 0.63183(10) 0.000000 0.500000 0.0269(3) Uani 1 2 d S T P
N3 N 0.500000 0.000000 0.500000 0.0191(3) Uani 1 4 d S T P
N4 N 0.500000 0.1098(3) 0.87246(10) 0.0257(3) Uani 1 2 d S T P
N5 N 0.500000 0.000000 1.000000 0.0190(3) Uani 1 4 d S T P
loop_
_atom_site_aniso_label
_atom_site_aniso_U_11
_atom_site_aniso_U_22
_atom_site_aniso_U_33
_atom_site_aniso_U_23
_atom_site_aniso_U_13
_atom_site_aniso_U_12
N1 0.0200(5) 0.0219(5) 0.0191(5) 0.000 0.0019(3) 0.000
N2 0.0225(5) 0.0353(6) 0.0228(5) 0.0059(3) 0.000 0.000
N3 0.0249(7) 0.0182(7) 0.0142(6) 0.0024(4) 0.000 0.000
N4 0.0224(5) 0.0315(6) 0.0233(5) 0.0058(4) 0.000 0.000
N5 0.0135(6) 0.0201(6) 0.0233(6) -0.0001(4) 0.000 0.000
loop_
_atom_type_symbol
_atom_type_description
_atom_type_scat_dispersion_real
_atom_type_scat_dispersion_imag
_atom_type_scat_source
H H 0.0000 0.0000 'International Tables Vol C Tables 4.2.6.8 and 6.1.1.4'
N N 0.0061 0.0033 'International Tables Vol C Tables 4.2.6.8 and 6.1.1.4'
loop_
_geom_angle_atom_site_label_1
_geom_angle_atom_site_label_2
_geom_angle_atom_site_label_3
_geom_angle
_geom_angle_site_symmetry_1
_geom_angle_site_symmetry_3
H1A N1 H1A 112.8(14) . 3_655
H1A N1 H1B 109.3(9) . 3_655
H1A N1 H1B 108.2(9) . .
H1A N1 H1B 108.2(9) 3_655 3_655
H1B N1 H1A 109.3(9) . 3_655
H1B N1 H1B 108.9(13) . 3_655
N2 N3 N2 180.0 . 5_656
N4 N5 N4 180.0 . 5_657
loop_
_geom_bond_atom_site_label_1
_geom_bond_atom_site_label_2
_geom_bond_distance
_geom_bond_site_symmetry_2
N1 H1A 0.857(10) .
N1 H1A 0.857(10) 3_655
N1 H1B 0.899(10) 3_655
N1 H1B 0.899(10) .
N2 N3 1.1777(9) .
N4 N5 1.1790(8) .
loop_
_geom_hbond_atom_site_label_D
_geom_hbond_atom_site_label_H
_geom_hbond_atom_site_label_A
_geom_hbond_distance_DH
_geom_hbond_distance_HA
_geom_hbond_distance_DA
_geom_hbond_angle_DHA
_geom_hbond_site_symmetry_A
_geom_hbond_publ_flag
N1 H1A N2 0.857(10) 2.103(10) 2.9598(7) 177.0(9) . yes
N1 H1B N4 0.899(10) 2.071(10) 2.9690(8) 177.0(9) 4_566 yes
