#------------------------------------------------------------------------------
#$Date: 2019-10-27 22:50:42 +0200 (Sun, 27 Oct 2019) $
#$Revision: 219527 $
#$URL: file:///home/coder/svn-repositories/cod/cif/4/51/44/4514423.cif $
#------------------------------------------------------------------------------
#
# This file is available in the Crystallography Open Database (COD),
# http://www.crystallography.net/
#
# All data on this site have been placed in the public domain by the
# contributors.
#
data_4514423
loop_
_publ_author_name
'Zhao, Gang'
'Kumar, Dheeraj'
'Hu, Lu'
'Shreeve, Jean&#x2019;ne M.'
_publ_section_title
;
 A Safe and Scaled-Up Route to Inert Ammonia Oxide Hydroxylammonium Azide
 (H7N5O2), Hydrazinium Azide (H5N5), and Ammonium Azide (H4N4)
;
_journal_issue                   9
_journal_name_full               'ACS Applied Energy Materials'
_journal_page_first              6919
_journal_paper_doi               10.1021/acsaem.9b01447
_journal_volume                  2
_journal_year                    2019
_chemical_formula_moiety         'H5 N2, N3'
_chemical_formula_sum            'H5 N5'
_chemical_formula_weight         75.09
_space_group_crystal_system      monoclinic
_space_group_IT_number           14
_space_group_name_Hall           '-P 2yn'
_space_group_name_H-M_alt        'P 1 21/n 1'
_symmetry_space_group_name_Hall  '-P 2yn'
_symmetry_space_group_name_H-M   'P 1 21/n 1'
_atom_sites_solution_hydrogens   difmap
_atom_sites_solution_primary     direct
_audit_creation_date             2019-01-28
_audit_creation_method
;
Olex2 1.2
(compiled 2018.05.29 svn.r3508 for OlexSys, GUI svn.r5506)
;
_cell_angle_alpha                90
_cell_angle_beta                 93.261(4)
_cell_angle_gamma                90
_cell_formula_units_Z            4
_cell_length_a                   5.641(2)
_cell_length_b                   5.521(2)
_cell_length_c                   11.306(4)
_cell_measurement_reflns_used    1688
_cell_measurement_temperature    243(2)
_cell_measurement_theta_max      25.03
_cell_measurement_theta_min      3.61
_cell_volume                     351.5(2)
_computing_cell_refinement       'SAINT v8.34A (Bruker, 2013)'
_computing_data_collection       'COSMO (BRUKER, V1.61, 2009)'
_computing_data_reduction        'SAINT v8.34A (Bruker, 2013)'
_computing_molecular_graphics
;
O. V. Dolomanov, L. J. Bourhis, R. J. Gildea, J. A. K. Howard and H. Puschmann,
OLEX2: a complete structure solution, refinement and analysis program.
J. Appl. Cryst. (2009). 42, 339-341.
;
_computing_publication_material
;
O. V. Dolomanov, L. J. Bourhis, R. J. Gildea, J. A. K. Howard and H. Puschmann,
OLEX2: a complete structure solution, refinement and analysis program.
J. Appl. Cryst. (2009). 42, 339-341.
;
_computing_structure_refinement
'SHELXL (Sheldrick, Acta Cryst. A64 2008, 112-122)'
_computing_structure_solution
'SHELXT (Sheldrick, G.M. (2015). Acta Cryst. A71, 3-8)'
_diffrn_ambient_temperature      243(2)
_diffrn_detector_area_resol_mean 8.36
_diffrn_measured_fraction_theta_full 1.000
_diffrn_measured_fraction_theta_max 1.000
_diffrn_measurement_device_type  'Bruker APEX-II CCD'
_diffrn_measurement_method       \w
_diffrn_radiation_monochromator  graphite
_diffrn_radiation_type           MoK\a
_diffrn_radiation_wavelength     0.71073
_diffrn_reflns_av_R_equivalents  0.0567
_diffrn_reflns_av_unetI/netI     0.0310
_diffrn_reflns_Laue_measured_fraction_full 1.000
_diffrn_reflns_Laue_measured_fraction_max 1.000
_diffrn_reflns_limit_h_max       7
_diffrn_reflns_limit_h_min       -7
_diffrn_reflns_limit_k_max       7
_diffrn_reflns_limit_k_min       -7
_diffrn_reflns_limit_l_max       14
_diffrn_reflns_limit_l_min       -14
_diffrn_reflns_number            6369
_diffrn_reflns_point_group_measured_fraction_full 1.000
_diffrn_reflns_point_group_measured_fraction_max 1.000
_diffrn_reflns_theta_full        25.242
_diffrn_reflns_theta_max         27.526
_diffrn_reflns_theta_min         3.610
_diffrn_source                   'sealed tube'
_diffrn_standards_number         0
_exptl_absorpt_coefficient_mu    0.115
_exptl_absorpt_correction_T_max  0.7456
_exptl_absorpt_correction_T_min  0.6625
_exptl_absorpt_correction_type   multi-scan
_exptl_absorpt_process_details
'SADABS-2014/5 (Bruker,2014/5) was used for absorption correction. wR2(int) was 0.0844 before and 0.0620 after correction. The Ratio of minimum to maximum transmission is 0.8885. The \l/2 correction factor is 0.00150.'
_exptl_crystal_colour            colourless
_exptl_crystal_colour_primary    colourless
_exptl_crystal_density_diffrn    1.419
_exptl_crystal_description       chunk
_exptl_crystal_F_000             160
_exptl_crystal_recrystallization_method 'used as received'
_exptl_crystal_size_max          0.198
_exptl_crystal_size_mid          0.18
_exptl_crystal_size_min          0.071
_refine_diff_density_max         0.181
_refine_diff_density_min         -0.173
_refine_diff_density_rms         0.046
_refine_ls_extinction_coef       0.102(19)
_refine_ls_extinction_expression Fc^*^=kFc[1+0.001xFc^2^\l^3^/sin(2\q)]^-1/4^
_refine_ls_extinction_method     'SHELXL-2018/3 (Sheldrick 2018)'
_refine_ls_goodness_of_fit_ref   1.041
_refine_ls_hydrogen_treatment    refall
_refine_ls_matrix_type           full
_refine_ls_number_parameters     67
_refine_ls_number_reflns         814
_refine_ls_number_restraints     0
_refine_ls_restrained_S_all      1.041
_refine_ls_R_factor_all          0.0636
_refine_ls_R_factor_gt           0.0454
_refine_ls_shift/su_max          0.000
_refine_ls_shift/su_mean         0.000
_refine_ls_structure_factor_coef Fsqd
_refine_ls_weighting_details
'w=1/[\s^2^(Fo^2^)+(0.0600P)^2^+0.1043P] where P=(Fo^2^+2Fc^2^)/3'
_refine_ls_weighting_scheme      calc
_refine_ls_wR_factor_gt          0.1145
_refine_ls_wR_factor_ref         0.1280
_reflns_Friedel_coverage         0.000
_reflns_number_gt                604
_reflns_number_total             814
_reflns_threshold_expression     'I > 2\s(I)'
_cod_data_source_file            ae9b01447_si_003.cif
_cod_data_source_block           js119d
_cod_database_code               4514423
_shelx_shelxl_version_number     2018/3
_shelx_space_group_comment
;
The symmetry employed for this shelxl refinement is uniquely defined
by the following loop, which should always be used as a source of
symmetry information in preference to the above space-group names.
They are only intended as comments.
;
_shelx_estimated_absorpt_t_max   0.992
_shelx_estimated_absorpt_t_min   0.978
_olex2_refinement_description
;
;
_shelx_res_file
;
TITL JS119D in P21/n #14
    js119d.res
    created by SHELXL-2018/3 at 14:07:58 on 28-Jan-2019
REM reset to P21/n #14
CELL 0.71073 5.6408 5.5213 11.3055 90 93.261 90
ZERR 4 0.0021 0.002 0.0041 0 0.0041 0
LATT 1
SYMM 0.5-X,0.5+Y,0.5-Z
SFAC H N
UNIT 20 20

L.S. 15
PLAN  2
SIZE 0.071 0.18 0.198
TEMP -30
BOND
fmap 2
ACTA
REM <olex2.extras>
REM <HklSrc "%.\\JS119D.hkl">
REM </olex2.extras>

WGHT    0.060000    0.104300
EXTI    0.101703
FVAR       0.54027
N1    2    0.861700   -0.074828    0.652604    11.00000    0.03452    0.02841 =
         0.03499   -0.00040    0.00298   -0.00197
H1A   1    0.861425   -0.166778    0.584324    11.00000    0.05301
H1B   1    1.005629    0.026536    0.658449    11.00000    0.04679
H1C   1    0.856002   -0.180330    0.715431    11.00000    0.05736
N2    2    0.665305    0.094113    0.649604    11.00000    0.03422    0.03239 =
         0.03702   -0.00099    0.00009    0.00146
H2A   1    0.529722   -0.006714    0.638422    11.00000    0.05347
H2B   1    0.668851    0.182144    0.579363    11.00000    0.05839
N3    2    0.830179   -0.288685    0.424523    11.00000    0.04834    0.03342 =
         0.04194    0.00049    0.00176   -0.00950
N4    2    0.744493   -0.477603    0.401365    11.00000    0.03076    0.03416 =
         0.03295    0.00250    0.00079    0.00055
N5    2    0.659681   -0.664956    0.378155    11.00000    0.05678    0.03685 =
         0.07054   -0.00643   -0.00838   -0.01154
HKLF 4




REM  JS119D in P21/n #14
REM wR2 = 0.1280, GooF = S = 1.041, Restrained GooF = 1.041 for all data
REM R1 = 0.0454 for 604 Fo > 4sig(Fo) and 0.0636 for all 814 data
REM 67 parameters refined using 0 restraints

END

WGHT      0.0600      0.1043

REM Highest difference peak  0.181,  deepest hole -0.173,  1-sigma level  0.046
Q1    1   0.9040 -0.1527  0.4474  11.00000  0.05    0.18
Q2    1   0.7265  0.2946  0.6744  11.00000  0.05    0.15
;
_shelx_res_checksum              54575
_shelx_hkl_file
;
   1   0   0   -0.36    0.14
   1   0   0   -0.74    0.16
   1   0   0   -0.77    0.15
  -1   0   0   -0.73    0.14
  -1   0   0   -0.82    0.14
   2   0   0  532.79   15.83
   2   0   0  531.90   15.37
  -2   0   0  486.70   15.64
  -2   0   0  494.77   15.03
  -2   0   0  512.22   15.76
   2   0   0  528.10   15.70
   3   0   0   -0.04    0.22
  -3   0   0    0.03    0.24
  -3   0   0   -0.34    0.18
  -3   0   0   -0.10    0.07
   3   0   0   -0.20    0.13
   3   0   0    0.16    0.30
   4   0   0   32.52    1.72
  -4   0   0   34.17    2.17
   4   0   0   26.37    2.03
  -4   0   0   32.09    2.05
   4   0   0   30.60    2.19
   5   0   0    0.20    0.37
  -5   0   0    0.07    0.35
   5   0   0    0.02    0.35
  -5   0   0   -0.27    0.33
  -6   0   0    9.32    1.42
  -6   0   0   12.46    1.59
   6   0   0   13.99    1.80
   6   0   0   10.89    1.48
  -7   0   0    0.48    0.61
  -7   0   0   -0.39    0.42
  -7   0   0    0.29    0.73
   7   0   0    0.12    0.54
   7   0   0    0.11    0.54
   0  -1   0   -0.14    0.16
   0  -1   0   -0.12    0.14
   0  -1   0   -0.02    0.09
   0  -1   0    0.08    0.18
   0   1   0    0.05    0.18
   0   1   0    0.07    0.16
   0   1   0   -0.03    0.10
   1  -1   0   21.04    1.11
   1  -1   0   19.19    1.06
  -1  -1   0   19.20    0.92
  -1  -1   0   19.41    1.06
   1  -1   0   19.38    0.88
  -1  -1   0   18.87    1.00
   1   1   0   17.61    0.97
   1   1   0   19.47    0.80
   1   1   0   16.51    1.00
  -1   1   0   18.10    0.88
  -1   1   0   18.94    0.99
  -1   1   0   19.01    0.85
  -2  -1   0  568.98   16.07
   2  -1   0  539.72   16.84
   2  -1   0  542.23   16.46
  -2  -1   0  540.58   16.62
   2  -1   0  548.67   16.81
  -2  -1   0  523.52   16.66
   2  -1   0  530.69   16.14
  -2   1   0  532.15   16.63
   2   1   0  546.31   16.40
  -2   1   0  535.62   16.03
   2   1   0  563.45   16.46
  -2   1   0  509.87   16.45
   2   1   0  548.46   16.58
   3  -1   0    2.49    0.57
  -3  -1   0    2.28    0.31
   3  -1   0    2.00    0.65
   3  -1   0    2.44    0.45
  -3  -1   0    2.38    0.59
  -3  -1   0    1.66    0.53
  -3   1   0    2.62    0.61
   3   1   0    2.48    0.64
  -3   1   0    3.21    0.71
   3   1   0    1.80    0.55
   3   1   0    1.65    0.49
  -3   1   0    2.04    0.34
  -4  -1   0   65.33    3.39
   4  -1   0   71.06    3.35
  -4  -1   0   66.08    3.38
   4  -1   0   63.59    3.61
   4   1   0   63.03    3.34
  -4   1   0   66.89    3.26
  -4   1   0   70.27    3.47
   4   1   0   66.81    3.36
  -5  -1   0    2.11    0.79
   5  -1   0    2.01    0.83
   5  -1   0    0.67    0.50
  -5  -1   0    1.00    0.59
   5   1   0    1.40    0.66
  -5   1   0    0.52    0.46
  -5   1   0    3.14    0.99
   5   1   0    1.12    0.62
  -6  -1   0    0.73    0.58
   6  -1   0    0.95    0.74
   6  -1   0    0.11    0.48
  -6  -1   0    1.26    0.64
  -6  -1   0    1.62    0.80
   6   1   0    0.24    0.43
  -6   1   0    1.36    0.68
   6   1   0    0.69    0.57
  -6   1   0    0.81    0.60
  -7  -1   0    0.15    0.55
   7  -1   0   -0.27    0.44
  -7  -1   0   -0.07    0.62
  -7  -1   0    0.12    0.69
   7  -1   0    0.02    0.70
  -7   1   0   -0.06    0.56
   7   1   0   -0.57    0.42
  -7   1   0   -0.73    0.34
   0  -2   0   26.31    1.47
   0  -2   0   24.55    1.39
   0  -2   0   24.76    1.06
   0  -2   0   27.50    1.42
   0   2   0   23.37    1.33
   0   2   0   24.11    1.12
   0   2   0   25.07    1.34
  -1  -2   0   -0.11    0.24
   1  -2   0    0.34    0.21
   1  -2   0    0.16    0.31
  -1  -2   0    0.60    0.29
   1  -2   0    0.15    0.22
  -1  -2   0    0.15    0.22
   1   2   0    0.12    0.21
   1   2   0    0.12    0.24
  -1   2   0    0.24    0.22
  -1   2   0    0.33    0.26
  -1   2   0    0.01    0.13
   1   2   0    0.14    0.20
  -2  -2   0    4.39    0.54
   2  -2   0    1.98    0.57
  -2  -2   0    3.59    0.73
   2  -2   0    3.96    0.75
   2  -2   0    2.73    0.50
  -2  -2   0    3.17    0.64
  -2  -2   0    3.70    0.37
  -2   2   0    3.04    0.43
   2   2   0    2.42    0.34
  -2   2   0    3.31    0.63
  -2   2   0    2.57    0.49
   2   2   0    1.94    0.54
   2   2   0    3.53    0.64
  -3  -2   0   18.41    1.12
   3  -2   0   15.79    1.50
  -3  -2   0   16.70    1.07
   3  -2   0   16.82    1.05
  -3  -2   0   16.28    1.38
   3  -2   0   13.56    1.19
   3  -2   0   12.84    1.39
  -3  -2   0   18.03    1.50
   3   2   0   15.13    1.30
  -3   2   0   17.26    1.34
  -3   2   0   17.45    1.03
  -3   2   0   15.87    1.37
   3   2   0   17.86    1.06
   3   2   0   17.93    1.18
  -3   2   0   18.20    1.08
   3   2   0   14.92    1.33
  -4  -2   0    6.60    0.80
   4  -2   0    9.04    1.08
   4  -2   0    7.54    1.45
  -4  -2   0    9.36    1.18
  -4  -2   0    6.94    1.08
   4   2   0    9.71    1.05
   4   2   0   10.28    1.23
   4   2   0    9.41    1.07
  -4   2   0    9.87    1.12
  -4   2   0   10.59    1.22
   5  -2   0    1.15    0.56
  -5  -2   0    1.57    0.65
   5  -2   0    1.81    0.83
  -5  -2   0    1.28    0.61
  -5   2   0    1.48    0.71
   5   2   0    1.36    0.55
  -5   2   0    0.13    0.39
   5   2   0    0.44    0.41
   6  -2   0    5.38    1.39
  -6  -2   0    3.71    1.09
  -6  -2   0    5.80    1.40
   6  -2   0    2.78    0.95
  -6   2   0    6.83    1.48
  -6   2   0    6.14    1.37
   6   2   0    4.38    1.27
  -7  -2   0    0.64    0.74
   7  -2   0    0.82    0.89
  -7  -2   0    1.83    0.80
   7  -2   0    0.68    0.77
   7   2   0    1.39    1.17
   0  -3   0    0.21    0.29
   0  -3   0   -0.37    0.19
   0  -3   0    0.13    0.13
   0  -3   0    0.19    0.26
   0   3   0    0.26    0.25
   0   3   0   -0.05    0.11
   0   3   0   -0.46    0.17
   1  -3   0    0.06    0.25
   1  -3   0    0.08    0.20
  -1  -3   0    0.08    0.30
   1  -3   0   -0.18    0.23
  -1  -3   0    0.05    0.22
  -1  -3   0    0.17    0.24
   1   3   0    0.05    0.20
  -1   3   0   -0.07    0.12
   1   3   0   -0.24    0.15
  -1   3   0   -0.16    0.21
  -1   3   0   -0.05    0.22
   1   3   0    0.15    0.23
  -2  -3   0   40.20    2.28
  -2  -3   0   44.30    2.57
   2  -3   0   39.20    2.32
   2  -3   0   44.50    2.07
   2  -3   0   40.00    2.41
  -2  -3   0   38.60    2.15
   2  -3   0   42.35    2.53
   2   3   0   43.38    2.48
  -2   3   0   42.64    2.00
   2   3   0   42.46    2.13
  -2   3   0   45.35    2.12
  -2   3   0   41.47    2.17
   2   3   0   41.95    2.22
  -2   3   0   39.95    2.29
  -3  -3   0    0.13    0.38
  -3  -3   0    0.32    0.28
  -3  -3   0    0.49    0.43
   3  -3   0    0.20    0.36
   3  -3   0    0.43    0.42
   3   3   0    0.25    0.31
  -3   3   0   -0.07    0.25
   3   3   0    0.07    0.33
  -3   3   0    0.23    0.27
  -3   3   0    0.21    0.33
   4  -3   0    1.25    0.68
  -4  -3   0    2.85    0.80
   4  -3   0    1.01    0.51
  -4  -3   0    0.86    0.61
   4  -3   0    1.17    0.71
   4   3   0    0.70    0.51
  -4   3   0    1.31    0.61
  -4   3   0    2.46    0.77
   4   3   0    1.19    0.59
  -5  -3   0    0.69    0.61
   5  -3   0    0.27    0.33
  -5  -3   0    0.35    0.46
   5  -3   0    0.90    0.63
   5   3   0    0.55    0.59
   5   3   0   -0.10    0.32
  -5   3   0    0.31    0.45
  -5   3   0    0.26    0.43
   6  -3   0    3.80    1.53
  -6  -3   0    5.83    1.42
   6  -3   0    3.73    1.30
  -6  -3   0    3.79    1.21
  -6   3   0    4.47    1.27
  -6   3   0    4.17    1.27
   6   3   0    1.74    0.75
   0  -4   0    0.96    0.49
   0  -4   0    0.23    0.34
   0  -4   0    0.67    0.44
   0   4   0   -0.20    0.27
   0   4   0    0.29    0.33
  -1  -4   0    2.61    0.75
  -1  -4   0    1.40    0.63
  -1  -4   0    1.44    0.54
   1  -4   0    1.70    0.63
   1  -4   0    2.78    0.80
   1  -4   0    2.59    0.61
   1   4   0    2.28    0.69
   1   4   0    2.29    0.67
  -1   4   0    2.75    0.71
   1   4   0    2.44    0.56
  -1   4   0    1.85    0.60
  -2  -4   0    2.49    0.70
  -2  -4   0    3.02    0.89
   2  -4   0    5.05    1.16
  -2  -4   0    1.72    0.57
   2  -4   0    2.95    0.82
  -2   4   0    2.83    0.74
   2   4   0    3.46    0.77
  -2   4   0    2.22    0.65
  -2   4   0    1.61    0.53
   2   4   0    2.30    0.77
   2   4   0    4.20    0.81
  -3  -4   0    6.89    1.14
  -3  -4   0    5.48    1.25
   3  -4   0    5.89    1.30
   3  -4   0    7.25    1.39
  -3  -4   0    5.47    1.09
  -3   4   0    6.49    0.87
   3   4   0    7.47    1.43
   3   4   0    7.05    0.93
  -3   4   0    7.65    1.12
  -3   4   0    6.04    1.21
   3   4   0    6.26    1.12
   4  -4   0   17.36    2.02
  -4  -4   0   15.83    1.90
   4  -4   0   17.90    1.98
  -4  -4   0   18.42    1.83
   4   4   0   20.65    1.89
   4   4   0   18.91    1.89
  -4   4   0   20.21    1.94
  -4   4   0   20.47    1.92
   5  -4   0    2.60    1.11
  -5  -4   0    0.99    0.64
  -5  -4   0    1.56    0.88
  -5   4   0    1.05    0.65
  -5   4   0    3.24    1.08
   5   4   0    2.19    0.87
   5   4   0    0.63    0.60
  -6  -4   0    4.87    1.51
   6  -4   0    3.32    1.29
   6   4   0    4.36    1.28
  -6   4   0    2.49    1.02
  -6   4   0    6.37    1.55
   0  -5   0   -0.14    0.36
   0  -5   0    0.05    0.31
   0   5   0   -0.21    0.28
   0   5   0   -0.19    0.37
   1  -5   0    0.53    0.48
  -1  -5   0    0.35    0.43
  -1  -5   0    0.29    0.53
   1  -5   0    0.37    0.40
   1   5   0    0.00    0.41
  -1   5   0    0.77    0.45
   1   5   0    0.09    0.37
  -1   5   0   -0.04    0.36
   2  -5   0    0.27    0.48
  -2  -5   0    0.08    0.41
  -2  -5   0    0.09    0.38
   2  -5   0    0.32    0.51
  -2   5   0    0.34    0.44
   2   5   0    1.05    0.55
   2   5   0    0.31    0.45
  -2   5   0    0.22    0.48
   3  -5   0    0.66    0.50
  -3  -5   0    0.36    0.54
   3  -5   0   -0.05    0.42
  -3  -5   0    0.36    0.44
   3   5   0    0.03    0.40
  -3   5   0    0.10    0.34
  -3   5   0    0.29    0.44
  -3   5   0    0.20    0.29
   3   5   0    0.28    0.44
  -4  -5   0   -0.02    0.61
   4  -5   0    0.98    0.58
   4  -5   0    0.52    0.67
  -4   5   0   -0.10    0.48
   4   5   0   -0.12    0.50
  -4   5   0    0.73    0.55
  -5  -5   0    1.06    0.78
   5  -5   0    0.34    0.66
   5  -5   0    1.20    0.85
  -5   5   0    1.37    0.80
   5   5   0    0.24    0.58
  -5   5   0    1.13    0.66
  -5   5   0    0.99    0.68
   0  -6   0    0.03    0.45
   0  -6   0    0.76    0.71
   0   6   0    0.16    0.44
   0   6   0   -0.11    0.43
   1  -6   0    4.41    1.33
  -1  -6   0    3.47    1.10
   1  -6   0    1.35    0.75
  -1  -6   0    3.35    1.21
   1   6   0    2.92    1.04
  -1   6   0    5.26    1.25
   1   6   0    1.71    0.75
  -1   6   0    2.43    0.83
   2  -6   0    0.84    0.72
   2  -6   0   -0.34    0.36
  -2  -6   0    0.66    0.64
  -2   6   0    0.36    0.45
   2   6   0    0.25    0.51
   2   6   0   -0.25    0.33
  -2   6   0    0.89    0.64
   3  -6   0    1.17    0.86
  -3  -6   0    1.11    0.82
   3  -6   0    0.25    0.60
  -3   6   0    1.50    0.88
  -3   6   0    0.93    0.62
   3   6   0    0.67    0.82
   3   6   0    1.75    0.72
  -3   6   0    0.38    0.54
  -4  -6   0    3.54    1.34
   4  -6   0    0.97    0.81
  -4   6   0    4.21    1.32
  -4   6   0    2.76    1.16
   0  -7   0    0.43    0.64
   0   7   0   -0.39    0.43
   0   7   0    0.10    0.53
  -1  -7   0    0.39    0.69
   1  -7   0    0.12    0.73
  -1   7   0   -0.16    0.60
   1   7   0    0.11    0.64
   1   7   0    1.20    0.71
  -1   7   0    0.21    0.57
   7   0  -1   -0.07    0.63
   7   0  -1    0.41    0.63
  -7   0   1   -0.32    0.47
  -7   0   1    0.22    0.58
  -6   0   1    0.49    0.51
  -6   0   1   -0.15    0.40
   6   0  -1   -0.04    0.41
   6   0  -1    0.37    0.53
  -6   0   1   -0.09    0.36
   5   0  -1    8.76    1.20
  -5   0   1    8.23    1.09
   5   0  -1    6.81    1.39
  -5   0   1    8.01    1.17
  -5   0   1    7.32    1.10
   4   0  -1    0.40    0.35
   4   0  -1   -0.20    0.17
   4   0  -1   -0.04    0.26
  -4   0   1    0.28    0.31
  -4   0   1    0.07    0.24
  -3   0   1   49.72    2.30
   3   0  -1   43.26    2.34
  -3   0   1   51.74    2.48
   3   0  -1   46.38    2.50
   2   0  -1   -0.29    0.15
  -2   0   1    0.18    0.21
   2   0  -1   -0.14    0.16
  -2   0   1    0.00    0.19
  -1   0   1    3.58    0.40
  -1   0   1    3.72    0.32
   1   0  -1    3.32    0.38
   1   0  -1    3.28    0.40
  -1   0   1    3.38    0.38
   1   0  -1    2.95    0.37
   0   0   1   -0.03    0.09
   0   0   1   -0.05    0.07
   0   0  -1   -0.18    0.07
   0   0  -1    0.04    0.07
   1   0   1    0.33    0.20
  -1   0  -1    0.59    0.20
   1   0   1    0.49    0.22
   1   0   1    0.81    0.15
  -1   0  -1    0.34    0.18
  -1   0  -1    0.77    0.20
   1   0   1    0.31    0.22
   2   0   1    0.37    0.31
   2   0   1    0.05    0.23
   2   0   1   -0.03    0.12
  -2   0  -1    0.10    0.15
  -2   0  -1   -0.05    0.19
  -2   0  -1    0.10    0.23
   3   0   1   45.06    2.33
   3   0   1   41.74    1.79
  -3   0  -1   46.32    1.75
  -3   0  -1   44.52    2.30
   3   0   1   42.98    2.43
  -3   0  -1   43.29    2.29
  -4   0  -1   -0.04    0.24
   4   0   1   -0.18    0.23
   4   0   1   -0.16    0.24
  -4   0  -1    0.28    0.33
   4   0   1    0.03    0.27
  -5   0  -1   26.70    2.06
   5   0   1   29.51    2.26
  -5   0  -1   19.59    1.85
   5   0   1   19.66    1.97
   6   0   1    0.18    0.46
   6   0   1    0.10    0.44
  -6   0  -1    0.79    0.51
  -6   0  -1   -0.27    0.31
   7   0   1    1.90    0.86
  -7   0  -1    2.16    1.04
  -7   0  -1    1.11    0.80
   7   0   1    1.31    0.81
  -7  -1   1    0.97    0.63
   7  -1  -1    0.05    0.49
  -7  -1   1    0.12    0.58
   7  -1  -1    0.84    0.67
  -7   1   1    0.47    0.64
   7   1  -1   -0.98    0.35
  -7   1   1    0.12    0.47
   6  -1  -1   17.70    1.96
  -6  -1   1   14.07    1.67
  -6  -1   1   16.55    1.84
   6  -1  -1   12.63    1.81
  -6  -1   1   14.94    1.90
  -6   1   1   13.40    1.69
  -6   1   1   16.43    1.72
   6   1  -1   14.53    1.77
  -6   1   1   15.35    1.84
   6   1  -1   15.53    1.82
   5  -1  -1    1.18    0.64
   5  -1  -1    0.41    0.48
  -5  -1   1    0.06    0.35
  -5  -1   1    0.44    0.45
  -5  -1   1    0.76    0.50
  -5   1   1    0.22    0.38
  -5   1   1   -0.02    0.29
   5   1  -1    0.20    0.38
   5   1  -1    0.55    0.51
  -4  -1   1   50.01    2.86
  -4  -1   1   49.43    2.55
   4  -1  -1   50.17    3.01
   4  -1  -1   42.73    2.65
   4  -1  -1   46.71    2.28
  -4  -1   1   50.48    2.73
   4   1  -1   45.75    2.65
  -4   1   1   46.92    2.54
   4   1  -1   46.39    2.79
  -4   1   1   41.18    2.65
   4   1  -1   48.49    2.50
   3  -1  -1    0.18    0.19
  -3  -1   1   -0.22    0.22
  -3  -1   1   -0.25    0.14
   3  -1  -1    0.26    0.32
   3  -1  -1   -0.05    0.22
  -3  -1   1    0.01    0.22
   3   1  -1    0.21    0.26
   3   1  -1    0.01    0.23
  -3   1   1    0.27    0.13
  -3   1   1   -0.12    0.16
  -3   1   1   -0.04    0.21
   3   1  -1    0.23    0.11
   3   1  -1   -0.05    0.23
   2  -1  -1   57.81    2.32
   2  -1  -1   58.70    2.67
  -2  -1   1   56.22    2.44
   2  -1  -1   58.25    2.47
  -2  -1   1   57.27    2.55
   2   1  -1   57.44    2.45
   2   1  -1   60.22    2.02
   2   1  -1   59.26    2.41
  -2   1   1   59.54    2.55
  -2   1   1   56.68    2.32
   2   1  -1   56.17    2.46
  -2   1   1   57.47    2.04
  -1  -1   1   12.20    0.68
   1  -1  -1   12.57    0.79
   1  -1  -1   11.12    0.80
   1  -1  -1   11.60    0.82
  -1  -1   1   12.80    0.81
  -1  -1   1   12.54    0.86
  -1   1   1   13.12    0.72
  -1   1   1   12.37    0.77
   1   1  -1   11.39    0.81
   1   1  -1   11.79    0.73
   0  -1   1    3.00    0.34
   0  -1   1    3.19    0.39
   0  -1   1    2.36    0.41
   0  -1  -1    3.03    0.30
   0  -1  -1    2.86    0.39
   0  -1  -1    2.67    0.37
   0  -1  -1    2.80    0.45
   0   1   1    2.88    0.26
   0   1  -1    2.61    0.35
   0   1  -1    3.49    0.36
   0   1   1    2.52    0.37
   0   1   1    2.92    0.34
  -1  -1  -1    6.71    0.65
  -1  -1  -1    6.54    0.55
  -1  -1  -1    6.03    0.63
   1  -1   1    7.25    0.66
   1  -1   1    6.46    0.45
   1  -1   1    6.75    0.68
  -1   1  -1    6.83    0.53
  -1   1  -1    6.89    0.40
  -1   1  -1    7.17    0.61
   1   1   1    6.54    0.47
   1   1   1    6.39    0.59
   1   1   1    7.15    0.64
   2  -1   1   29.96    1.79
  -2  -1  -1   32.97    1.64
   2  -1   1   30.56    1.57
  -2  -1  -1   32.02    1.44
  -2  -1  -1   33.70    1.80
   2  -1   1   33.66    1.19
   2  -1   1   32.71    1.88
  -2   1  -1   31.79    1.71
   2   1   1   34.14    1.63
  -2   1  -1   32.74    1.42
   2   1   1   33.59    1.77
  -2   1  -1   32.90    1.74
   3  -1   1   -0.06    0.24
   3  -1   1    0.28    0.27
  -3  -1  -1   -0.10    0.18
  -3  -1  -1    0.11    0.29
   3  -1   1   -0.12    0.17
  -3  -1  -1    0.18    0.15
  -3   1  -1   -0.13    0.21
   3   1   1    0.48    0.33
   3   1   1    0.16    0.21
  -3   1  -1   -0.03    0.15
  -3   1  -1    0.09    0.25
  -4  -1  -1    7.06    1.02
   4  -1   1    6.91    1.07
   4  -1   1   10.25    1.11
  -4  -1  -1    9.83    1.12
   4   1   1    9.00    1.14
   4   1   1    8.14    1.02
   4   1   1    6.83    0.79
  -4   1  -1    8.14    1.03
  -4   1  -1    7.43    1.02
  -5  -1  -1    1.20    0.62
   5  -1   1    0.19    0.33
  -5  -1  -1    0.68    0.48
   5  -1   1    0.57    0.46
  -5   1  -1    0.08    0.40
   5   1   1    1.04    0.53
  -5   1  -1   -0.41    0.29
   5   1   1    0.32    0.35
   6  -1   1    0.79    0.77
  -6  -1  -1    1.37    0.70
  -6  -1  -1    0.97    0.65
   6  -1   1    1.22    0.71
   6   1   1    1.32    0.73
  -6   1  -1    1.52    0.78
   6   1   1    1.10    0.57
  -6   1  -1    0.62    0.57
   7  -1   1   -0.02    0.63
  -7  -1  -1    0.10    0.53
  -7  -1  -1    0.28    0.59
   7  -1   1    0.10    0.48
  -7   1  -1    0.17    0.54
   7   1   1    0.14    0.59
  -7   1  -1    0.32    0.64
   7  -2  -1    0.55    0.58
  -7  -2   1    1.50    0.77
   7  -2  -1   -0.04    0.75
   7   2  -1    2.53    1.08
  -7   2   1    1.04    1.21
  -7   2   1    0.16    0.96
  -6  -2   1    1.63    0.84
   6  -2  -1    3.42    1.10
  -6  -2   1    1.98    0.80
   6  -2  -1    2.71    1.13
  -6   2   1    1.31    0.70
   6   2  -1    3.35    1.11
  -6   2   1    4.16    1.26
   5  -2  -1    4.31    1.15
  -5  -2   1    7.96    1.44
   5  -2  -1    6.11    1.29
  -5  -2   1    4.02    1.08
  -5   2   1    5.22    1.22
  -5   2   1    6.85    1.05
   5   2  -1    5.45    1.25
   5   2  -1    7.07    1.05
  -4  -2   1   -0.34    0.27
   4  -2  -1    0.31    0.38
  -4  -2   1   -0.03    0.21
   4  -2  -1   -0.07    0.32
  -4  -2   1    0.01    0.31
   4   2  -1    0.32    0.32
  -4   2   1    0.23    0.30
  -4   2   1   -0.16    0.23
   4   2  -1   -0.52    0.22
   4   2  -1    0.09    0.31
   3  -2  -1    3.14    0.72
   3  -2  -1    3.83    0.57
  -3  -2   1    4.75    0.88
  -3  -2   1    3.41    0.78
   3  -2  -1    2.97    0.80
  -3  -2   1    1.94    0.47
   3  -2  -1    3.10    0.82
   3   2  -1    3.49    0.78
  -3   2   1    2.14    0.62
   3   2  -1    4.58    0.85
   3   2  -1    3.70    0.46
  -3   2   1    3.98    0.77
  -3   2   1    3.63    0.48
   3   2  -1    3.56    0.54
  -2  -2   1    7.23    0.85
   2  -2  -1    8.41    0.91
   2  -2  -1    6.38    0.71
  -2  -2   1    7.92    0.70
  -2  -2   1    8.66    0.65
   2  -2  -1    8.94    0.98
  -2  -2   1    7.30    0.84
   2  -2  -1    7.60    0.84
  -2   2   1    8.52    0.85
   2   2  -1    8.46    0.90
   2   2  -1    6.82    0.76
  -2   2   1    8.50    0.75
  -2   2   1    7.56    0.78
  -2   2   1    7.80    0.70
  -1  -2   1   48.53    2.26
   1  -2  -1   44.85    2.13
  -1  -2   1   50.19    2.31
   1  -2  -1   45.06    2.11
   1  -2  -1   49.92    2.25
   1  -2  -1   47.38    2.16
  -1  -2   1   49.29    1.74
   1   2  -1   45.80    1.94
  -1   2   1   45.60    1.97
   1   2  -1   52.20    2.29
  -1   2   1   49.93    2.08
   1   2  -1   47.33    2.05
  -1   2   1   46.23    2.08
   0  -2  -1    6.16    0.70
   0  -2   1    6.74    0.54
   0  -2   1    6.33    0.70
   0  -2  -1    6.04    0.43
   0  -2   1    6.19    0.70
   0  -2  -1    7.24    0.73
   0   2  -1    6.47    0.40
   0   2   1    5.49    0.65
   0   2  -1    6.94    0.68
   0   2  -1    6.82    0.66
   0   2   1    5.80    0.41
   0   2   1    6.81    0.58
  -1  -2  -1   17.03    1.12
   1  -2   1   18.73    1.31
   1  -2   1   18.80    1.31
  -1  -2  -1   14.77    1.19
   1  -2   1   17.60    0.86
   1  -2   1   18.57    1.19
   1   2   1   17.69    1.10
   1   2   1   18.92    1.23
  -1   2  -1   16.81    1.09
  -1   2  -1   17.16    1.00
  -1   2  -1   18.40    1.18
   2  -2   1    0.18    0.19
  -2  -2  -1    0.24    0.24
   2  -2   1   -0.25    0.21
  -2  -2  -1   -0.02    0.20
  -2  -2  -1    0.06    0.27
   2  -2   1    0.46    0.35
  -2   2  -1    0.06    0.16
   2   2   1   -0.08    0.10
   2   2   1   -0.10    0.18
  -2   2  -1    0.05    0.19
   2   2   1   -0.16    0.18
  -2   2  -1   -0.07    0.17
  -3  -2  -1   34.29    1.76
  -3  -2  -1   35.41    2.28
   3  -2   1   36.13    2.03
   3  -2   1   38.78    2.42
   3  -2   1   33.48    2.34
  -3  -2  -1   33.87    2.04
   3   2   1   36.52    1.86
  -3   2  -1   34.76    1.76
   3   2   1   34.10    2.07
  -3   2  -1   32.95    2.14
  -3   2  -1   35.50    2.13
   3   2   1   39.53    2.25
   4  -2   1    0.05    0.29
  -4  -2  -1    0.07    0.31
   4  -2   1    0.41    0.43
   4  -2   1    0.36    0.40
  -4  -2  -1    0.30    0.37
   4   2   1   -0.07    0.24
   4   2   1   -0.04    0.32
   4   2   1   -0.07    0.22
  -4   2  -1   -0.06    0.30
  -4   2  -1    0.17    0.34
   5  -2   1   33.70    2.80
   5  -2   1   26.65    2.15
  -5  -2  -1   29.92    2.32
  -5  -2  -1   33.60    2.56
   5   2   1   25.36    2.26
  -5   2  -1   26.11    2.17
  -5   2  -1   28.26    2.34
   6  -2   1    0.51    0.62
   6  -2   1    0.66    0.68
  -6  -2  -1    0.78    0.66
  -6  -2  -1    2.06    0.94
   6   2   1    0.22    0.51
  -6   2  -1    0.22    0.55
  -6   2  -1    0.96    0.63
  -6  -3   1    7.37    1.70
   6  -3  -1    9.73    1.77
  -6  -3   1    4.96    1.38
   6  -3  -1    5.76    1.65
  -6   3   1    6.90    1.71
   6   3  -1    7.54    1.69
  -6   3   1    8.09    1.63
  -5  -3   1    5.35    1.28
   5  -3  -1    4.95    1.10
  -5  -3   1    4.92    1.26
   5  -3  -1    4.15    1.24
  -5   3   1    3.04    1.02
   5   3  -1    2.13    0.74
  -5   3   1    3.28    0.98
   5   3  -1    2.61    0.89
  -4  -3   1    4.90    1.12
   4  -3  -1    6.99    1.41
   4  -3  -1    4.94    1.20
   4  -3  -1    5.42    1.05
  -4  -3   1    6.78    1.36
  -4   3   1    5.56    1.17
  -4   3   1    9.02    1.13
   4   3  -1    5.76    1.20
   4   3  -1    6.34    1.21
  -3  -3   1   52.74    2.93
   3  -3  -1   49.92    2.63
   3  -3  -1   45.14    2.87
   3  -3  -1   50.55    2.53
   3  -3  -1   53.60    3.06
  -3  -3   1   47.10    2.88
   3   3  -1   48.29    2.85
  -3   3   1   50.45    2.74
   3   3  -1   53.30    2.81
  -3   3   1   51.02    2.83
  -3   3   1   47.04    2.39
   3   3  -1   51.41    2.53
  -3   3   1   50.09    2.46
   2  -3  -1   -0.03    0.24
   2  -3  -1   -0.09    0.22
  -2  -3   1   -0.16    0.23
   2  -3  -1    0.55    0.32
  -2  -3   1   -0.09    0.25
  -2   3   1    0.12    0.19
   2   3  -1    0.03    0.22
   2   3  -1    0.39    0.34
  -2   3   1   -0.17    0.17
  -2   3   1   -0.12    0.23
  -2   3   1    0.57    0.31
   2   3  -1   -0.12    0.23
  -1  -3   1   17.82    1.38
  -1  -3   1   17.76    0.79
   1  -3  -1   19.81    1.23
   1  -3  -1   19.15    1.36
   1  -3  -1   19.04    1.46
  -1  -3   1   20.65    1.54
   1  -3  -1   19.04    1.38
  -1   3   1   17.40    1.29
  -1   3   1   18.64    1.14
   1   3  -1   15.19    1.34
   1   3  -1   19.70    1.14
  -1   3   1   16.84    1.27
   1   3  -1   18.05    1.29
   0  -3   1    9.43    0.69
   0  -3  -1    7.37    0.86
   0  -3  -1    9.72    1.03
   0  -3   1    7.21    0.89
   0  -3   1    9.06    0.98
   0   3   1    6.84    0.80
   0   3   1    7.36    0.88
   0   3   1    7.58    0.52
   0   3  -1    9.57    0.94
   0   3   1    9.19    0.78
   0   3  -1    7.93    0.88
   0   3  -1    7.81    0.56
   1  -3   1   63.08    3.12
   1  -3   1   61.48    2.78
   1  -3   1   64.53    3.08
  -1  -3  -1   59.61    3.09
  -1  -3  -1   65.75    2.92
  -1   3  -1   59.58    2.25
  -1   3  -1   60.65    2.73
   1   3   1   63.50    2.72
  -1   3  -1   69.64    2.93
   1   3   1   58.28    2.77
   1   3   1   59.49    2.97
  -2  -3  -1   19.70    1.62
   2  -3   1   17.44    1.08
  -2  -3  -1   12.86    1.16
   2  -3   1   15.75    1.45
   2  -3   1   15.01    1.38
   2  -3   1   17.24    1.52
  -2   3  -1   12.30    1.23
   2   3   1   14.41    1.33
  -2   3  -1   14.64    1.05
  -2   3  -1   16.48    1.23
   2   3   1   14.85    1.26
   2   3   1   15.19    1.19
   3  -3   1   44.38    2.85
  -3  -3  -1   43.03    2.76
   3  -3   1   51.47    2.36
   3  -3   1   42.73    2.75
  -3  -3  -1   39.55    2.41
  -3  -3  -1   44.92    2.31
   3   3   1   36.13    2.41
  -3   3  -1   43.61    2.60
  -3   3  -1   45.33    2.67
   3   3   1   38.84    2.48
  -3   3  -1   42.60    2.25
   4  -3   1   22.14    2.13
   4  -3   1   19.04    1.97
  -4  -3  -1   16.25    1.60
  -4  -3  -1   21.84    2.04
  -4   3  -1   20.97    1.87
   4   3   1   15.11    1.56
   4   3   1   19.28    1.78
  -4   3  -1   22.30    1.94
  -5  -3  -1    0.61    0.55
  -5  -3  -1    0.54    0.63
   5  -3   1   -0.17    0.52
   5  -3   1    0.59    0.64
   5   3   1    0.25    0.51
  -5   3  -1    0.74    0.53
  -5   3  -1    0.59    0.57
   5   3   1   -0.02    0.45
  -6  -3  -1    3.63    1.12
   6  -3   1    3.51    1.29
  -6  -3  -1    4.16    1.21
  -6   3  -1    2.27    0.95
   6   3   1    1.74    0.78
  -6   3  -1    3.69    1.22
  -6  -4   1    2.52    1.13
   6  -4  -1    0.25    0.71
  -6  -4   1    0.20    0.59
   6   4  -1    0.87    0.73
  -6   4   1    1.40    0.82
   6   4  -1    1.49    0.84
  -6   4   1    1.41    0.86
  -5  -4   1    0.79    0.62
  -5  -4   1   -0.06    0.51
   5  -4  -1    0.37    0.50
   5   4  -1   -0.45    0.38
   5   4  -1    0.41    0.60
  -5   4   1   -0.11    0.44
  -5   4   1    1.01    0.63
  -5   4   1    0.15    0.49
  -4  -4   1   10.10    1.39
   4  -4  -1   14.20    1.71
   4  -4  -1   12.39    1.68
  -4  -4   1   12.77    1.68
  -4   4   1   11.94    1.43
  -4   4   1   13.00    1.55
   4   4  -1   14.21    1.56
  -3  -4   1   15.93    1.73
  -3  -4   1   14.82    1.57
   3  -4  -1   15.58    1.60
   3  -4  -1   14.68    1.64
   3  -4  -1   12.96    1.35
  -3   4   1   17.57    1.61
  -3   4   1   12.50    1.39
   3   4  -1   15.03    1.45
   3   4  -1   13.42    1.54
  -3   4   1   12.85    1.29
   3   4  -1   14.94    1.32
   2  -4  -1   29.47    2.15
  -2  -4   1   27.04    2.22
  -2  -4   1   34.52    2.28
   2  -4  -1   28.10    2.24
  -2   4   1   36.16    2.25
  -2   4   1   30.53    1.99
   2   4  -1   29.86    1.97
   2   4  -1   30.54    2.29
  -2   4   1   29.60    1.96
  -1  -4   1   39.67    2.42
   1  -4  -1   38.38    2.33
   1  -4  -1   32.70    2.36
  -1  -4   1   36.80    2.47
   1  -4  -1   41.10    2.42
   1  -4  -1   39.50    2.00
   1   4  -1   34.87    2.37
  -1   4   1   40.02    1.99
   1   4  -1   34.80    2.18
  -1   4   1   38.75    2.32
  -1   4   1   37.95    2.26
   0  -4  -1    5.45    0.81
   0  -4  -1    8.16    1.01
   0  -4   1    5.16    1.07
   0  -4   1    7.16    1.22
   0  -4  -1    5.73    1.17
   0   4  -1    4.59    0.92
   0   4   1    5.22    0.96
   0   4   1    6.94    0.98
   0   4   1    6.17    0.72
   0   4  -1    7.12    0.93
   1  -4   1    6.50    0.79
  -1  -4  -1    8.62    1.69
  -1  -4  -1    6.46    1.22
   1  -4   1    6.34    1.18
  -1  -4  -1    6.36    1.10
   1  -4   1    6.50    1.22
   1   4   1    6.81    0.98
  -1   4  -1    6.63    1.14
   1   4   1    5.99    0.78
   1   4   1    4.38    0.87
  -1   4  -1    6.77    0.89
   2  -4   1   52.79    3.19
   2  -4   1   59.52    3.41
  -2  -4  -1   52.80    3.29
  -2  -4  -1   53.68    2.92
   2   4   1   55.59    2.83
   2   4   1   54.49    2.82
   2   4   1   56.40    3.14
  -2   4  -1   48.30    2.60
  -2   4  -1   46.63    2.72
  -2   4  -1   52.68    3.03
  -3  -4  -1    0.43    0.51
   3  -4   1    1.74    0.74
  -3  -4  -1    1.78    0.65
   3  -4   1    1.05    0.68
  -3  -4  -1    1.57    0.62
   3   4   1    0.81    0.48
  -3   4  -1    1.78    0.67
   3   4   1    1.07    0.52
   3   4   1    2.09    0.77
  -3   4  -1    2.18    0.73
   4  -4   1    5.74    1.42
  -4  -4  -1    8.89    1.22
  -4  -4  -1    7.90    1.67
   4  -4   1    8.19    1.68
  -4   4  -1    8.77    1.60
   4   4   1    7.78    1.45
   4   4   1    8.32    1.20
  -4   4  -1    5.52    1.23
   5  -4   1    1.92    0.99
   5  -4   1    2.17    1.06
  -5  -4  -1    1.59    0.78
  -5   4  -1    1.20    0.74
   5   4   1    0.44    0.53
  -5   4  -1    1.10    0.73
   5   4   1    0.76    0.59
   6  -4   1   -0.38    0.80
  -6  -4  -1   -0.28    0.55
   6   4   1    0.78    0.65
  -6   4  -1   -0.01    0.43
  -6   4  -1   -0.24    0.70
  -5  -5   1    0.19    0.70
  -5  -5   1    0.97    0.74
   5  -5  -1    0.66    0.74
  -5   5   1   -0.07    0.50
  -5   5   1    1.39    0.74
   5   5  -1    0.13    0.62
  -5   5   1   -0.09    0.49
  -4  -5   1    3.08    1.07
   4  -5  -1    0.89    0.71
   4  -5  -1    3.09    1.10
  -4  -5   1    0.83    0.80
  -4   5   1    1.90    0.79
  -4   5   1    3.30    1.10
   4   5  -1    3.18    1.04
   3  -5  -1    6.31    1.50
  -3  -5   1    5.87    1.26
  -3  -5   1   10.35    1.86
   3  -5  -1    6.81    1.50
   3   5  -1    5.42    1.12
   3   5  -1    7.09    1.49
  -3   5   1    7.68    1.40
  -3   5   1    9.20    1.36
  -3   5   1   11.94    1.36
  -2  -5   1   11.42    1.57
  -2  -5   1   11.14    1.46
   2  -5  -1    8.67    1.28
   2  -5  -1    9.54    1.75
  -2   5   1    8.93    1.19
  -2   5   1    9.88    1.30
   2   5  -1    9.34    1.22
  -2   5   1   13.29    1.38
   2   5  -1   11.41    1.51
  -1  -5   1   29.75    2.35
   1  -5  -1   30.79    2.52
  -1  -5   1   33.13    2.59
   1  -5  -1   36.39    2.48
  -1   5   1   32.34    2.33
   1   5  -1   37.55    2.63
   1   5  -1   33.77    2.39
  -1   5   1   34.59    2.41
   0  -5  -1   50.96    3.09
   0  -5  -1   51.01    2.99
   0  -5   1   56.75    3.45
   0  -5  -1   53.91    3.33
   0  -5   1   51.91    3.18
   0   5   1   54.34    3.25
   0   5   1   49.46    2.99
   0   5  -1   52.02    3.13
   0   5  -1   48.69    3.01
  -1  -5  -1    4.54    1.07
   1  -5   1    1.59    0.79
  -1  -5  -1    5.57    1.11
  -1  -5  -1    3.42    1.02
   1  -5   1    3.90    1.08
   1   5   1    4.19    1.01
   1   5   1    4.18    1.07
  -1   5  -1    3.93    1.01
  -1   5  -1    4.19    0.94
   2  -5   1   14.71    1.81
   2  -5   1   17.22    1.94
  -2  -5  -1   15.25    1.79
  -2  -5  -1   18.73    1.76
  -2  -5  -1   15.18    1.85
   2   5   1   16.67    1.64
   2   5   1   20.18    1.99
  -2   5  -1   17.22    1.77
  -2   5  -1   17.57    1.66
  -3  -5  -1    1.40    0.69
  -3  -5  -1    0.78    0.75
   3  -5   1    2.55    0.94
   3   5   1    1.12    0.69
   3   5   1    0.75    0.51
  -3   5  -1    1.03    0.60
  -3   5  -1    0.44    0.54
   4  -5   1   -0.05    0.59
  -4  -5  -1   -0.34    0.65
   4  -5   1   -0.45    0.51
  -4   5  -1    0.30    0.49
   4   5   1   -0.48    0.40
  -4   5  -1   -0.24    0.41
   5  -5   1   -0.12    0.50
   5  -5   1    0.08    0.68
  -5  -5  -1    0.69    0.74
  -5   5  -1    0.18    0.54
  -5   5  -1   -0.17    0.55
   5   5   1    0.55    0.64
   4  -6  -1    0.43    0.72
  -4  -6   1    0.41    0.65
  -4   6   1    1.02    0.80
  -4   6   1    1.01    0.69
   3  -6  -1    1.04    0.66
   3  -6  -1    1.23    0.79
  -3  -6   1    1.62    1.04
  -3   6   1    1.13    0.70
   3   6  -1    0.44    0.61
  -3   6   1    2.16    0.78
   3   6  -1    2.63    0.94
  -3   6   1    2.43    0.92
  -2  -6   1    6.32    1.42
  -2  -6   1    4.46    1.32
   2  -6  -1    4.35    1.40
   2  -6  -1    6.36    1.46
  -2   6   1    6.76    1.45
  -2   6   1    5.91    1.28
   2   6  -1    7.39    1.46
   2   6  -1    4.01    1.20
   1  -6  -1    8.31    1.55
  -1  -6   1    5.59    1.41
   1  -6  -1   11.79    1.68
  -1  -6   1    8.63    1.62
  -1   6   1    7.35    1.45
  -1   6   1    8.11    1.58
   1   6  -1    8.95    1.62
   1   6  -1    7.33    1.54
   0  -6   1    5.47    1.40
   0  -6   1    8.45    1.62
   0  -6  -1    8.20    1.69
   0   6  -1    8.35    1.65
   0   6   1    6.09    1.30
   0   6  -1    8.63    1.58
   0   6   1    9.48    1.42
  -1  -6  -1   18.13    2.15
   1  -6   1   23.36    2.38
   1  -6   1   27.22    2.67
  -1   6  -1   23.22    2.15
  -1   6  -1   22.32    2.21
  -1   6  -1   22.28    2.12
   1   6   1   22.21    2.07
   1   6   1   18.69    2.09
   2  -6   1    0.01    0.64
  -2  -6  -1    0.34    0.55
   2  -6   1   -0.18    0.51
   2   6   1   -0.51    0.33
  -2   6  -1    0.42    0.54
  -2   6  -1   -0.36    0.34
   2   6   1    0.19    0.52
  -3  -6  -1    0.00    0.68
   3  -6   1    0.78    0.63
  -3   6  -1    0.05    0.42
   3   6   1    0.70    0.56
  -3   6  -1    1.28    0.73
   3   6   1    0.09    0.62
  -1  -7   1   -0.13    0.53
   1  -7  -1   -0.39    0.70
   1   7  -1    1.08    0.72
  -1   7   1    0.53    0.52
  -1   7   1    1.14    0.76
   1   7  -1   -0.49    0.52
  -1   7   1    0.27    0.45
   0  -7   1    1.84    0.91
   0  -7  -1    0.87    0.89
   0   7  -1    0.29    0.57
   0   7  -1    1.02    0.74
   0   7   1    0.33    0.54
   0   7   1    1.67    1.22
   1  -7   1    0.54    0.83
  -1  -7  -1    1.78    0.95
   1  -7   1    3.36    1.11
   1   7   1    1.80    0.88
   1   7   1    2.14    0.98
  -1   7  -1    2.46    1.51
  -1   7  -1    4.12    1.20
   7   0  -2    0.43    0.49
   7   0  -2   -0.06    0.66
  -7   0   2   -0.03    0.49
  -7   0   2    0.27    0.59
  -6   0   2    0.45    0.53
   6   0  -2    0.40    0.53
   6   0  -2    1.22    0.76
  -6   0   2    0.55    0.59
  -5   0   2    0.40    0.30
   5   0  -2    0.10    0.36
  -5   0   2   -0.06    0.35
   5   0  -2    0.49    0.46
   5   0  -2    0.45    0.42
  -5   0   2    0.36    0.45
   4   0  -2    0.18    0.29
   4   0  -2    0.24    0.36
  -4   0   2    1.08    0.45
  -4   0   2    0.15    0.29
  -4   0   2    0.69    0.41
   3   0  -2   -0.20    0.17
  -3   0   2   -0.18    0.17
   3   0  -2   -0.14    0.20
  -3   0   2    0.46    0.30
  -3   0   2   -0.34    0.15
   3   0  -2    0.00    0.23
   2   0  -2   58.60    2.58
  -2   0   2   55.80    2.18
   2   0  -2   58.64    2.42
  -2   0   2   55.43    2.48
  -2   0   2   59.69    2.50
   2   0  -2   58.20    1.82
   2   0  -2   55.37    2.49
  -1   0   2   -0.28    0.11
  -1   0   2   -0.56    0.16
   1   0  -2   -0.32    0.20
   1   0  -2   -0.41    0.17
   1   0  -2   -0.08    0.25
  -1   0   2   -0.47    0.20
   0   0  -2   11.26    0.70
   0   0  -2   11.00    0.69
   0   0   2   10.81    0.76
   0   0  -2   11.03    0.55
   0   0   2   10.65    0.59
   0   0   2   11.56    0.65
  -1   0  -2    0.09    0.23
   1   0   2    0.01    0.19
   1   0   2   -0.05    0.12
  -1   0  -2   -0.12    0.11
   1   0   2   -0.11    0.17
  -1   0  -2    0.14    0.22
   1   0   2   -0.06    0.19
  -2   0  -2    1.09    0.39
  -2   0  -2    1.25    0.38
   2   0   2    1.35    0.25
   2   0   2    1.44    0.42
  -2   0  -2    1.76    0.38
   2   0   2    1.58    0.48
  -3   0  -2   -0.02    0.18
   3   0   2    0.01    0.12
  -3   0  -2    0.01    0.17
   3   0   2   -0.03    0.23
   3   0   2    0.15    0.25
  -3   0  -2   -0.09    0.25
  -4   0  -2   13.52    1.32
   4   0   2   11.68    1.27
   4   0   2    9.22    1.21
  -4   0  -2   12.21    1.27
   5   0   2   -0.29    0.30
  -5   0  -2   -0.15    0.35
  -5   0  -2   -0.17    0.27
   5   0   2   -0.39    0.21
  -6   0  -2    3.91    1.04
   6   0   2    4.20    1.17
  -6   0  -2    4.77    1.27
   6   0   2    5.60    1.40
   7   0   2   -0.40    0.39
   7   0   2   -0.16    0.45
  -7   0  -2    0.86    0.87
  -7   0  -2    0.06    0.48
  -7  -1   2    0.37    0.62
  -7  -1   2    0.21    0.66
   7  -1  -2   -0.46    0.48
   7  -1  -2   -0.08    0.43
  -7   1   2    0.43    0.69
  -7   1   2   -0.04    0.54
   7   1  -2   -0.26    0.40
  -6  -1   2    0.19    0.55
   6  -1  -2    0.05    0.47
   6  -1  -2    0.04    0.39
  -6  -1   2   -0.46    0.31
   6   1  -2    0.19    0.52
  -6   1   2   -0.17    0.44
  -6   1   2   -0.05    0.41
   6   1  -2    0.49    0.54
  -5  -1   2    8.87    1.35
  -5  -1   2    7.74    1.13
  -5  -1   2   10.55    1.27
   5  -1  -2    9.39    1.27
   5  -1  -2    8.11    1.60
   5   1  -2    9.95    1.31
  -5   1   2    5.25    1.15
   5   1  -2    8.34    1.21
  -5   1   2    9.15    1.25
  -5   1   2    9.27    1.13
   5   1  -2    9.16    1.14
  -4  -1   2    8.04    1.02
   4  -1  -2    6.35    1.10
  -4  -1   2    6.39    1.25
   4  -1  -2    7.30    1.09
   4  -1  -2    9.40    0.96
  -4  -1   2    7.44    0.98
   4   1  -2    6.44    1.15
  -4   1   2    6.91    0.99
  -4   1   2    6.44    0.86
   4   1  -2    7.39    0.96
   4   1  -2    6.68    0.95
  -4   1   2    8.74    1.10
  -3  -1   2    5.64    0.72
   3  -1  -2    4.83    0.95
  -3  -1   2    3.86    0.83
  -3  -1   2    6.10    0.73
   3  -1  -2    5.58    0.77
   3   1  -2    5.04    0.71
   3   1  -2    5.41    0.35
  -3   1   2    6.96    0.86
  -3   1   2    4.72    0.58
  -3   1   2    3.48    0.75
   3   1  -2    5.61    0.75
  -3   1   2    5.33    0.39
   3   1  -2    5.94    0.78
   2  -1  -2   23.36    1.54
   2  -1  -2   23.85    1.12
  -2  -1   2   24.49    1.36
  -2  -1   2   23.78    1.50
   2  -1  -2   23.32    1.42
   2  -1  -2   26.81    1.43
  -2  -1   2   23.24    1.29
   2   1  -2   24.57    1.46
   2   1  -2   22.96    1.37
  -2   1   2   26.63    1.24
  -2   1   2   25.08    1.48
  -2   1   2   23.74    1.41
   2   1  -2   25.01    1.06
   1  -1  -2  899.42   26.05
   1  -1  -2  851.39   25.73
   1  -1  -2  867.39   26.05
  -1  -1   2  851.21   25.81
   1  -1  -2  867.65   25.99
  -1  -1   2  842.65   26.07
  -1   1   2  865.61   25.79
  -1   1   2  898.41   25.99
   1   1  -2  911.56   26.02
   1   1  -2  892.17   25.73
   0  -1   2    3.68    0.47
   0  -1  -2    3.50    0.25
   0  -1   2    3.77    0.23
   0  -1  -2    3.01    0.50
   0  -1   2    3.68    0.47
   0  -1  -2    3.67    0.50
   0  -1   2    3.30    0.48
   0   1   2    3.89    0.41
   0   1  -2    3.16    0.42
   0   1   2    2.91    0.45
   0   1  -2    2.49    0.43
   0   1   2    4.28    0.48
  -1  -1  -2  699.40   20.43
   1  -1   2  708.87   20.09
   1  -1   2  716.79   20.68
  -1  -1  -2  635.13   20.56
   1  -1   2  655.53   20.59
  -1  -1  -2  659.10   20.11
  -1   1  -2  649.19   20.46
  -1   1  -2  702.81   20.35
   1   1   2  688.35   20.48
   1   1   2  693.24   20.28
   1   1   2  697.91   20.37
  -1   1  -2  695.28   19.96
  -2  -1  -2    2.80    0.50
   2  -1   2    1.96    0.56
  -2  -1  -2    3.30    0.68
   2  -1   2    3.84    0.77
  -2   1  -2    2.49    0.57
  -2   1  -2    2.23    0.44
   2   1   2    3.14    0.57
   2   1   2    2.93    0.60
  -2   1  -2    3.86    0.68
   3  -1   2    1.37    0.54
  -3  -1  -2    1.15    0.33
  -3  -1  -2    1.18    0.42
   3  -1   2    0.81    0.38
  -3  -1  -2    1.37    0.51
   3  -1   2    0.64    0.45
  -3   1  -2    1.62    0.42
   3   1   2    0.89    0.33
  -3   1  -2    0.37    0.36
   3   1   2    1.56    0.52
  -3   1  -2    1.05    0.44
   3   1   2    1.18    0.46
   4  -1   2   -0.13    0.22
  -4  -1  -2    0.69    0.44
  -4  -1  -2    1.09    0.50
   4  -1   2    1.15    0.59
  -4   1  -2    0.01    0.32
   4   1   2   -0.09    0.28
   4   1   2    0.27    0.27
   4   1   2    0.60    0.43
  -4   1  -2    0.12    0.32
  -5  -1  -2    4.48    1.11
  -5  -1  -2    3.27    0.95
   5  -1   2    4.38    1.03
   5  -1   2    3.19    1.05
   5   1   2    2.65    0.82
   5   1   2    1.37    0.65
  -5   1  -2    4.59    1.11
  -5   1  -2    4.64    1.17
  -6  -1  -2    0.75    0.67
   6  -1   2   -0.46    0.49
  -6  -1  -2    0.79    0.78
   6  -1   2   -0.27    0.34
  -6   1  -2    0.20    0.54
   6   1   2    0.07    0.44
  -6   1  -2    0.18    0.63
   6   1   2    0.60    0.68
  -7  -1  -2    0.23    0.56
   7  -1   2    0.33    0.69
   7  -1   2    1.28    0.80
  -7  -1  -2    0.36    0.56
   7   1   2   -0.26    0.42
  -7   1  -2    0.06    0.53
  -7   1  -2    0.29    0.55
   7  -2  -2    5.69    1.44
  -7  -2   2    4.43    1.32
   7   2  -2    6.08    1.61
  -6  -2   2    0.83    0.61
   6  -2  -2    0.30    0.70
   6  -2  -2    2.13    0.90
  -6   2   2    1.49    0.79
  -6   2   2    1.94    0.80
   6   2  -2    1.60    0.85
   5  -2  -2    0.76    0.45
   5  -2  -2    0.26    0.42
  -5  -2   2    1.41    0.60
  -5  -2   2    1.21    0.50
  -5  -2   2    0.61    0.53
   5   2  -2    0.88    0.56
  -5   2   2    0.33    0.49
  -5   2   2    1.16    0.55
   5   2  -2    0.82    0.48
  -5   2   2    1.02    0.63
  -4  -2   2   10.88    1.25
   4  -2  -2   13.98    1.57
   4  -2  -2   13.46    1.37
  -4  -2   2   10.94    1.35
   4  -2  -2   12.64    1.18
   4   2  -2    9.97    1.24
  -4   2   2   11.67    1.16
  -4   2   2   12.95    1.42
  -4   2   2    9.96    1.24
   4   2  -2   10.78    1.28
  -3  -2   2  183.53    6.93
   3  -2  -2  172.53    6.61
  -3  -2   2  182.49    6.35
  -3  -2   2  182.15    6.65
   3  -2  -2  176.90    6.97
  -3   2   2  174.81    6.77
  -3   2   2  179.05    6.71
  -3   2   2  185.17    6.00
   3   2  -2  183.30    6.69
   3   2  -2  180.65    6.79
   3   2  -2  190.84    5.95
  -3   2   2  177.70    6.38
  -2  -2   2    7.85    0.93
  -2  -2   2    6.92    0.81
   2  -2  -2    7.19    0.79
   2  -2  -2    6.83    0.78
   2  -2  -2    7.92    0.90
   2  -2  -2    6.14    0.81
  -2  -2   2    8.30    0.71
   2  -2  -2    8.28    0.86
  -2   2   2    6.90    0.67
  -2   2   2    8.24    0.84
  -2   2   2    8.02    0.82
  -2   2   2    8.88    0.81
   2   2  -2    6.61    0.83
   2   2  -2    7.86    0.75
   1  -2  -2  126.49    4.46
  -1  -2   2  129.11    4.25
   1  -2  -2  125.40    4.61
  -1  -2   2  122.38    4.69
   1  -2  -2  120.84    4.47
   1  -2  -2  121.01    4.46
  -1  -2   2  124.68    4.57
   1   2  -2  126.29    4.13
  -1   2   2  122.78    4.42
   1   2  -2  123.17    4.61
  -1   2   2  122.82    4.53
   1   2  -2  124.12    4.37
  -1   2   2  125.28    4.40
   0  -2  -2   31.43    1.70
   0  -2   2   32.43    1.52
   0  -2  -2   32.46    1.71
   0  -2   2   32.37    1.75
   0  -2  -2   29.37    1.35
   0  -2   2   29.31    1.65
   0  -2  -2   29.41    1.62
   0   2   2   33.81    1.35
   0   2   2   30.95    1.65
   0   2   2   30.35    1.56
   0   2  -2   28.75    1.56
   0   2  -2   29.72    1.53
  -1  -2  -2  239.97    8.43
   1  -2   2  261.69    8.47
   1  -2   2  240.06    8.44
  -1  -2  -2  254.40    8.24
  -1  -2  -2  258.18    7.92
   1  -2   2  255.75    7.56
  -1   2  -2  246.64    7.91
   1   2   2  253.86    8.32
   1   2   2  253.89    7.65
  -1   2  -2  256.39    8.33
   1   2   2  244.17    8.21
  -1   2  -2  258.88    8.18
  -2  -2  -2    7.53    0.75
   2  -2   2    8.07    0.96
   2  -2   2    6.12    0.60
  -2  -2  -2    7.02    0.89
  -2  -2  -2    7.35    0.72
   2  -2   2    7.87    0.94
  -2   2  -2    6.82    0.50
   2   2   2    7.83    0.64
  -2   2  -2    7.27    0.84
   2   2   2    8.43    0.86
   2   2   2    8.28    0.91
  -2   2  -2    7.75    0.76
   3  -2   2  155.80    6.44
  -3  -2  -2  162.22    5.68
  -3  -2  -2  161.87    6.36
   3  -2   2  165.22    6.59
   3   2   2  163.89    5.98
  -3   2  -2  153.79    6.17
   3   2   2  160.97    5.71
  -3   2  -2  161.58    5.63
  -3   2  -2  155.25    6.16
   3   2   2  163.33    6.24
  -4  -2  -2    1.39    0.66
  -4  -2  -2    1.46    0.59
   4  -2   2    1.37    0.70
   4  -2   2    1.22    0.69
   4  -2   2    2.87    0.75
   4   2   2    1.58    0.68
  -4   2  -2    1.26    0.60
  -4   2  -2    0.23    0.33
   4   2   2    1.73    0.66
  -5  -2  -2    0.25    0.39
  -5  -2  -2   -0.12    0.41
   5  -2   2    0.48    0.52
   5  -2   2    0.37    0.44
  -5   2  -2    0.12    0.42
   5   2   2    0.09    0.39
  -5   2  -2    0.54    0.48
  -6  -2  -2    2.03    0.97
  -6  -2  -2    5.10    1.27
   6  -2   2    3.77    1.06
   6  -2   2    2.14    1.01
  -6   2  -2    3.64    1.16
   6   2   2    1.95    0.85
  -6   2  -2    3.52    1.14
   6  -3  -2    0.48    0.65
   6  -3  -2    1.26    0.82
  -6  -3   2    0.34    0.54
  -6   3   2    0.68    0.56
  -6   3   2    0.26    0.49
   6   3  -2    1.03    0.73
   6   3  -2    0.29    0.51
  -5  -3   2   15.63    1.82
  -5  -3   2   16.77    1.82
   5  -3  -2   12.14    1.74
   5  -3  -2    9.87    1.70
  -5   3   2   16.58    1.89
   5   3  -2   15.39    1.77
  -5   3   2   13.82    1.68
   5   3  -2   16.20    1.78
  -5   3   2   11.83    1.56
   4  -3  -2    0.45    0.46
  -4  -3   2    1.03    0.56
  -4  -3   2    0.50    0.48
   4  -3  -2    1.45    0.70
   4   3  -2    0.33    0.48
  -4   3   2    0.90    0.58
  -4   3   2    1.01    0.50
  -4   3   2    1.32    0.62
   4   3  -2    1.23    0.62
  -3  -3   2    5.10    1.04
   3  -3  -2    3.05    0.77
  -3  -3   2    3.75    0.89
   3  -3  -2    3.59    0.90
   3  -3  -2    4.64    1.03
  -3   3   2    5.95    1.00
   3   3  -2    3.96    0.75
  -3   3   2    4.77    0.89
  -3   3   2    4.51    0.76
   3   3  -2    4.15    0.84
   3   3  -2    6.06    1.13
  -3   3   2    3.50    0.80
  -3   3   2    3.09    0.78
   2  -3  -2    7.40    0.86
  -2  -3   2    8.96    1.06
  -2  -3   2    6.95    0.63
   2  -3  -2    6.49    0.83
   2  -3  -2    6.92    0.94
   2  -3  -2    7.69    0.92
   2  -3  -2    6.43    0.86
  -2  -3   2    7.91    1.03
   2  -3  -2    6.63    0.96
   2   3  -2    6.31    0.74
  -2   3   2    7.99    0.89
  -2   3   2    6.84    0.80
  -2   3   2    7.24    0.82
  -2   3   2    7.26    0.86
  -2   3   2    6.45    0.77
  -2   3   2    6.51    0.80
   2   3  -2    6.70    0.77
   2   3  -2    7.54    1.00
   1  -3  -2   15.11    1.11
   1  -3  -2   16.73    1.33
  -1  -3   2   15.91    0.90
   1  -3  -2   12.39    1.13
  -1  -3   2   16.67    1.36
  -1  -3   2   12.48    1.21
  -1   3   2   15.70    1.26
  -1   3   2   13.15    1.04
   1   3  -2   14.72    1.18
  -1   3   2   15.82    1.10
   1   3  -2   14.51    0.92
  -1   3   2   16.27    1.22
   1   3  -2   12.53    1.23
   0  -3   2    2.43    0.47
   0  -3   2    1.31    0.49
   0  -3  -2    1.92    0.58
   0  -3   2    1.93    0.61
   0  -3  -2    1.82    0.46
   0  -3  -2    2.19    0.59
   0   3  -2    2.74    0.26
   0   3   2    2.72    0.65
   0   3  -2    3.22    0.69
   0   3  -2    1.85    0.51
   0   3   2    2.71    0.35
   0   3   2    2.24    0.52
   1  -3   2    4.79    0.94
  -1  -3  -2    4.43    0.84
  -1  -3  -2    6.01    0.67
   1  -3   2    5.54    1.01
  -1  -3  -2    5.47    0.85
   1   3   2    5.05    0.70
  -1   3  -2    6.24    0.71
  -1   3  -2    5.68    0.78
   1   3   2    3.25    0.72
  -1   3  -2    5.56    0.76
   2  -3   2   35.96    2.35
   2  -3   2   36.88    2.38
  -2  -3  -2   36.72    2.38
   2  -3   2   33.21    2.22
  -2  -3  -2   31.83    1.99
  -2  -3  -2   34.76    1.91
   2  -3   2   36.67    1.63
   2   3   2   34.67    2.18
   2   3   2   36.59    2.18
  -2   3  -2   35.23    2.17
  -2   3  -2   35.40    1.72
  -2   3  -2   35.35    2.00
   3  -3   2   17.60    1.77
   3  -3   2   18.71    1.35
  -3  -3  -2   17.85    1.71
  -3  -3  -2   19.37    1.47
   3  -3   2   20.34    1.84
  -3   3  -2   18.44    1.61
  -3   3  -2   19.85    1.47
   3   3   2   20.02    1.69
   3   3   2   16.33    1.52
   4  -3   2   22.08    2.17
  -4  -3  -2   24.21    1.89
   4  -3   2   28.69    2.40
  -4  -3  -2   21.24    2.08
  -4   3  -2   20.34    1.93
   4   3   2   25.46    1.98
  -4   3  -2   24.94    2.12
   4   3   2   21.08    1.91
   5  -3   2   19.57    2.22
  -5  -3  -2   18.18    1.82
  -5  -3  -2   20.60    2.14
   5  -3   2   23.00    2.43
  -5   3  -2   19.77    1.98
   5   3   2   19.16    1.77
  -5   3  -2   19.00    2.00
   5   3   2   17.38    2.00
   6  -3   2   -0.36    0.65
  -6  -3  -2    0.29    0.61
   6   3   2    0.30    0.57
  -6   3  -2    0.25    0.51
  -6   3  -2    0.93    0.64
   6  -4  -2    0.15    0.68
  -6  -4   2    0.26    0.59
   6   4  -2   -0.26    0.65
   6   4  -2    0.32    0.53
  -6   4   2    0.56    0.74
  -6   4   2   -0.04    0.49
   5  -4  -2    2.78    1.00
  -5  -4   2    3.01    1.01
  -5  -4   2    1.54    0.85
   5   4  -2    3.49    1.04
   5   4  -2    4.14    1.12
  -5   4   2    2.48    0.96
  -5   4   2    2.69    0.94
  -4  -4   2    0.37    0.51
  -4  -4   2    0.25    0.44
   4  -4  -2    0.64    0.59
   4  -4  -2   -0.18    0.40
   4  -4  -2    0.03    0.33
  -4   4   2   -0.20    0.36
   4   4  -2   -0.01    0.43
   4   4  -2    0.06    0.40
  -4   4   2   -0.29    0.28
  -4   4   2   -0.04    0.32
  -3  -4   2    0.15    0.38
   3  -4  -2   -0.05    0.32
   3  -4  -2    0.13    0.41
   3  -4  -2    0.34    0.45
  -3  -4   2   -0.06    0.47
   3  -4  -2    0.38    0.48
  -3   4   2   -0.09    0.25
  -3   4   2   -0.08    0.21
   3   4  -2   -0.01    0.30
  -3   4   2   -0.24    0.25
  -3   4   2   -0.09    0.37
   3   4  -2   -0.17    0.34
  -3   4   2   -0.38    0.23
  -2  -4   2   -0.12    0.31
   2  -4  -2    0.55    0.49
   2  -4  -2   -0.20    0.27
  -2  -4   2   -0.02    0.28
   2  -4  -2   -0.14    0.31
  -2   4   2   -0.07    0.22
  -2   4   2    0.40    0.37
   2   4  -2    0.67    0.48
  -2   4   2    0.35    0.35
  -2   4   2    0.85    0.47
  -2   4   2   -0.04    0.25
   2   4  -2    0.94    0.48
   1  -4  -2    0.35    0.33
  -1  -4   2    0.84    0.46
   1  -4  -2    0.58    0.43
   1  -4  -2    0.45    0.36
  -1  -4   2    1.22    0.55
  -1   4   2    1.27    0.50
   1   4  -2    0.36    0.37
  -1   4   2    1.10    0.39
  -1   4   2    0.82    0.47
   1   4  -2    1.42    0.57
   0  -4  -2    9.74    1.01
   0  -4   2   10.69    1.27
   0  -4  -2    8.67    1.16
   0  -4  -2   12.98    1.30
   0  -4   2    7.86    1.12
   0   4   2    8.79    1.11
   0   4  -2   12.96    1.25
   0   4   2    8.74    1.07
   0   4   2   10.13    1.01
   0   4  -2    9.61    1.13
   1  -4   2    0.11    0.25
  -1  -4  -2   -0.06    0.21
  -1  -4  -2    0.28    0.33
   1  -4   2   -0.39    0.25
   1  -4   2   -0.18    0.24
  -1  -4  -2    0.44    0.46
  -1   4  -2    0.33    0.30
  -1   4  -2   -0.01    0.25
   1   4   2   -0.03    0.30
  -1   4  -2   -0.04    0.23
   1   4   2   -0.22    0.27
   1   4   2    0.42    0.33
  -2  -4  -2   13.92    1.37
   2  -4   2   10.94    1.43
   2  -4   2   10.74    1.24
  -2  -4  -2   12.33    1.16
  -2  -4  -2   11.19    1.44
   2  -4   2   15.34    1.60
  -2   4  -2   12.66    1.27
   2   4   2   10.89    1.21
   2   4   2   12.83    1.41
  -2   4  -2   11.44    1.32
   2   4   2   13.87    1.32
   3  -4   2   -0.17    0.40
  -3  -4  -2    0.08    0.42
  -3  -4  -2    0.33    0.40
   3  -4   2   -0.09    0.32
   3   4   2   -0.28    0.33
  -3   4  -2    0.10    0.38
  -3   4  -2   -0.01    0.36
   3   4   2    0.14    0.28
   3   4   2   -0.26    0.27
  -4  -4  -2    0.22    0.47
   4  -4   2    0.47    0.46
   4  -4   2   -0.11    0.40
   4   4   2   -0.08    0.43
  -4   4  -2    0.10    0.40
   4   4   2    0.19    0.44
  -4   4  -2   -0.16    0.41
   5  -4   2    0.31    0.55
  -5  -4  -2   -0.32    0.49
   5  -4   2    0.00    0.56
   5   4   2    0.19    0.52
   5   4   2    0.23    0.52
  -5   4  -2   -0.39    0.45
  -5   4  -2   -0.32    0.36
  -5  -5   2    7.61    1.76
   5  -5  -2    5.22    1.48
  -5  -5   2    8.77    1.92
  -5   5   2    4.85    1.37
  -5   5   2    6.59    1.58
   5   5  -2    4.36    1.32
   4  -5  -2    0.63    0.68
  -4  -5   2    1.26    0.74
   4  -5  -2    0.89    0.63
  -4  -5   2    3.04    1.14
   4   5  -2    1.30    0.67
  -4   5   2    0.54    0.53
  -4   5   2    0.25    0.51
  -3  -5   2   12.08    1.56
   3  -5  -2   10.23    1.45
  -3  -5   2   11.71    1.61
   3  -5  -2   12.32    1.69
  -3   5   2   10.04    1.34
   3   5  -2   10.96    1.33
   3   5  -2   14.61    1.75
  -3   5   2    9.55    1.44
  -3   5   2   13.28    1.43
   2  -5  -2    2.18    0.90
  -2  -5   2    3.58    1.01
  -2  -5   2    3.75    1.10
   2  -5  -2    2.79    0.82
  -2   5   2    1.63    0.66
  -2   5   2    3.29    0.87
   2   5  -2    1.53    0.74
  -2   5   2    3.77    0.97
   2   5  -2    3.65    1.00
   1  -5  -2    2.06    0.80
   1  -5  -2    3.44    0.91
  -1  -5   2    2.43    0.86
   1  -5  -2    2.39    0.80
  -1  -5   2    3.19    0.90
   1   5  -2    2.54    0.83
   1   5  -2    3.13    0.94
  -1   5   2    2.35    0.77
  -1   5   2    2.37    0.74
   0  -5  -2    9.85    1.27
   0  -5   2   11.37    1.43
   0  -5   2    9.90    1.41
   0  -5  -2    9.63    1.37
   0   5  -2   10.82    1.30
   0   5   2    9.43    1.24
   0   5  -2   11.88    1.36
   0   5   2    9.44    1.33
  -1  -5  -2    0.10    0.40
   1  -5   2    0.17    0.44
  -1  -5  -2   -0.40    0.39
   1  -5   2    0.45    0.52
  -1   5  -2   -0.23    0.29
  -1   5  -2   -0.07    0.32
   1   5   2    0.56    0.46
  -1   5  -2   -0.19    0.31
   1   5   2   -0.06    0.34
  -2  -5  -2    6.62    1.48
   2  -5   2    5.04    1.36
   2  -5   2    8.45    1.55
  -2  -5  -2    7.59    1.39
   2   5   2    7.65    1.33
   2   5   2    6.85    1.38
  -2   5  -2    6.32    1.25
  -2   5  -2    9.33    1.31
  -3  -5  -2    2.23    0.75
   3  -5   2    1.36    0.87
  -3  -5  -2    1.34    0.80
   3  -5   2    1.14    0.71
   3   5   2    2.61    1.02
  -3   5  -2    2.62    0.91
  -3   5  -2    0.49    0.61
   3   5   2    2.26    0.79
   3   5   2    2.53    0.82
   4  -5   2    0.59    0.66
   4  -5   2    2.55    1.01
  -4  -5  -2    0.72    0.61
  -4   5  -2    0.34    0.55
   4   5   2    1.30    0.72
  -4   5  -2    0.18    0.53
   4   5   2    0.73    0.57
   5  -5   2    1.68    0.91
  -5  -5  -2    3.21    1.36
   5  -5   2    0.58    0.86
  -5   5  -2    1.50    0.82
   5   5   2    0.69    0.72
  -5   5  -2    1.01    0.84
   5   5   2    1.26    0.84
  -3  -6   2   -0.07    0.42
   3  -6  -2    0.59    0.65
  -3  -6   2    0.69    0.67
  -3   6   2    0.17    0.53
   3   6  -2    0.21    0.48
  -3   6   2    0.01    0.51
   3   6  -2   -0.15    0.40
  -2  -6   2    0.66    0.72
  -2  -6   2    0.97    0.73
   2  -6  -2    2.39    1.02
  -2   6   2    3.16    0.97
  -2   6   2    3.13    1.03
   2   6  -2    1.71    0.84
   2   6  -2    1.27    0.69
   1  -6  -2    0.53    0.58
  -1  -6   2    2.15    0.97
  -1  -6   2    0.42    0.53
   1   6  -2    1.61    0.69
  -1   6   2    0.31    0.64
  -1   6   2    0.67    0.64
   1   6  -2    1.48    0.71
   0  -6  -2    2.99    1.01
   0  -6   2    1.69    0.83
   0  -6  -2    1.76    0.93
   0  -6   2    1.79    0.88
   0   6   2    1.66    0.77
   0   6   2    1.05    0.69
   0   6  -2    0.74    0.56
   0   6  -2    1.16    0.71
   1  -6   2    3.42    1.12
  -1  -6  -2    3.40    1.06
   1  -6   2    1.94    0.93
  -1  -6  -2    4.06    1.20
   1   6   2    4.29    1.08
   1   6   2    3.32    1.13
  -1   6  -2    6.05    1.40
  -1   6  -2    4.01    1.14
  -2  -6  -2    1.13    0.71
  -2  -6  -2    0.41    0.67
   2  -6   2    0.08    0.61
   2  -6   2    0.18    0.64
  -2   6  -2   -0.05    0.52
   2   6   2    0.04    0.52
  -2   6  -2   -0.08    0.38
   2   6   2   -0.38    0.45
  -3  -6  -2    0.96    0.83
   3  -6   2    0.07    0.56
  -3  -6  -2    1.51    0.80
   3   6   2    1.28    0.76
   3   6   2    2.21    0.83
  -3   6  -2    1.11    0.68
  -3   6  -2    1.00    0.69
   1  -7  -2    5.08    1.66
  -1  -7   2    1.54    1.02
  -1  -7   2    2.38    0.95
   1   7  -2    2.83    0.98
   1   7  -2    5.11    1.48
  -1   7   2    1.72    0.72
  -1   7   2    3.74    1.14
   0  -7   2    0.08    0.57
   0  -7  -2    0.50    0.65
   0  -7   2    0.42    0.71
   0   7   2   -0.27    0.47
   0   7   2    0.53    0.60
   0   7  -2   -0.10    0.51
   0   7  -2   -0.10    0.56
   1  -7   2    0.27    0.68
   1   7   2    0.71    0.64
   1   7   2    0.89    1.01
   7   0  -3    0.44    0.69
   7   0  -3    1.05    0.83
  -7   0   3    1.74    0.90
  -7   0   3    1.46    0.87
   6   0  -3    0.26    0.44
  -6   0   3    0.27    0.58
  -6   0   3    0.12    0.52
   6   0  -3    0.40    0.55
  -5   0   3   11.81    1.45
  -5   0   3   14.96    1.67
   5   0  -3   15.07    1.57
   5   0  -3   16.04    1.68
   5   0  -3   15.25    1.72
   4   0  -3   -0.33    0.23
  -4   0   3   -0.17    0.20
   4   0  -3   -0.05    0.28
  -4   0   3    0.21    0.33
   4   0  -3    0.00    0.32
  -4   0   3    0.17    0.28
  -3   0   3  113.84    4.66
   3   0  -3  114.79    4.79
   3   0  -3  121.29    4.57
  -3   0   3  118.29    4.19
   3   0  -3  122.59    4.72
  -3   0   3  104.03    4.61
  -2   0   3    0.00    0.23
  -2   0   3   -0.03    0.12
   2   0  -3   -0.09    0.21
   2   0  -3   -0.17    0.14
  -2   0   3    0.18    0.24
   2   0  -3   -0.07    0.21
  -1   0   3  422.36   13.48
   1   0  -3  435.58   13.45
  -1   0   3  444.72   13.29
   1   0  -3  445.88   13.36
   0   0  -3    0.22    0.21
   0   0  -3    0.00    0.26
   0   0   3    0.27    0.22
   0   0   3    0.35    0.28
   0   0  -3   -0.03    0.13
   0   0   3   -0.17    0.14
  -1   0  -3  235.34    7.75
   1   0   3  244.74    7.70
  -1   0  -3  237.28    7.74
  -1   0  -3  250.26    7.51
   1   0   3  246.50    7.97
   1   0   3  249.01    7.61
  -2   0  -3   -0.25    0.20
  -2   0  -3   -0.02    0.17
   2   0   3   -0.11    0.21
   2   0   3   -0.14    0.20
   2   0   3    0.07    0.11
  -2   0  -3   -0.12    0.18
   2   0   3   -0.19    0.19
   3   0   3    1.44    0.49
  -3   0  -3    1.93    0.62
  -3   0  -3    1.57    0.44
   3   0   3    1.41    0.55
   3   0   3    1.86    0.26
  -3   0  -3    1.18    0.43
  -4   0  -3    0.38    0.28
   4   0   3   -0.13    0.24
  -4   0  -3    0.32    0.36
   4   0   3    0.05    0.34
   5   0   3    2.75    0.81
   5   0   3    1.26    0.66
  -5   0  -3    1.71    0.66
  -5   0  -3    2.29    0.83
   6   0   3   -0.10    0.53
   6   0   3    0.13    0.46
  -6   0  -3   -0.14    0.42
  -6   0  -3    0.20    0.44
  -7   0  -3    1.10    0.82
   7   0   3    0.11    0.62
   7   0   3   -0.07    0.51
  -7   0  -3    0.22    0.52
   7  -1  -3    1.50    1.06
   7  -1  -3    0.58    0.68
  -7  -1   3    0.66    0.66
  -7  -1   3    0.23    0.56
  -7   1   3    0.94    0.64
   7   1  -3   -0.42    0.51
  -7   1   3    0.88    0.75
  -6  -1   3    2.56    0.99
   6  -1  -3    2.91    1.07
   6  -1  -3    4.08    1.20
  -6  -1   3    2.59    0.88
  -6   1   3    2.03    0.87
  -6   1   3    3.99    1.17
   6   1  -3    5.75    1.49
  -5  -1   3    5.90    1.20
   5  -1  -3    5.17    1.25
  -5  -1   3    8.62    1.28
   5  -1  -3    5.38    1.18
   5   1  -3    4.07    1.09
   5   1  -3    6.02    1.21
   5   1  -3    7.34    1.40
  -5   1   3    7.78    1.50
  -5   1   3    4.86    1.13
   4  -1  -3   14.17    1.43
  -4  -1   3   11.09    1.22
  -4  -1   3   14.73    1.26
   4  -1  -3   11.21    1.39
  -4  -1   3   15.62    1.54
  -4   1   3   14.22    1.20
   4   1  -3   11.49    1.28
  -4   1   3   15.02    1.50
  -4   1   3   11.62    1.29
   4   1  -3   11.95    1.33
   3  -1  -3   21.58    1.69
  -3  -1   3   21.36    1.50
   3  -1  -3   22.31    1.01
  -3  -1   3   23.54    1.67
   3  -1  -3   22.97    1.62
  -3  -1   3   21.99    1.37
   3  -1  -3   21.09    1.49
  -3   1   3   20.50    0.96
  -3   1   3   16.46    1.39
   3   1  -3   21.97    1.58
  -3   1   3   20.92    1.62
   3   1  -3   20.13    0.92
   3   1  -3   17.12    1.43
  -3   1   3   20.77    1.22
  -2  -1   3    2.14    0.41
   2  -1  -3    1.38    0.45
  -2  -1   3    1.98    0.50
   2  -1  -3    1.40    0.48
  -2  -1   3    1.18    0.44
   2  -1  -3    1.04    0.41
   2  -1  -3    2.12    0.39
   2   1  -3    2.15    0.50
  -2   1   3    1.41    0.31
  -2   1   3    0.75    0.37
  -2   1   3    1.39    0.41
   2   1  -3    1.86    0.33
   2   1  -3    1.21    0.48
  -1  -1   3   -0.01    0.24
  -1  -1   3    0.06    0.16
   1  -1  -3    0.65    0.29
   1  -1  -3    0.54    0.34
  -1  -1   3    0.21    0.26
   1  -1  -3    0.20    0.16
   1  -1  -3    0.02    0.22
  -1   1   3    0.35    0.26
   1   1  -3    0.55    0.31
  -1   1   3    0.24    0.16
   1   1  -3    0.03    0.20
   1   1  -3    0.04    0.17
  -1   1   3   -0.02    0.24
   0  -1   3  173.83    5.89
   0  -1   3  182.45    5.76
   0  -1   3  175.10    5.94
   0  -1   3  176.99    5.38
   0  -1  -3  174.32    5.91
   0  -1  -3  178.55    5.82
   0   1  -3  176.43    5.77
   0   1  -3  166.39    5.70
   0   1   3  170.99    5.81
   0   1   3  184.00    5.84
   1  -1   3  133.89    4.78
   1  -1   3  131.62    4.90
   1  -1   3  131.93    4.33
  -1  -1  -3  136.49    4.77
  -1  -1  -3  134.78    4.17
  -1  -1  -3  132.93    4.67
  -1  -1  -3  133.01    4.65
   1   1   3  132.50    4.63
  -1   1  -3  137.52    4.66
   1   1   3  131.42    4.72
  -1   1  -3  133.76    4.65
  -1   1  -3  135.86    4.26
   1   1   3  136.44    4.59
   2  -1   3    2.72    0.64
  -2  -1  -3    2.94    0.40
   2  -1   3    3.06    0.69
  -2  -1  -3    3.38    0.62
  -2  -1  -3    2.46    0.62
   2   1   3    3.27    0.66
  -2   1  -3    1.84    0.49
  -2   1  -3    2.45    0.58
   2   1   3    2.29    0.60
  -3  -1  -3   38.35    1.93
   3  -1   3   36.90    2.06
   3  -1   3   40.00    2.41
   3  -1   3   38.70    2.51
  -3  -1  -3   36.83    2.29
  -3   1  -3   40.00    2.22
   3   1   3   37.21    2.25
   3   1   3   38.11    2.19
  -3   1  -3   41.55    2.29
  -3   1  -3   36.88    1.93
   3   1   3   42.23    1.94
   4  -1   3   29.43    1.96
  -4  -1  -3   27.09    2.10
   4  -1   3   23.18    2.10
  -4  -1  -3   26.85    1.85
   4   1   3   23.17    1.91
  -4   1  -3   31.19    2.20
   4   1   3   29.98    2.10
  -4   1  -3   32.17    2.16
   5  -1   3   -0.16    0.39
  -5  -1  -3    0.01    0.30
   5  -1   3    0.54    0.45
  -5  -1  -3   -0.16    0.33
   5   1   3    0.09    0.44
   5   1   3   -0.13    0.32
  -5   1  -3   -0.35    0.39
  -5   1  -3    0.23    0.43
  -6  -1  -3    8.47    1.56
   6  -1   3   10.36    1.76
   6  -1   3    4.82    1.33
  -6  -1  -3    9.95    1.85
  -6   1  -3    8.03    1.64
   6   1   3    6.80    1.46
   6   1   3    7.85    1.51
  -6   1  -3    8.34    1.63
  -7  -1  -3    1.59    1.00
  -7  -1  -3    1.01    0.79
   7  -1   3    2.76    1.11
   7  -1   3    0.89    0.64
  -7   1  -3    0.76    0.81
  -7   1  -3    1.34    0.80
   7   1   3    1.63    1.44
  -6  -2   3    0.82    0.68
   6  -2  -3   -0.33    0.29
   6  -2  -3   -0.05    0.48
   6   2  -3   -0.24    0.54
  -6   2   3    0.14    0.46
  -6   2   3   -0.26    0.45
   6   2  -3    0.02    0.47
  -5  -2   3   25.72    2.03
   5  -2  -3   18.75    2.10
   5  -2  -3   23.60    2.11
  -5  -2   3   25.53    2.32
  -5   2   3   28.24    2.28
   5   2  -3   23.68    2.12
   5   2  -3   24.73    2.12
  -5   2   3   23.84    2.24
  -4  -2   3   10.93    1.17
   4  -2  -3    9.11    1.19
   4  -2  -3   10.20    1.38
  -4  -2   3   10.79    1.35
   4   2  -3    9.88    1.18
   4   2  -3    9.59    1.24
  -4   2   3   12.45    1.35
  -4   2   3    7.48    1.15
  -4   2   3   10.55    1.05
   3  -2  -3    4.61    0.59
   3  -2  -3    7.83    0.94
   3  -2  -3    4.50    0.97
  -3  -2   3    5.66    0.79
  -3  -2   3    3.48    0.88
   3  -2  -3    7.97    1.01
   3   2  -3    4.15    0.90
  -3   2   3    5.60    1.04
   3   2  -3    4.89    0.55
  -3   2   3    4.45    0.62
  -3   2   3    5.24    0.58
   3   2  -3    4.89    0.85
  -3   2   3    6.08    0.83
  -2  -2   3   63.61    2.73
   2  -2  -3   64.56    3.11
   2  -2  -3   63.41    2.92
  -2  -2   3   60.92    2.80
  -2  -2   3   61.78    3.05
   2  -2  -3   59.77    2.89
   2  -2  -3   61.36    3.01
  -2   2   3   66.41    2.90
  -2   2   3   60.36    2.72
   2   2  -3   57.75    2.93
  -2   2   3   64.23    2.95
  -2   2   3   61.36    2.58
   2   2  -3   64.43    2.67
   1  -2  -3   29.30    1.74
  -1  -2   3   23.68    1.63
   1  -2  -3   26.28    1.41
   1  -2  -3   25.87    1.50
  -1  -2   3   25.32    1.45
  -1  -2   3   26.07    1.51
   1  -2  -3   27.69    1.61
   1   2  -3   25.25    1.43
  -1   2   3   27.81    1.33
  -1   2   3   27.78    1.54
   1   2  -3   27.10    1.24
   1   2  -3   26.73    1.60
  -1   2   3   26.79    1.55
   0  -2  -3    0.10    0.27
   0  -2   3    0.15    0.23
   0  -2   3   -0.06    0.24
   0  -2  -3    0.07    0.24
   0  -2  -3    0.02    0.25
   0  -2  -3    0.00    0.12
   0   2   3   -0.16    0.19
   0   2  -3   -0.06    0.24
   0   2   3    0.31    0.26
   0   2  -3    0.06    0.22
   0   2   3   -0.02    0.13
   1  -2   3   -0.04    0.27
   1  -2   3    0.11    0.27
  -1  -2  -3   -0.10    0.09
  -1  -2  -3   -0.15    0.19
   1  -2   3    0.02    0.21
  -1  -2  -3    0.05    0.26
   1  -2   3    0.15    0.09
   1   2   3    0.09    0.15
   1   2   3   -0.03    0.23
   1   2   3    0.48    0.31
  -1   2  -3    0.29    0.26
  -1   2  -3    0.00    0.20
  -1   2  -3   -0.01    0.15
  -2  -2  -3   37.65    2.23
   2  -2   3   38.59    1.64
  -2  -2  -3   37.68    2.01
  -2  -2  -3   34.89    1.69
   2  -2   3   35.63    2.26
   2  -2   3   33.79    2.17
   2   2   3   38.56    2.01
   2   2   3   35.16    2.09
  -2   2  -3   33.24    1.84
  -2   2  -3   36.53    2.06
   2   2   3   36.05    1.74
  -2   2  -3   35.64    1.38
   3  -2   3   34.95    2.41
  -3  -2  -3   37.65    2.03
  -3  -2  -3   35.80    2.36
   3  -2   3   38.99    2.60
   3  -2   3   35.09    1.87
  -3  -2  -3   37.29    1.97
   3   2   3   34.44    1.95
   3   2   3   38.38    2.08
  -3   2  -3   35.95    1.95
  -3   2  -3   30.66    2.13
   3   2   3   36.97    2.32
  -3   2  -3   30.94    2.18
  -4  -2  -3    1.24    0.65
   4  -2   3    0.81    0.62
   4  -2   3    0.91    0.38
   4  -2   3    1.33    0.65
  -4  -2  -3    2.16    0.71
  -4   2  -3    0.89    0.52
   4   2   3    1.02    0.50
  -4   2  -3    1.15    0.57
   5  -2   3   12.56    1.37
   5  -2   3   14.18    1.87
  -5  -2  -3   14.13    1.51
  -5  -2  -3   17.82    1.96
  -5   2  -3   13.41    1.62
  -5   2  -3   19.01    1.91
   5   2   3   19.09    1.93
  -6  -2  -3    3.39    1.15
   6  -2   3    2.04    0.87
   6  -2   3    1.99    0.97
  -6   2  -3    2.00    0.85
  -6   2  -3    4.16    1.28
   6   2   3    3.60    1.03
   6  -3  -3    0.04    0.51
   6  -3  -3    0.25    0.70
  -6  -3   3   -0.03    0.54
  -6   3   3    0.56    0.61
  -6   3   3    0.00    0.45
   6   3  -3   -0.26    0.40
   6   3  -3    0.03    0.62
   5  -3  -3    3.33    1.16
  -5  -3   3    2.68    1.01
   5  -3  -3    0.89    0.59
  -5   3   3    1.47    0.74
   5   3  -3    2.24    0.97
  -5   3   3    1.90    0.75
   5   3  -3    2.04    0.82
  -4  -3   3    1.18    0.52
   4  -3  -3    0.85    0.54
  -4  -3   3    0.95    0.56
   4  -3  -3    0.91    0.59
  -4   3   3    0.97    0.52
  -4   3   3    0.52    0.47
   4   3  -3    0.54    0.46
   4   3  -3    0.12    0.46
  -4   3   3    1.02    0.51
   3  -3  -3   29.79    2.04
  -3  -3   3   30.51    2.24
   3  -3  -3   31.41    2.24
  -3  -3   3   30.20    2.10
   3  -3  -3   29.17    2.04
  -3   3   3   29.68    1.73
  -3   3   3   26.37    1.90
  -3   3   3   23.49    1.94
   3   3  -3   24.29    2.04
  -3   3   3   26.45    1.88
   3   3  -3   28.30    1.89
  -3   3   3   27.12    1.81
   3   3  -3   29.62    1.70
  -3   3   3   27.24    1.93
   2  -3  -3    2.96    0.75
   2  -3  -3    0.99    0.48
  -2  -3   3    2.50    0.54
   2  -3  -3    2.42    0.65
   2  -3  -3    1.72    0.54
   2  -3  -3    1.98    0.61
  -2  -3   3    2.65    0.72
   2  -3  -3    2.70    0.67
  -2  -3   3    2.30    0.71
  -2   3   3    2.24    0.69
   2   3  -3    2.10    0.65
  -2   3   3    2.99    0.68
   2   3  -3    2.38    0.53
  -2   3   3    2.77    0.65
  -2   3   3    2.27    0.58
   2   3  -3    1.84    0.55
  -2   3   3    1.28    0.43
  -2   3   3    3.30    0.69
  -1  -3   3    5.84    0.65
   1  -3  -3    8.08    0.81
   1  -3  -3    6.88    0.85
   1  -3  -3    4.87    0.89
  -1  -3   3    5.69    0.84
   1  -3  -3    4.54    0.92
  -1  -3   3    6.42    0.86
  -1   3   3    4.93    0.64
   1   3  -3    5.25    0.89
  -1   3   3    6.72    0.80
   1   3  -3    7.24    0.56
   1   3  -3    6.42    0.87
  -1   3   3    8.29    0.94
   0  -3  -3    2.46    0.66
   0  -3  -3    3.03    0.54
   0  -3   3    2.83    0.72
   0  -3  -3    3.40    0.75
   0  -3   3    3.20    0.63
   0  -3   3    3.58    0.82
   0   3   3    4.45    0.50
   0   3   3    2.28    0.57
   0   3   3    1.70    0.56
   0   3  -3    2.09    0.56
   0   3  -3    2.34    0.61
   1  -3   3   15.36    1.42
  -1  -3  -3   13.06    1.25
   1  -3   3   16.34    1.47
  -1  -3  -3   14.04    0.94
  -1  -3  -3   14.03    1.35
   1  -3   3   13.50    1.21
  -1   3  -3   14.87    1.24
  -1   3  -3   13.03    1.04
   1   3   3   11.90    1.12
   1   3   3   11.44    1.17
  -1   3  -3   13.12    1.18
   2  -3   3    0.53    0.40
  -2  -3  -3    0.03    0.25
   2  -3   3   -0.20    0.19
  -2  -3  -3    0.01    0.34
  -2  -3  -3    0.36    0.25
  -2   3  -3    0.39    0.31
   2   3   3    0.36    0.37
   2   3   3    0.57    0.39
  -2   3  -3   -0.10    0.22
  -3  -3  -3   10.43    1.03
  -3  -3  -3    9.65    1.11
  -3  -3  -3    8.26    1.18
   3  -3   3   13.83    1.55
   3  -3   3   10.59    1.38
  -3   3  -3    6.35    0.88
  -3   3  -3    8.25    1.13
   3   3   3    9.31    1.17
   3   3   3    8.60    1.06
   4  -3   3    0.09    0.52
  -4  -3  -3    0.74    0.55
   4  -3   3    1.24    0.61
   4   3   3    0.92    0.58
  -4   3  -3    1.66    0.71
  -4   3  -3    1.81    0.74
   4   3   3    1.83    0.72
   5  -3   3    2.49    1.02
  -5  -3  -3    1.39    0.78
   5  -3   3    1.95    0.88
   5   3   3    0.13    0.47
  -5   3  -3    1.21    0.76
  -5   3  -3    0.56    0.63
  -6  -3  -3    1.20    0.86
   6  -3   3    0.30    0.74
  -6   3  -3    1.28    0.75
   6   3   3    0.49    0.64
  -6   3  -3    0.92    0.71
   5  -4  -3   -0.02    0.50
   5  -4  -3    0.17    0.53
  -5  -4   3    0.26    0.49
  -5   4   3   -0.08    0.37
  -5   4   3    0.36    0.54
   5   4  -3    0.15    0.58
   4  -4  -3   10.73    1.43
   4  -4  -3   11.04    1.59
  -4  -4   3    9.75    1.44
  -4  -4   3   10.63    1.53
  -4   4   3   12.72    1.39
  -4   4   3   12.16    1.56
  -4   4   3   12.42    1.48
   4   4  -3   11.94    1.64
   3  -4  -3    1.06    0.52
  -3  -4   3    1.62    0.72
  -3  -4   3    1.01    0.68
   3  -4  -3    1.76    0.73
   3  -4  -3    2.06    0.72
   3  -4  -3    1.11    0.64
   3  -4  -3    2.74    0.86
   3  -4  -3   -0.07    0.30
  -3   4   3    1.30    0.57
   3   4  -3    1.00    0.58
  -3   4   3    1.53    0.60
  -3   4   3    1.13    0.55
  -3   4   3    1.56    0.59
   3   4  -3    1.24    0.51
  -3   4   3    1.40    0.58
  -3   4   3    0.48    0.44
   2  -4  -3   50.37    2.84
   2  -4  -3   49.86    2.96
   2  -4  -3   50.33    2.80
  -2  -4   3   49.21    3.03
  -2  -4   3   47.58    2.91
  -2   4   3   48.93    2.65
  -2   4   3   49.85    2.64
  -2   4   3   40.39    2.58
  -2   4   3   48.66    2.61
   2   4  -3   42.50    2.82
   2   4  -3   44.53    2.54
  -2   4   3   43.27    2.68
  -2   4   3   50.11    2.66
   1  -4  -3   13.51    1.35
   1  -4  -3   12.82    1.17
  -1  -4   3   10.62    1.31
  -1  -4   3   10.59    1.24
   1  -4  -3   12.86    1.38
   1   4  -3   11.96    1.34
  -1   4   3   12.20    1.16
   1   4  -3   13.47    1.28
  -1   4   3   10.11    1.16
  -1   4   3    9.33    1.16
   0  -4   3    1.73    0.68
   0  -4  -3    2.31    0.75
   0  -4   3    2.07    0.72
   0  -4  -3    1.82    0.65
   0  -4  -3    1.52    0.48
   0   4  -3    1.85    0.65
   0   4   3    2.97    0.70
   0   4   3    1.92    0.71
   0   4  -3    2.76    0.75
  -1  -4  -3   30.02    2.31
   1  -4   3   28.30    2.27
  -1  -4  -3   30.91    2.17
   1  -4   3   31.72    2.37
   1  -4   3   31.90    2.07
  -1   4  -3   31.89    2.11
   1   4   3   33.63    2.08
   1   4   3   33.27    2.26
  -1   4  -3   30.89    1.99
  -1   4  -3   26.69    2.02
   2  -4   3   14.97    1.68
   2  -4   3   18.35    1.72
  -2  -4  -3   15.89    1.76
  -2  -4  -3   19.36    1.69
   2  -4   3   20.62    1.92
   2   4   3   21.08    1.83
   2   4   3   16.75    1.56
  -2   4  -3   15.60    1.58
  -2   4  -3   14.50    1.46
  -3  -4  -3   19.10    2.00
   3  -4   3   12.45    1.65
   3  -4   3   16.38    1.85
  -3  -4  -3   16.67    1.63
   3   4   3   15.63    1.65
  -3   4  -3   18.19    1.63
   3   4   3   17.54    1.70
  -3   4  -3   20.52    1.91
  -4  -4  -3    2.74    1.02
   4  -4   3    3.28    1.12
   4  -4   3    3.18    1.16
  -4   4  -3    2.61    0.89
   4   4   3    1.48    0.73
  -4   4  -3    1.10    0.70
   4   4   3    0.16    0.44
  -5  -4  -3    0.86    0.73
   5  -4   3   -0.31    0.39
   5  -4   3    2.65    1.13
  -5   4  -3    2.39    0.92
   5   4   3    1.75    0.78
  -5   4  -3    2.78    1.03
   5   4   3    0.95    0.60
  -5  -5   3   -0.05    0.50
   5  -5  -3    0.46    0.72
  -5   5   3    0.77    0.63
   5   5  -3   -0.45    0.55
   4  -5  -3    1.53    1.12
  -4  -5   3    0.06    0.59
  -4  -5   3    0.99    0.71
  -4   5   3   -0.09    0.37
   4   5  -3    0.35    0.63
  -3  -5   3    0.28    0.60
   3  -5  -3    1.17    0.70
   3  -5  -3    0.54    0.60
  -3  -5   3    1.51    0.83
   3   5  -3    1.39    0.78
   3   5  -3    1.75    0.73
  -3   5   3    2.10    0.74
  -3   5   3    3.49    1.00
   2  -5  -3    9.98    1.48
  -2  -5   3    9.25    1.68
   2  -5  -3   10.37    1.36
   2  -5  -3    7.29    1.63
  -2  -5   3    8.22    1.57
   2   5  -3   10.58    1.44
  -2   5   3    8.27    1.25
  -2   5   3   11.59    1.42
   2   5  -3    9.39    1.56
  -2   5   3    9.69    1.25
   1  -5  -3    2.41    0.83
   1  -5  -3    2.10    0.84
  -1  -5   3    1.50    0.76
  -1  -5   3    1.56    0.72
   1   5  -3    2.58    0.89
  -1   5   3    2.02    0.71
  -1   5   3    1.42    0.67
   1   5  -3    1.76    0.71
   0  -5   3   24.47    2.20
   0  -5  -3   19.43    1.97
   0  -5  -3   25.15    2.07
   0  -5   3   18.89    1.98
   0   5  -3   24.65    2.06
   0   5   3   20.68    1.95
   0   5  -3   19.19    1.80
   0   5   3   20.99    1.83
  -1  -5  -3    6.96    1.35
   1  -5   3    9.46    1.69
  -1  -5  -3    9.76    1.42
   1  -5   3    8.66    1.69
  -1   5  -3   12.15    1.52
  -1   5  -3    8.32    1.23
   1   5   3   10.29    1.20
   1   5   3   13.70    1.60
   1   5   3    8.33    1.44
  -1   5  -3    8.77    1.25
  -2  -5  -3    0.15    0.55
  -2  -5  -3    0.22    0.51
   2  -5   3    0.64    0.63
   2  -5   3    0.80    0.65
   2   5   3    0.86    0.56
  -2   5  -3    0.88    0.54
   2   5   3    0.42    0.50
  -2   5  -3    0.82    0.54
   2   5   3   -0.27    0.33
  -3  -5  -3    0.95    0.79
   3  -5   3   -0.29    0.42
   3  -5   3    0.07    0.47
  -3  -5  -3    0.77    0.54
  -3   5  -3    0.23    0.47
   3   5   3    0.10    0.44
  -3   5  -3   -0.12    0.45
   3   5   3    0.12    0.50
   3   5   3   -0.05    0.49
  -4  -5  -3    4.46    1.47
   4  -5   3    3.54    1.17
   4  -5   3    5.53    1.58
  -4   5  -3    5.38    1.37
   4   5   3    2.10    0.86
   4   5   3    4.29    1.28
  -4   5  -3    4.07    1.22
   3  -6  -3    1.19    0.88
  -3  -6   3    0.54    0.64
  -3  -6   3   -0.08    0.56
  -3   6   3    1.30    0.72
   3   6  -3    0.41    0.60
  -3   6   3    1.15    0.70
   3   6  -3    0.59    0.77
  -2  -6   3    5.45    1.46
  -2  -6   3    3.67    1.19
   2  -6  -3    5.47    1.43
   2   6  -3    3.47    1.09
  -2   6   3    7.62    1.46
  -2   6   3    4.89    1.22
   2   6  -3    6.79    1.46
  -2   6   3    5.37    1.30
   1  -6  -3   10.19    1.83
  -1  -6   3   11.13    1.70
   1  -6  -3   11.71    1.68
  -1  -6   3    9.55    1.90
   1   6  -3   10.94    1.60
   1   6  -3   10.93    1.45
  -1   6   3   13.42    1.63
  -1   6   3   14.32    1.76
   0  -6  -3   13.83    1.79
   0  -6   3   11.74    1.77
   0  -6  -3   12.30    1.60
   0  -6   3    8.06    1.66
   0   6   3   12.76    1.65
   0   6  -3   11.66    1.93
   0   6   3   11.88    1.66
   0   6  -3    9.84    1.49
   1  -6   3    2.86    1.14
   1  -6   3    2.68    1.14
  -1  -6  -3    3.04    0.96
  -1  -6  -3    3.12    1.10
  -1   6  -3    2.32    0.94
  -1   6  -3    2.81    0.97
   1   6   3    2.15    0.87
   1   6   3    0.80    0.64
  -2  -6  -3    1.64    0.80
  -2  -6  -3    2.19    1.15
   2  -6   3    1.89    0.96
   2  -6   3    1.66    0.93
   2   6   3    1.32    0.74
  -2   6  -3    1.56    0.78
   2   6   3    2.78    0.97
  -2   6  -3    1.85    0.92
   3  -6   3    0.31    0.58
  -3  -6  -3    0.37    0.70
  -3  -6  -3   -0.06    0.44
   3   6   3   -0.01    0.51
  -3   6  -3   -0.88    0.51
  -3   6  -3    0.53    0.57
   3   6   3    0.14    0.55
   0  -7   3    5.24    1.47
   0  -7   3    8.43    2.31
   0  -7  -3    7.15    1.74
   0   7   3    5.77    1.52
   7   0  -4    0.07    0.66
  -7   0   4   -0.12    0.64
  -7   0   4   -0.71    0.42
  -6   0   4    9.16    1.80
   6   0  -4   12.56    2.19
  -6   0   4    7.85    1.68
   5   0  -4    0.22    0.33
   5   0  -4   -0.37    0.31
  -5   0   4    0.13    0.35
  -5   0   4    0.24    0.40
  -4   0   4    0.84    0.52
  -4   0   4    1.37    0.58
   4   0  -4    1.65    0.67
   4   0  -4    2.59    0.75
  -3   0   4    0.08    0.26
   3   0  -4   -0.09    0.27
  -3   0   4   -0.06    0.24
   3   0  -4   -0.04    0.12
  -3   0   4   -0.11    0.13
   3   0  -4    0.22    0.26
   2   0  -4  318.11   10.71
   2   0  -4  336.60   10.22
   2   0  -4  333.98   10.85
  -2   0   4  332.23    9.89
  -2   0   4  334.60   10.97
  -2   0   4  334.71   10.75
  -1   0   4   -0.21    0.12
   1   0  -4   -0.03    0.19
   1   0  -4   -0.08    0.21
   1   0  -4   -0.29    0.20
  -1   0   4    0.07    0.20
  -1   0   4    0.15    0.25
   0   0  -4  991.91   28.63
   0   0   4  997.18   28.93
   0   0   4  924.68   29.25
   0   0  -4  976.57   29.05
   0   0   4  970.19   28.72
   0   0  -4 1000.00   29.05
  -1   0  -4   -0.43    0.17
  -1   0  -4    0.19    0.18
   1   0   4    0.03    0.17
   1   0   4    0.01    0.20
  -1   0  -4   -0.25    0.14
   1   0   4    0.09    0.27
   2   0   4   39.64    2.24
   2   0   4   39.85    2.08
   2   0   4   39.28    1.59
  -2   0  -4   44.51    2.07
   2   0   4   40.16    2.01
  -2   0  -4   41.26    2.18
  -3   0  -4   -0.02    0.24
   3   0   4    0.33    0.28
  -3   0  -4   -0.12    0.17
   3   0   4   -0.28    0.22
  -3   0  -4   -0.03    0.19
  -4   0  -4   16.09    1.55
   4   0   4   14.15    1.43
   4   0   4   14.87    1.57
  -4   0  -4   14.66    1.37
  -5   0  -4   -0.08    0.30
  -5   0  -4   -0.19    0.37
   5   0   4   -0.09    0.29
   5   0   4    0.20    0.42
  -6   0  -4    0.34    0.55
   6   0   4    1.92    0.82
   6   0   4    0.75    0.75
  -6   0  -4    0.88    0.68
  -7  -1   4    0.80    0.71
  -7  -1   4    0.09    0.62
   7  -1  -4    1.10    0.81
   7  -1  -4    0.15    0.71
   7   1  -4   -0.17    0.48
  -7   1   4    1.80    0.86
  -7   1   4    0.58    0.78
   6  -1  -4    0.13    0.53
   6  -1  -4   -0.35    0.45
  -6  -1   4    0.28    0.45
  -6  -1   4    0.52    0.54
  -6   1   4   -0.82    0.24
   6   1  -4    0.16    0.57
   6   1  -4   -0.17    0.41
  -6   1   4    0.28    0.54
   5  -1  -4    6.21    1.29
  -5  -1   4    4.65    1.10
   5  -1  -4    5.47    1.14
   5  -1  -4    3.80    1.15
  -5  -1   4    3.83    1.06
  -5   1   4    3.13    0.92
  -5   1   4    2.18    0.83
   5   1  -4    4.42    1.03
   5   1  -4    6.56    1.36
   4  -1  -4   24.84    2.12
  -4  -1   4   22.57    1.86
   4  -1  -4   26.94    2.04
  -4  -1   4   28.99    2.15
   4  -1  -4   25.48    1.89
   4   1  -4   29.22    2.12
  -4   1   4   22.70    1.95
   4   1  -4   24.77    1.96
  -4   1   4   28.70    2.07
   3  -1  -4   37.29    2.24
   3  -1  -4   36.44    2.18
   3  -1  -4   36.32    1.58
  -3  -1   4   34.79    2.16
  -3  -1   4   31.84    2.17
  -3  -1   4   35.71    1.77
  -3   1   4   36.16    1.67
  -3   1   4   37.60    2.31
   3   1  -4   34.27    1.51
   3   1  -4   39.40    2.30
   3   1  -4   36.21    2.11
  -3   1   4   31.61    2.02
   2  -1  -4   62.08    2.89
  -2  -1   4   60.97    2.83
   2  -1  -4   59.99    2.87
   2  -1  -4   63.41    2.49
  -2  -1   4   59.11    2.89
  -2  -1   4   64.33    2.41
  -2   1   4   59.13    2.92
   2   1  -4   60.79    2.39
   2   1  -4   59.70    2.69
   2   1  -4   61.09    2.92
  -2   1   4   60.66    2.65
  -2   1   4   63.63    2.21
   1  -1  -4    6.67    0.46
   1  -1  -4    6.44    0.67
  -1  -1   4    6.36    0.73
   1  -1  -4    5.82    0.77
  -1  -1   4    4.72    0.67
   1  -1  -4    7.16    0.76
  -1  -1   4    6.87    0.54
  -1   1   4    7.20    0.57
   1   1  -4    4.81    0.60
   1   1  -4    6.85    0.77
  -1   1   4    6.88    0.73
   1   1  -4    5.50    0.58
  -1   1   4    5.08    0.68
   0  -1   4   76.40    3.13
   0  -1  -4   71.50    2.92
   0  -1  -4   72.35    2.66
   0  -1   4   70.90    2.52
   0  -1   4   68.04    2.90
   0  -1  -4   71.32    2.97
   0   1  -4   71.88    2.89
   0   1  -4   68.33    2.81
   0   1   4   71.14    2.97
   0   1   4   78.31    2.98
   0   1   4   69.29    2.25
   1  -1   4    5.21    0.75
  -1  -1  -4    6.92    0.77
  -1  -1  -4    6.72    0.38
   1  -1   4    6.39    0.72
  -1  -1  -4    7.60    0.74
   1  -1   4    6.41    0.55
  -1  -1  -4    5.52    0.66
  -1   1  -4    6.31    0.54
  -1   1  -4    6.82    0.74
   1   1   4    5.38    0.71
  -1   1  -4    6.08    0.69
   1   1   4    6.60    0.74
   1   1   4    5.19    0.67
  -2  -1  -4  183.57    6.59
  -2  -1  -4  186.91    6.38
   2  -1   4  181.16    6.53
   2  -1   4  184.67    5.42
  -2  -1  -4  180.09    5.91
   2  -1   4  173.56    6.74
  -2   1  -4  183.76    5.44
   2   1   4  182.15    6.55
   2   1   4  180.42    6.46
  -2   1  -4  179.30    6.32
   2   1   4  181.07    6.18
  -2   1  -4  180.33    6.44
   3  -1   4    6.36    1.13
  -3  -1  -4    5.72    0.69
   3  -1   4    4.58    0.80
  -3  -1  -4    8.37    1.04
  -3  -1  -4    5.60    0.74
   3  -1   4    6.18    1.17
   3   1   4    7.01    0.94
  -3   1  -4    5.88    0.88
  -3   1  -4    5.66    0.76
  -3   1  -4    6.38    0.86
   3   1   4    6.25    0.67
   3   1   4    5.79    0.87
  -4  -1  -4   10.48    1.32
   4  -1   4    7.84    1.04
   4  -1   4    7.17    1.41
  -4  -1  -4   12.18    1.15
   4   1   4    6.73    1.06
   4   1   4   10.13    1.22
  -4   1  -4    7.59    1.04
  -4   1  -4    9.82    1.26
   5  -1   4   12.00    1.67
  -5  -1  -4   15.32    1.77
  -5  -1  -4   14.47    1.49
   5  -1   4   12.45    1.49
   5   1   4   17.04    1.81
  -5   1  -4   16.20    1.85
  -5   1  -4   14.78    1.61
   5   1   4   16.19    1.77
   6  -1   4   -0.16    0.47
  -6  -1  -4    2.52    1.08
   6  -1   4    2.05    0.82
  -6  -1  -4    1.21    0.67
  -6   1  -4    1.43    0.77
   6   1   4    0.37    0.61
  -6   1  -4    2.13    0.91
   6  -2  -4   -0.12    0.62
   6  -2  -4    1.48    0.76
  -6  -2   4   -0.10    0.51
   6   2  -4    0.15    0.49
   6   2  -4    0.10    0.54
  -6   2   4   -0.26    0.52
  -6   2   4   -0.28    0.41
  -5  -2   4    1.79    0.80
  -5  -2   4    2.99    0.92
   5  -2  -4    1.36    0.70
   5  -2  -4    1.50    0.73
   5   2  -4    2.06    0.80
  -5   2   4    2.52    0.97
   5   2  -4    2.13    0.88
  -5   2   4    2.45    0.80
   4  -2  -4    0.74    0.45
  -4  -2   4    0.89    0.55
  -4  -2   4    0.77    0.43
   4  -2  -4    0.84    0.52
   4  -2  -4    0.47    0.42
   4   2  -4    0.88    0.53
  -4   2   4    0.26    0.36
  -4   2   4    0.14    0.43
   4   2  -4    0.36    0.41
   3  -2  -4    0.42    0.39
  -3  -2   4   -0.12    0.23
  -3  -2   4    0.25    0.36
   3  -2  -4    0.31    0.35
   3  -2  -4    0.36    0.38
   3  -2  -4    0.16    0.22
  -3   2   4   -0.08    0.24
   3   2  -4    0.33    0.34
  -3   2   4    0.24    0.26
   3   2  -4    0.11    0.21
  -3   2   4    0.55    0.27
   3   2  -4   -0.09    0.26
   2  -2  -4   -0.03    0.22
  -2  -2   4   -0.17    0.17
  -2  -2   4    0.11    0.26
   2  -2  -4    0.35    0.32
   2  -2  -4   -0.10    0.19
  -2   2   4   -0.01    0.18
  -2   2   4   -0.01    0.19
   2   2  -4    0.18    0.33
  -2   2   4   -0.18    0.16
  -2   2   4    0.09    0.15
   2   2  -4    0.07    0.20
   1  -2  -4    7.13    0.89
   1  -2  -4    7.30    0.71
  -1  -2   4    7.06    0.87
   1  -2  -4    6.34    0.75
  -1  -2   4    6.70    0.71
   1   2  -4    7.05    0.84
  -1   2   4    6.89    0.79
  -1   2   4    7.18    0.59
   1   2  -4    7.54    0.78
  -1   2   4    6.90    0.82
   1   2  -4    7.33    0.58
   0  -2  -4   44.34    2.16
   0  -2   4   41.06    2.30
   0  -2  -4   42.32    2.23
   0  -2   4   45.55    2.24
   0  -2   4   43.58    2.27
   0  -2  -4   42.96    2.32
   0  -2   4   44.34    1.47
   0   2  -4   43.29    2.16
   0   2  -4   45.17    2.12
   0   2  -4   45.23    2.09
   0   2   4   44.66    1.52
   0   2   4   47.94    2.36
   0   2   4   43.53    2.08
   0   2   4   45.82    2.26
  -1  -2  -4    1.27    0.51
   1  -2   4    0.52    0.35
  -1  -2  -4    1.19    0.17
  -1  -2  -4    1.05    0.43
   1  -2   4    0.73    0.40
   1  -2   4    0.90    0.18
   1   2   4    0.70    0.30
  -1   2  -4    1.39    0.47
  -1   2  -4    0.88    0.31
   1   2   4    0.86    0.39
  -1   2  -4    1.27    0.42
   1   2   4    0.69    0.40
   2  -2   4   26.79    1.95
  -2  -2  -4   27.50    1.35
  -2  -2  -4   25.25    1.84
   2  -2   4   25.83    1.90
  -2  -2  -4   25.50    1.73
   2  -2   4   28.33    1.34
   2   2   4   28.78    1.89
   2   2   4   27.67    1.55
  -2   2  -4   27.13    1.79
  -2   2  -4   30.07    1.75
   2   2   4   26.96    1.69
  -3  -2  -4   23.81    1.91
  -3  -2  -4   20.66    1.34
   3  -2   4   17.01    1.74
   3  -2   4   18.96    1.32
   3  -2   4   18.32    1.74
  -3  -2  -4   18.17    1.46
   3   2   4   19.99    1.48
   3   2   4   19.51    1.47
  -3   2  -4   18.43    1.46
  -3   2  -4   20.71    1.72
   3   2   4   21.21    1.75
  -4  -2  -4   15.63    1.71
  -4  -2  -4   12.91    1.26
   4  -2   4   10.38    1.50
   4  -2   4   11.99    1.54
  -4   2  -4   13.47    1.44
   4   2   4   14.90    1.62
  -4   2  -4   11.22    1.36
   4   2   4   13.28    1.40
   5  -2   4    1.07    0.51
   5  -2   4    0.62    0.60
  -5  -2  -4    2.15    0.98
  -5   2  -4    0.81    0.68
  -5   2  -4    0.89    0.57
   5   2   4    0.22    0.41
  -6  -2  -4    3.72    1.18
   6  -2   4    2.22    1.01
  -6   2  -4    3.12    1.14
   6   2   4    3.35    1.14
  -6   2  -4    4.89    1.37
  -6  -3   4    3.93    1.35
   6  -3  -4    8.44    1.94
   6  -3  -4    7.55    1.63
   6   3  -4    7.75    1.73
  -6   3   4    8.11    1.86
  -6   3   4   10.70    1.95
   6   3  -4    8.20    1.74
   5  -3  -4    3.47    1.18
   5  -3  -4    4.41    1.25
  -5  -3   4    4.13    1.26
   5   3  -4    4.02    1.19
   5   3  -4    5.30    1.29
  -5   3   4    3.08    0.96
  -5   3   4    2.51    0.92
   4  -3  -4    0.95    0.63
   4  -3  -4    0.98    0.67
  -4  -3   4    0.91    0.53
  -4  -3   4    1.84    0.81
   4  -3  -4    1.88    0.71
   4   3  -4    2.95    0.80
  -4   3   4    0.65    0.49
   4   3  -4    1.35    0.75
  -4   3   4    2.74    0.86
  -3  -3   4    0.89    0.44
   3  -3  -4    2.29    0.83
  -3  -3   4    3.15    0.90
   3  -3  -4    0.85    0.47
   3  -3  -4    2.87    0.80
   3   3  -4    2.45    0.85
  -3   3   4    3.43    0.79
  -3   3   4    1.73    0.55
  -3   3   4    2.50    0.59
  -3   3   4    2.73    0.77
   3   3  -4    2.24    0.60
   3   3  -4    2.80    0.67
  -3   3   4    3.17    0.85
   2  -3  -4   41.35    2.36
  -2  -3   4   39.69    2.66
   2  -3  -4   46.13    2.58
   2  -3  -4   44.21    2.65
  -2  -3   4   49.02    2.37
  -2  -3   4   44.59    2.50
  -2   3   4   45.62    2.33
   2   3  -4   44.35    2.33
  -2   3   4   43.28    2.26
   2   3  -4   46.68    2.19
  -2   3   4   42.32    2.47
  -2   3   4   40.82    2.49
   2   3  -4   42.78    2.67
  -2   3   4   46.89    2.57
   1  -3  -4    1.22    0.46
  -1  -3   4    1.40    0.50
  -1  -3   4    1.62    0.57
   1  -3  -4    0.82    0.46
   1  -3  -4    1.28    0.40
  -1  -3   4    1.87    0.50
   1  -3  -4    0.30    0.33
  -1   3   4    1.60    0.61
  -1   3   4    1.04    0.43
  -1   3   4    1.69    0.41
   1   3  -4    0.99    0.48
   1   3  -4    1.20    0.50
  -1   3   4    1.37    0.46
   0  -3  -4    3.42    0.80
   0  -3   4    2.00    0.64
   0  -3  -4    2.50    0.37
   0  -3  -4    3.54    0.83
   0  -3  -4    2.82    0.79
   0  -3   4    2.33    0.69
   0   3   4    0.71    0.42
   0   3  -4    3.05    0.71
   0   3   4    2.39    0.64
   0   3  -4    4.17    0.75
   0   3   4    4.34    0.56
   1  -3   4    0.05    0.28
  -1  -3  -4    0.47    0.39
   1  -3   4    0.37    0.36
  -1  -3  -4    0.09    0.26
   1  -3   4    0.33    0.33
   1   3   4   -0.08    0.22
  -1   3  -4    0.39    0.36
  -1   3  -4    0.14    0.29
  -1   3  -4    0.19    0.24
   1   3   4    0.60    0.40
   2  -3   4   14.16    1.52
  -2  -3  -4   18.24    1.65
  -2  -3  -4   17.39    1.46
   2  -3   4   13.47    1.47
   2   3   4   18.00    1.55
  -2   3  -4   17.44    1.52
  -2   3  -4   15.91    1.39
   2   3   4   14.59    1.37
   3  -3   4    6.87    1.36
   3  -3   4    6.93    1.37
  -3  -3  -4    7.40    1.03
  -3  -3  -4    8.70    1.24
   3   3   4    7.51    1.04
   3   3   4    7.47    1.30
  -3   3  -4    7.37    1.32
  -3   3  -4    7.78    1.03
  -4  -3  -4    3.75    1.08
   4  -3   4    4.77    1.31
   4  -3   4    3.55    1.10
   4   3   4    4.10    1.10
  -4   3  -4    1.96    0.78
   4   3   4    4.07    1.00
  -4   3  -4    3.00    1.00
   5  -3   4    4.21    1.40
   5  -3   4    2.43    1.07
  -5  -3  -4    3.19    1.21
   5   3   4    2.26    0.89
  -5   3  -4    2.09    0.79
  -5   3  -4    1.46    0.78
   6  -3   4    0.16    0.56
  -6  -3  -4    0.23    0.60
  -6   3  -4   -0.05    0.47
  -6   3  -4   -0.26    0.50
   6   3   4    0.23    0.44
   5  -4  -4    0.27    0.58
  -5  -4   4    0.00    0.49
   5  -4  -4    0.29    0.57
  -5   4   4    0.02    0.43
  -5   4   4   -0.24    0.40
   5   4  -4   -0.50    0.47
  -5   4   4   -0.08    0.46
  -4  -4   4   17.10    1.83
  -4  -4   4   20.44    2.20
   4  -4  -4   22.84    2.05
   4  -4  -4   18.47    2.02
  -4   4   4   18.56    1.84
   4   4  -4   17.59    2.01
  -4   4   4   22.12    1.94
  -4   4   4   20.66    2.02
   3  -4  -4    7.64    1.05
  -3  -4   4    5.04    1.22
   3  -4  -4    6.15    1.21
   3  -4  -4    6.20    1.23
   3  -4  -4    8.28    1.44
  -3  -4   4    7.12    1.31
  -3   4   4    6.03    1.11
  -3   4   4    5.95    1.04
   3   4  -4    5.04    1.25
   3   4  -4    7.21    0.99
  -3   4   4    6.77    1.08
  -3   4   4    6.37    1.24
  -3   4   4    6.09    1.20
  -3   4   4    7.54    1.35
  -2  -4   4    6.06    1.26
   2  -4  -4    6.02    1.18
   2  -4  -4    3.68    0.97
  -2  -4   4    5.61    1.16
   2  -4  -4    3.76    0.92
  -2   4   4    4.00    0.95
  -2   4   4    4.85    0.97
  -2   4   4    4.63    0.94
   2   4  -4    6.61    1.30
  -2   4   4    4.50    0.98
   2   4  -4    2.76    0.80
  -2   4   4    6.17    1.10
  -1  -4   4    2.23    0.73
   1  -4  -4    0.59    0.46
   1  -4  -4    1.30    0.56
  -1  -4   4    0.69    0.53
  -1   4   4    1.84    0.62
   1   4  -4    1.98    0.71
   1   4  -4    0.50    0.45
  -1   4   4    1.74    0.64
   0  -4  -4    1.11    0.60
   0  -4   4   -0.02    0.35
   0  -4   4    3.47    0.76
   0  -4   4    1.45    0.67
   0  -4  -4    1.06    0.56
   0   4  -4    1.35    0.57
   0   4   4    0.60    0.47
   0   4   4    0.93    0.53
   0   4  -4    0.99    0.46
   1  -4   4   32.35    2.45
  -1  -4  -4   30.83    2.25
   1  -4   4   32.06    2.47
  -1  -4  -4   29.66    2.35
   1   4   4   33.17    2.20
  -1   4  -4   30.13    2.15
  -1   4  -4   31.12    2.20
   1   4   4   32.63    2.33
  -1   4  -4   34.74    2.03
   2  -4   4   -0.37    0.27
  -2  -4  -4    0.34    0.43
  -2  -4  -4   -0.40    0.35
   2  -4   4    0.55    0.47
   2   4   4    0.65    0.53
  -2   4  -4   -0.33    0.24
  -2   4  -4    1.51    0.63
   2   4   4    0.03    0.44
  -3  -4  -4   33.92    2.46
   3  -4   4   39.26    2.95
   3  -4   4   35.55    2.77
  -3  -4  -4   36.68    2.86
  -3   4  -4   32.13    2.50
   3   4   4   32.17    2.47
  -3   4  -4   37.07    2.44
   3   4   4   36.37    2.65
   4  -4   4    1.24    0.78
  -4  -4  -4    2.00    0.91
   4  -4   4    3.98    1.18
  -4   4  -4    3.97    1.17
   4   4   4    2.70    0.94
  -4   4  -4    2.53    0.95
   4   4   4    1.43    0.65
   5  -4   4    0.49    0.66
  -5  -4  -4    0.46    0.67
   5  -4   4    1.25    0.92
  -5   4  -4    0.70    0.59
   5   4   4    0.38    0.67
  -5   4  -4    0.73    0.58
  -4  -5   4    0.43    0.61
  -4  -5   4    0.35    0.54
   4   5  -4   -0.50    0.48
   3  -5  -4    1.20    0.75
   3  -5  -4    1.72    0.72
  -3  -5   4    1.46    0.66
  -3  -5   4    0.26    0.59
  -3   5   4    2.18    0.85
   3   5  -4    0.55    0.66
  -3   5   4    0.98    0.64
   3   5  -4    1.38    0.67
  -2  -5   4    1.83    0.77
   2  -5  -4    2.43    0.88
   2  -5  -4    1.03    0.61
  -2  -5   4    1.55    0.84
   2   5  -4    2.55    0.91
  -2   5   4    0.66    0.52
  -2   5   4    1.79    0.72
   2   5  -4    1.80    0.80
  -2   5   4    0.81    0.55
   1  -5  -4   22.75    2.08
  -1  -5   4   32.53    2.52
  -1  -5   4   28.02    2.45
   1  -5  -4   23.39    2.16
  -1   5   4   28.73    2.34
   1   5  -4   29.11    2.31
   1   5  -4   21.96    2.01
  -1   5   4   25.57    2.08
  -1   5   4   28.82    2.69
   0  -5  -4    6.04    1.34
   0  -5   4    7.71    1.54
   0  -5   4    6.26    1.38
   0  -5  -4    3.63    1.02
   0   5   4    7.37    1.43
   0   5   4    3.35    0.90
   0   5  -4    8.13    1.40
   0   5   4    3.61    0.89
   0   5  -4    5.64    1.16
   1  -5   4   24.33    2.32
   1  -5   4   21.55    2.22
  -1  -5  -4   23.09    2.21
  -1  -5  -4   20.42    2.01
  -1   5  -4   21.98    2.01
   1   5   4   21.86    2.02
   1   5   4   27.64    2.07
   1   5   4   21.53    2.06
  -1   5  -4   21.81    1.99
  -2  -5  -4    3.52    1.05
   2  -5   4    2.22    0.98
   2  -5   4    1.25    0.85
  -2  -5  -4    1.58    0.87
  -2   5  -4    2.95    1.02
  -2   5  -4    3.06    0.98
   2   5   4    0.90    0.70
   2   5   4    4.02    1.08
  -3  -5  -4    0.14    0.55
  -3  -5  -4    0.47    0.51
   3  -5   4    0.24    0.51
   3  -5   4   -0.22    0.46
   3   5   4    0.32    0.42
   3   5   4   -0.06    0.48
  -3   5  -4    0.17    0.43
   3   5   4   -0.21    0.40
  -3   5  -4    0.76    0.59
   4  -5   4   -0.60    0.55
   4  -5   4   -0.45    0.44
  -4  -5  -4    0.01    0.62
   4   5   4   -0.38    0.51
  -4   5  -4    0.08    0.44
  -4   5  -4    0.21    0.43
   4   5   4    0.24    0.55
  -3  -6   4    4.41    1.34
  -3  -6   4    1.92    0.90
  -3   6   4    2.32    0.88
   3   6  -4    3.51    1.30
  -2  -6   4   -0.12    0.46
   2  -6  -4   -0.04    0.56
   2  -6  -4    0.12    0.56
  -2  -6   4   -0.30    0.54
  -2   6   4    0.36    0.55
   2   6  -4   -0.51    0.36
  -2   6   4   -0.23    0.41
  -2   6   4    0.98    0.69
   2   6  -4   -0.12    0.49
   1  -6  -4    1.47    0.84
  -1  -6   4    1.92    0.99
   1  -6  -4    2.61    0.92
  -1  -6   4    1.07    0.77
   1   6  -4    1.59    0.84
  -1   6   4    3.42    1.04
  -1   6   4    1.33    0.72
   1   6  -4    0.61    0.57
   0  -6   4   -0.12    0.56
   0  -6   4   -0.04    0.43
   0  -6  -4    0.18    0.33
   0  -6  -4    0.24    0.53
   0   6   4   -0.03    0.38
   0   6  -4    0.13    0.52
   0   6  -4    0.54    0.61
   0   6   4   -0.26    0.48
   0   6  -4    0.50    0.46
   1  -6   4   -0.36    0.43
  -1  -6  -4    0.01    0.57
  -1  -6  -4   -0.34    0.40
   1  -6   4   -0.39    0.54
  -1   6  -4   -0.17    0.51
   1   6   4    0.35    0.54
  -1   6  -4   -0.19    0.45
   1   6   4   -0.65    0.42
  -2  -6  -4   -0.09    0.55
  -2  -6  -4    0.31    0.58
   2  -6   4    0.53    0.62
   2  -6   4    0.57    0.67
  -2   6  -4    0.53    0.62
   2   6   4    0.80    0.74
  -2   6  -4    0.93    0.56
   2   6   4    0.15    0.51
   3  -6   4    0.47    0.67
  -3  -6  -4    0.46    0.72
  -3  -6  -4    0.12    0.57
  -3   6  -4   -0.08    0.54
   3   6   4   -0.02    0.64
   3   6   4    0.05    0.51
  -3   6  -4   -0.42    0.45
  -7   0   5    0.97    1.16
  -7   0   5    0.95    0.74
  -6   0   5    0.22    0.50
   6   0  -5    0.57    0.63
  -6   0   5    0.27    0.45
   5   0  -5   15.48    1.65
   5   0  -5   17.28    1.85
  -5   0   5   17.35    1.85
  -5   0   5   21.84    2.15
  -4   0   5    0.08    0.37
   4   0  -5   -0.11    0.28
   4   0  -5    0.68    0.45
  -4   0   5   -0.44    0.22
   3   0  -5    2.01    0.39
   3   0  -5    2.23    0.63
   3   0  -5    1.21    0.52
  -3   0   5    0.97    0.46
  -3   0   5    1.05    0.51
   2   0  -5   -0.06    0.19
   2   0  -5    0.21    0.28
  -2   0   5   -0.01    0.25
  -2   0   5    0.00    0.23
   2   0  -5   -0.14    0.21
   1   0  -5  199.57    6.76
  -1   0   5  193.72    7.17
  -1   0   5  207.37    6.76
  -1   0   5  206.42    6.82
   1   0  -5  204.13    6.90
   1   0  -5  205.85    7.08
   0   0   5   -0.17    0.17
   0   0  -5    0.05    0.26
   0   0  -5    0.43    0.30
   0   0  -5   -0.01    0.15
   0   0   5   -0.03    0.14
   0   0   5    0.23    0.22
   1   0   5  113.18    4.01
  -1   0  -5  113.93    4.21
   1   0   5  114.78    4.63
   1   0   5  114.08    4.23
  -1   0  -5  115.01    4.35
  -1   0  -5  113.76    4.13
   2   0   5   -0.10    0.20
  -2   0  -5   -0.01    0.24
   2   0   5    0.07    0.30
  -2   0  -5    0.21    0.16
   2   0   5    0.12    0.14
  -2   0  -5    0.03    0.16
  -2   0  -5   -0.02    0.20
   2   0   5   -0.06    0.19
  -3   0  -5    7.17    0.88
  -3   0  -5    6.98    0.91
  -3   0  -5    7.71    1.01
   3   0   5    7.19    0.92
   3   0   5    6.68    1.00
  -4   0  -5   -0.03    0.33
  -4   0  -5    0.18    0.35
   4   0   5    0.23    0.38
  -4   0  -5    0.56    0.41
   4   0   5   -0.10    0.29
  -5   0  -5    7.88    1.53
   5   0   5   15.61    1.81
  -5   0  -5   13.52    1.45
   5   0   5   10.51    1.41
  -6   0  -5    0.34    0.46
   6   0   5    0.00    0.40
  -6   0  -5    0.33    0.49
   6   0   5   -0.13    0.43
  -6  -1   5    4.71    1.20
  -6  -1   5    4.12    1.19
   6  -1  -5    7.94    1.68
   6   1  -5    5.56    1.35
  -6   1   5    4.21    1.32
  -6   1   5    5.31    1.45
   6   1  -5    3.59    1.24
   5  -1  -5    0.01    0.35
   5  -1  -5    0.81    0.58
  -5  -1   5    0.92    0.64
  -5  -1   5    1.52    0.69
  -5   1   5   -0.11    0.35
   5   1  -5    0.97    0.60
   5   1  -5    0.95    0.58
  -5   1   5    1.04    0.79
   4  -1  -5   17.12    1.65
  -4  -1   5   17.85    1.69
   4  -1  -5   13.52    1.44
  -4  -1   5   14.64    1.60
  -4   1   5   18.05    1.65
  -4   1   5   14.32    1.58
   4   1  -5   16.85    1.62
   4   1  -5   15.69    1.58
   3  -1  -5   38.34    2.34
  -3  -1   5   38.22    2.34
   3  -1  -5   33.82    2.25
   3  -1  -5   34.80    1.66
  -3  -1   5   38.77    2.39
   3   1  -5   28.16    2.14
   3   1  -5   35.00    1.63
   3   1  -5   33.18    2.12
  -3   1   5   31.84    2.06
  -3   1   5   38.36    2.50
   2  -1  -5   68.35    3.16
   2  -1  -5   64.52    3.18
  -2  -1   5   71.02    3.23
  -2  -1   5   67.42    3.23
  -2  -1   5   66.24    2.48
   2  -1  -5   69.11    3.24
  -2   1   5   64.36    3.08
  -2   1   5   70.49    2.93
  -2   1   5   63.89    3.29
   2   1  -5   70.25    2.78
   2   1  -5   69.29    3.01
  -2   1   5   67.46    2.27
   2   1  -5   68.41    3.28
  -1  -1   5   26.33    1.61
  -1  -1   5   28.48    1.79
   1  -1  -5   25.76    1.71
  -1  -1   5   24.60    1.21
   1  -1  -5   26.09    1.08
   1  -1  -5   25.83    1.50
   1  -1  -5   25.55    1.64
  -1   1   5   23.99    1.22
   1   1  -5   26.43    1.48
  -1   1   5   24.06    1.57
   1   1  -5   23.99    1.61
   1   1  -5   24.36    1.12
   1   1  -5   23.16    1.36
  -1   1   5   26.53    1.70
   0  -1   5  121.84    4.89
   0  -1  -5  125.41    4.76
   0  -1   5  125.46    4.26
   0  -1   5  121.33    4.62
   0  -1  -5  126.21    4.73
   0  -1  -5  128.67    4.33
   0   1   5  120.85    4.79
   0   1  -5  120.46    4.62
   0   1  -5  128.36    4.31
   0   1   5  130.24    3.87
   0   1   5  124.52    4.68
   0   1  -5  126.51    4.60
  -1  -1  -5    6.69    0.83
  -1  -1  -5    8.19    0.43
   1  -1   5    8.16    0.66
  -1  -1  -5    7.00    0.80
   1  -1   5    7.81    0.84
  -1  -1  -5    9.88    0.89
   1  -1   5    9.30    1.02
   1   1   5    6.68    0.75
   1   1   5    8.37    0.88
  -1   1  -5    7.55    0.68
  -1   1  -5    6.76    0.75
  -1   1  -5    6.92    0.83
   1   1   5    6.35    0.83
  -2  -1  -5   20.71    1.52
  -2  -1  -5   21.52    1.15
   2  -1   5   20.05    1.69
  -2  -1  -5   21.78    1.58
   2  -1   5   23.64    1.62
  -2   1  -5   23.43    1.58
   2   1   5   23.55    1.37
   2   1   5   21.92    1.60
  -2   1  -5   25.15    1.63
   2   1   5   19.89    1.53
   3  -1   5    8.47    0.93
  -3  -1  -5    8.85    1.11
  -3  -1  -5    9.40    0.87
  -3  -1  -5    7.53    0.93
   3  -1   5    8.06    1.08
   3  -1   5    9.76    1.25
   3   1   5    6.93    0.99
  -3   1  -5    8.63    1.07
  -3   1  -5   11.42    1.12
  -3   1  -5    9.67    1.07
   3   1   5    8.34    1.08
   3   1   5   10.00    0.88
   4  -1   5    0.52    0.48
   4  -1   5    0.00    0.35
   4  -1   5    0.14    0.32
  -4  -1  -5    0.12    0.36
  -4   1  -5    0.01    0.33
  -4   1  -5    0.56    0.37
   4   1   5    0.06    0.43
   4   1   5    0.03    0.35
  -4   1  -5   -0.13    0.31
   5  -1   5    0.46    0.52
  -5  -1  -5   -0.14    0.39
   5  -1   5    0.50    0.46
  -5   1  -5    0.18    0.39
  -5   1  -5    0.77    0.61
   5   1   5   -0.43    0.37
   5   1   5    0.23    0.42
   6  -1   5   -0.13    0.43
   6  -1   5    0.01    0.49
  -6  -1  -5    0.73    0.61
  -6   1  -5   -0.17    0.37
  -6   1  -5   -0.12    0.54
   6   1   5   -0.73    0.49
  -6  -2   5    0.12    0.47
   6  -2  -5   -0.59    0.47
   6   2  -5    0.61    0.68
  -6   2   5    1.02    0.65
   6   2  -5    0.94    0.66
  -6   2   5    1.56    0.80
   5  -2  -5    0.74    0.57
  -5  -2   5   -0.04    0.42
  -5  -2   5    0.09    0.45
   5  -2  -5    0.10    0.54
  -5   2   5    0.37    0.45
   5   2  -5   -0.22    0.45
  -5   2   5   -0.21    0.41
   5   2  -5    0.19    0.43
   4  -2  -5    3.52    1.05
  -4  -2   5    1.40    0.68
   4  -2  -5    3.04    0.87
  -4  -2   5    1.68    0.70
   4   2  -5    1.54    0.71
  -4   2   5    1.67    0.73
  -4   2   5    1.36    0.61
   4   2  -5    2.37    0.72
   3  -2  -5    0.27    0.25
   3  -2  -5   -0.01    0.34
   3  -2  -5   -0.34    0.21
  -3  -2   5    0.21    0.36
  -3  -2   5   -0.51    0.22
   3   2  -5   -0.20    0.31
  -3   2   5   -0.07    0.32
   3   2  -5    0.14    0.27
  -3   2   5   -0.02    0.24
   3   2  -5   -0.12    0.18
  -2  -2   5    0.20    0.22
  -2  -2   5   -0.10    0.24
  -2  -2   5   -0.26    0.25
   2  -2  -5   -0.27    0.24
   2  -2  -5    0.48    0.44
   2  -2  -5    0.39    0.27
   2  -2  -5    0.25    0.23
  -2   2   5    0.26    0.29
  -2   2   5    0.26    0.23
  -2   2   5   -0.03    0.29
   2   2  -5    0.57    0.47
  -2   2   5    0.16    0.18
   2   2  -5    0.16    0.26
   1  -2  -5   18.16    1.50
  -1  -2   5   17.51    1.44
   1  -2  -5   19.33    1.43
  -1  -2   5   21.08    1.59
  -1  -2   5   19.09    1.28
  -1   2   5   19.38    1.44
   1   2  -5   20.41    1.12
   1   2  -5   18.65    1.34
  -1   2   5   18.31    0.99
   1   2  -5   19.58    1.49
  -1   2   5   23.62    1.58
   0  -2   5   32.50    1.89
   0  -2  -5   32.91    2.02
   0  -2  -5   31.98    2.04
   0  -2   5   35.15    2.12
   0  -2   5   36.27    2.13
   0  -2   5   34.01    1.33
   0   2  -5   31.33    1.88
   0   2   5   36.40    2.07
   0   2   5   31.55    1.95
   0   2  -5   36.96    1.83
   0   2   5   32.29    1.91
   0   2  -5   36.88    1.95
   1  -2   5    3.31    0.78
   1  -2   5    4.48    0.87
  -1  -2  -5    3.95    0.78
  -1  -2  -5    4.75    0.89
   1  -2   5    3.65    0.36
  -1  -2  -5    4.84    0.91
  -1   2  -5    3.47    0.73
  -1   2  -5    3.17    0.68
   1   2   5    4.33    0.85
   1   2   5    3.85    0.77
   1   2   5    3.90    0.62
  -1   2  -5    3.59    0.51
   2  -2   5   44.04    2.71
   2  -2   5   43.58    2.60
   2  -2   5   40.48    1.87
  -2  -2  -5   41.78    2.42
  -2  -2  -5   46.58    2.59
  -2   2  -5   45.25    2.45
   2   2   5   41.80    2.49
   2   2   5   40.24    2.26
  -2   2  -5   45.67    2.51
   2   2   5   42.52    2.26
   3  -2   5    5.31    0.67
  -3  -2  -5    6.29    1.12
   3  -2   5    4.53    1.05
   3  -2   5    2.73    0.91
  -3  -2  -5    6.11    1.21
   3   2   5    4.98    0.95
   3   2   5    5.50    1.12
  -3   2  -5    3.88    0.97
  -3   2  -5    4.54    0.92
   4  -2   5    0.04    0.35
   4  -2   5    0.75    0.58
  -4  -2  -5    0.09    0.45
  -4   2  -5    1.33    0.62
   4   2   5    2.18    0.84
  -4   2  -5    1.06    0.52
  -4   2  -5    1.54    0.62
  -5  -2  -5    4.64    1.24
   5  -2   5    0.82    0.75
   5   2   5    2.71    0.99
  -5   2  -5    1.61    0.85
  -5   2  -5    2.46    0.91
   6  -2   5    5.53    1.58
  -6  -2  -5    5.98    1.57
   6   2   5    4.27    1.30
  -6   2  -5    4.17    1.27
  -6   2  -5    3.29    1.09
  -6  -3   5    7.30    1.78
   6  -3  -5    5.03    1.46
  -6   3   5    5.60    1.36
   6   3  -5    4.64    1.33
  -6   3   5    6.10    1.60
   6   3  -5    4.82    1.25
   5  -3  -5    0.99    0.66
  -5  -3   5    0.31    0.64
  -5   3   5    0.95    0.67
   5   3  -5    0.75    0.58
  -5   3   5    1.14    0.64
   5   3  -5    2.10    0.93
   4  -3  -5    0.39    0.46
   4  -3  -5    1.11    0.60
  -4  -3   5    0.64    0.69
   4   3  -5    1.80    0.81
   4   3  -5    1.39    0.61
  -4   3   5    1.89    0.83
  -4   3   5    1.25    0.56
  -4   3   5    1.02    0.63
  -3  -3   5   27.68    1.96
   3  -3  -5   29.68    2.25
  -3  -3   5   33.33    2.49
   3  -3  -5   29.08    2.21
  -3  -3   5   33.45    2.15
   3   3  -5   26.54    2.26
  -3   3   5   30.44    2.01
   3   3  -5   30.90    1.92
  -3   3   5   30.60    2.31
  -3   3   5   28.36    2.11
  -2  -3   5    6.06    0.87
   2  -3  -5    5.69    0.82
   2  -3  -5    5.12    0.95
   2  -3  -5    6.68    1.24
   2  -3  -5    2.63    0.76
  -2  -3   5    4.43    1.02
  -2  -3   5    4.79    0.93
   2   3  -5    5.96    1.15
  -2   3   5    5.59    0.73
  -2   3   5    5.74    1.09
   2   3  -5    5.23    0.94
  -2   3   5    6.99    0.97
  -2   3   5    4.44    0.66
  -2   3   5    7.95    1.01
  -1  -3   5   11.00    1.25
  -1  -3   5   10.60    1.10
   1  -3  -5    7.56    1.03
   1  -3  -5    8.43    1.11
  -1   3   5   10.36    1.05
   1   3  -5    7.22    0.93
  -1   3   5    6.65    0.99
   1   3  -5    9.88    1.13
  -1   3   5   12.36    1.19
   0  -3  -5    0.65    0.41
   0  -3   5    0.24    0.35
   0  -3   5    0.18    0.32
   0  -3   5    0.40    0.34
   0  -3  -5    0.32    0.33
   0  -3  -5   -0.05    0.28
   0   3   5    0.16    0.26
   0   3   5    0.07    0.27
   0   3  -5    0.13    0.26
   0   3  -5    0.23    0.28
   0   3   5    0.36    0.30
   0   3  -5    0.34    0.34
   1  -3   5   12.68    1.35
  -1  -3  -5   14.59    1.42
   1  -3   5   14.57    1.41
  -1  -3  -5   12.18    1.27
   1  -3   5   12.05    1.34
  -1   3  -5    8.95    0.92
   1   3   5   14.18    1.35
  -1   3  -5   11.86    1.20
  -1   3  -5   13.05    1.25
   1   3   5   12.75    1.29
   2  -3   5   29.38    2.36
  -2  -3  -5   31.87    2.29
  -2  -3  -5   32.62    2.19
   2  -3   5   30.91    2.30
  -2   3  -5   35.77    2.30
  -2   3  -5   31.53    2.10
   2   3   5   27.51    2.11
   2   3   5   32.78    2.19
   3  -3   5    4.53    1.13
  -3  -3  -5    5.28    1.06
   3  -3   5    6.70    1.42
  -3  -3  -5    2.74    0.87
  -3   3  -5    6.26    1.26
   3   3   5    5.95    1.25
   3   3   5    7.04    1.26
  -3   3  -5    7.42    1.23
  -4  -3  -5   31.99    2.65
   4  -3   5   31.52    2.81
   4  -3   5   33.71    2.85
  -4   3  -5   31.87    2.55
  -4   3  -5   34.74    2.59
  -4   3  -5   34.03    2.62
   4   3   5   32.17    2.60
   4   3   5   32.85    2.33
   5  -3   5    1.38    0.91
  -5  -3  -5    3.13    1.14
   5  -3   5    3.99    1.34
  -5   3  -5    2.72    1.04
  -5   3  -5    1.37    0.72
   5   3   5    2.11    0.81
  -6   3  -5    1.92    1.01
   5  -4  -5    0.75    0.76
  -5  -4   5    0.23    0.60
  -5   4   5    1.30    0.83
  -5   4   5    0.07    0.45
   5   4  -5    0.10    0.67
  -4  -4   5   13.22    1.80
   4  -4  -5   11.42    1.52
   4  -4  -5   13.45    1.58
  -4   4   5   12.77    1.53
   4   4  -5   10.42    1.98
  -4   4   5   10.64    1.55
   3  -4  -5    0.11    0.42
   3  -4  -5    0.86    0.61
  -3  -4   5    0.24    0.46
   3  -4  -5    0.43    0.51
  -3  -4   5    2.25    0.76
   3   4  -5    0.49    0.45
   3   4  -5    0.03    0.51
  -3   4   5    0.35    0.32
  -3   4   5    1.00    0.61
  -3   4   5    0.46    0.40
  -3   4   5    1.25    0.58
  -2  -4   5    1.61    0.77
  -2  -4   5    1.91    0.68
   2  -4  -5    2.15    0.73
   2  -4  -5    1.44    0.61
   2  -4  -5    2.04    0.75
   2   4  -5    2.00    0.78
   2   4  -5    2.47    0.73
  -2   4   5    2.85    0.85
  -2   4   5    2.58    0.74
   1  -4  -5    1.08    0.51
  -1  -4   5    3.16    0.91
  -1  -4   5    1.69    0.71
   1  -4  -5    0.96    0.65
   1  -4  -5    1.73    0.67
  -1   4   5    1.53    0.66
   1   4  -5    1.35    0.62
   1   4  -5    0.76    0.51
  -1   4   5    1.38    0.59
   0  -4   5   13.91    1.61
   0  -4   5   13.99    1.56
   0  -4  -5   12.89    1.41
   0  -4   5   11.80    1.24
   0  -4  -5   15.58    1.54
   0   4  -5   13.95    1.39
   0   4   5   13.38    1.43
   0   4   5   11.88    1.38
   0   4  -5   12.53    1.35
   0   4  -5    9.52    1.23
   1  -4   5    0.66    0.57
  -1  -4  -5    0.19    0.45
   1  -4   5    0.72    0.48
   1  -4   5   -0.07    0.31
  -1  -4  -5   -0.55    0.37
   1   4   5    0.27    0.39
   1   4   5   -0.24    0.33
  -1   4  -5    0.08    0.36
  -1   4  -5    0.99    0.52
  -2  -4  -5    9.36    1.30
  -2  -4  -5    8.23    1.53
   2  -4   5    8.54    1.65
   2  -4   5    7.48    1.44
   2   4   5   10.66    1.38
  -2   4  -5    6.76    1.28
  -2   4  -5    6.66    1.26
   2   4   5    9.79    1.59
   3  -4   5    3.69    1.19
  -3  -4  -5    3.39    1.05
   3  -4   5    3.80    1.16
  -3  -4  -5    3.34    0.94
   3   4   5    4.16    1.12
   3   4   5    3.93    1.07
  -3   4  -5    1.75    0.71
  -3   4  -5    2.99    0.99
  -4  -4  -5    0.18    0.57
   4  -4   5    0.01    0.62
   4  -4   5   -0.31    0.44
  -4   4  -5   -0.24    0.40
   4   4   5    0.54    0.57
  -4   4  -5   -0.08    0.47
  -4   4  -5    0.53    0.57
   4   4   5    0.36    0.56
  -5  -4  -5    0.72    0.70
   5  -4   5    0.20    0.59
   5  -4   5    0.95    0.74
  -5   4  -5    0.51    0.62
  -5   4  -5    1.68    0.92
   5   4   5    1.13    0.77
  -4  -5   5   -0.10    0.59
   4   5  -5   -0.24    0.49
   3  -5  -5   13.55    1.59
  -3  -5   5   14.08    1.90
  -3  -5   5   14.28    1.75
   3   5  -5   14.26    1.82
  -3   5   5   13.19    1.62
  -3   5   5   12.71    1.46
   2  -5  -5    9.72    1.46
  -2  -5   5   14.76    1.85
   2  -5  -5   13.80    1.65
  -2  -5   5    8.65    1.33
   2   5  -5   14.57    1.60
  -2   5   5   10.76    1.36
   2   5  -5   15.12    1.83
  -2   5   5   10.48    1.32
  -2   5   5   12.79    1.60
  -1  -5   5   20.89    2.09
  -1  -5   5   22.62    2.28
   1  -5  -5   21.99    2.03
   1  -5  -5   17.19    1.84
  -1   5   5   24.79    2.07
   1   5  -5   24.71    2.16
  -1   5   5   23.38    1.94
  -1   5   5   21.79    2.11
   0  -5   5   11.52    1.63
   0  -5  -5   14.29    1.69
   0  -5   5   14.56    1.82
   0  -5  -5   13.55    1.66
   0   5  -5   14.80    1.57
   0   5   5   14.76    1.70
   0   5  -5   12.03    1.52
   0   5  -5   12.05    1.50
   0   5   5   15.57    1.62
   1  -5   5    0.07    0.45
  -1  -5  -5    0.39    0.52
  -1  -5  -5    1.21    0.78
   1  -5   5    0.05    0.42
   1   5   5    0.44    0.40
  -1   5  -5    0.21    0.36
   1   5   5    0.48    0.54
  -1   5  -5    0.59    0.59
  -2  -5  -5    1.23    0.78
  -2  -5  -5    2.57    1.02
   2  -5   5    0.63    0.64
  -2   5  -5    1.05    0.70
   2   5   5    1.19    0.75
  -2   5  -5    0.73    0.61
   2   5   5    1.02    0.67
   3  -5   5    1.54    0.76
  -3  -5  -5    1.55    0.76
   3  -5   5    1.44    0.79
  -3  -5  -5    1.85    0.94
   3   5   5    1.92    0.89
   3   5   5    2.93    1.01
  -3   5  -5    2.51    0.90
  -3   5  -5    0.87    0.65
   4  -5   5    0.00    0.56
   4  -5   5    0.38    0.88
  -4  -5  -5   -0.12    0.59
  -4   5  -5    0.00    0.51
   4   5   5   -0.11    0.43
   4   5   5    0.56    0.68
  -4   5  -5    1.13    0.64
  -3  -6   5    2.05    0.85
  -3  -6   5    1.76    1.01
   3   6  -5    1.85    0.96
  -2  -6   5    1.81    0.81
   2  -6  -5    0.23    0.61
  -2  -6   5    0.71    0.80
  -2   6   5    0.27    0.56
   2   6  -5   -0.27    0.44
   2   6  -5    0.78    0.72
  -2   6   5   -0.61    0.36
   1  -6  -5    6.76    1.54
   1  -6  -5    3.98    1.16
  -1  -6   5    5.93    1.59
  -1  -6   5    9.38    1.89
   1   6  -5    8.63    1.74
   1   6  -5    6.43    1.39
  -1   6   5    6.52    1.50
  -1   6   5    5.54    1.26
   0  -6  -5   -0.28    0.44
   0  -6  -5   -0.10    0.49
   0  -6   5    0.17    0.55
   0  -6   5   -0.40    0.43
   0   6  -5    0.43    0.55
   0   6   5   -0.33    0.46
   0   6  -5    0.35    0.53
   0   6   5   -0.46    0.45
  -1  -6  -5   13.77    1.86
   1  -6   5   15.17    2.08
  -1  -6  -5   17.15    2.10
   1  -6   5   14.28    2.08
  -1   6  -5   13.32    1.79
   1   6   5   14.61    1.94
   1   6   5   16.66    1.95
  -2  -6  -5    1.20    0.81
  -2  -6  -5    0.23    0.57
   2  -6   5   -0.19    0.65
   2   6   5    0.54    0.61
   2   6   5    1.53    0.83
  -2   6  -5    0.45    0.66
  -2   6  -5    0.34    0.59
  -3  -6  -5   -1.14    0.49
   3   6   5   -0.01    0.48
   3   6   5    0.30    0.65
  -3   6  -5   -0.74    0.76
   6   0  -6    1.20    0.72
  -6   0   6    1.27    0.81
   6   0  -6    1.86    0.87
  -6   0   6    2.09    0.93
   5   0  -6   -0.33    0.33
  -5   0   6    0.25    0.40
   5   0  -6   -0.10    0.43
  -5   0   6   -0.07    0.49
  -4   0   6   28.85    2.39
   4   0  -6   31.89    2.36
   4   0  -6   34.18    2.42
  -4   0   6   29.13    2.23
   3   0  -6   -0.38    0.26
   3   0  -6   -0.27    0.19
  -3   0   6   -0.08    0.28
   3   0  -6   -0.05    0.23
  -3   0   6    0.02    0.23
  -2   0   6   88.59    4.17
   2   0  -6   90.74    4.10
   2   0  -6   94.57    4.02
  -2   0   6   95.24    3.88
  -1   0   6    0.12    0.21
   1   0  -6   -0.05    0.29
   1   0  -6    0.09    0.21
  -1   0   6   -0.03    0.18
  -1   0   6   -0.02    0.27
   1   0  -6   -0.05    0.26
   0   0  -6    3.50    0.42
   0   0  -6    3.21    0.69
   0   0  -6    3.51    0.72
   0   0   6    4.26    0.51
   0   0   6    2.85    0.58
   0   0   6    3.70    0.81
  -1   0  -6   -0.12    0.17
  -1   0  -6   -0.21    0.19
  -1   0  -6   -0.05    0.20
   1   0   6    0.14    0.20
   1   0   6    0.20    0.29
   1   0   6    0.18    0.25
   2   0   6    0.27    0.22
  -2   0  -6    0.28    0.23
  -2   0  -6   -0.10    0.23
   2   0   6    0.01    0.24
   2   0   6    0.13    0.26
   2   0   6    0.23    0.28
  -2   0  -6    0.18    0.19
  -2   0  -6    0.07    0.27
   3   0   6    0.18    0.34
  -3   0  -6   -0.13    0.27
   3   0   6    0.14    0.28
   3   0   6   -0.23    0.26
  -3   0  -6   -0.14    0.26
  -4   0  -6    5.47    1.02
   4   0   6    7.95    1.24
   4   0   6    4.88    1.05
  -4   0  -6    5.90    1.24
  -4   0  -6    7.64    0.99
  -5   0  -6   -0.14    0.28
   5   0   6   -0.19    0.39
  -5   0  -6    0.12    0.47
   5   0   6    0.40    0.50
  -6   0  -6    9.06    1.82
   6   0   6    8.85    1.70
   6   0   6    7.68    1.85
   6  -1  -6    1.03    0.81
  -6  -1   6    0.94    0.78
  -6  -1   6    1.46    0.80
   6   1  -6    1.95    0.96
  -6   1   6    1.92    0.97
   6   1  -6    0.63    0.69
  -6   1   6    0.44    0.64
  -5  -1   6    5.90    1.36
   5  -1  -6    2.54    0.88
   5  -1  -6    2.49    0.90
  -5  -1   6    4.02    1.12
   5   1  -6    4.27    1.11
  -5   1   6    5.26    1.29
  -5   1   6    3.63    1.20
   5   1  -6    3.54    1.09
   4  -1  -6    4.63    1.09
   4  -1  -6    3.43    0.97
  -4  -1   6    5.66    1.17
  -4  -1   6    4.06    1.04
  -4   1   6    7.99    1.26
   4   1  -6    2.30    0.88
   4   1  -6    4.35    1.00
  -4   1   6    4.95    1.05
   3  -1  -6    1.06    0.52
   3  -1  -6    1.09    0.56
  -3  -1   6    0.98    0.54
  -3  -1   6    0.20    0.36
   3  -1  -6    2.03    0.52
  -3   1   6    1.43    0.53
  -3   1   6    0.56    0.47
   3   1  -6    0.39    0.30
   3   1  -6    1.19    0.59
   3   1  -6    0.42    0.38
   2  -1  -6    0.09    0.32
   2  -1  -6   -0.21    0.24
  -2  -1   6    0.10    0.32
  -2  -1   6   -0.14    0.22
   2   1  -6    0.40    0.32
  -2   1   6    0.10    0.22
   2   1  -6    0.66    0.39
  -2   1   6    0.02    0.19
  -2   1   6    0.27    0.32
  -1  -1   6  113.11    4.78
   1  -1  -6  114.94    4.73
   1  -1  -6  110.84    4.38
   1  -1  -6  111.78    3.63
  -1  -1   6  114.28    4.51
  -1   1   6  115.60    4.77
  -1   1   6  113.31    3.95
   1   1  -6  108.59    4.33
   1   1  -6  107.44    4.54
   1   1  -6  113.56    3.75
  -1   1   6  105.67    4.44
   1   1  -6  116.35    4.24
   0  -1   6   19.42    1.60
   0  -1   6   22.40    1.46
   0  -1   6   20.80    1.22
   0  -1  -6   19.66    1.49
   0  -1  -6   19.38    1.17
   0  -1  -6   21.60    1.53
   0   1  -6   21.48    1.52
   0   1  -6   21.81    1.24
   0   1   6   20.67    0.90
   0   1   6   24.04    1.67
   0   1  -6   20.67    1.44
   0   1   6   20.49    1.47
   1  -1   6   59.83    2.45
  -1  -1  -6   53.49    2.69
  -1  -1  -6   54.77    2.81
   1  -1   6   56.80    2.73
   1  -1   6   55.60    3.05
  -1  -1  -6   58.17    1.93
  -1  -1  -6   58.25    2.64
  -1   1  -6   55.15    2.81
  -1   1  -6   58.01    2.50
  -1   1  -6   55.46    2.57
   1   1   6   55.11    2.80
   1   1   6   57.48    2.94
   2  -1   6    2.73    0.70
   2  -1   6    1.75    0.57
  -2  -1  -6    3.44    0.79
  -2  -1  -6    3.72    0.43
  -2  -1  -6    2.58    0.71
   2  -1   6    4.05    0.98
  -2  -1  -6    2.81    0.62
  -2   1  -6    3.82    0.85
   2   1   6    3.40    0.80
   2   1   6    3.60    0.79
  -2   1  -6    2.82    0.68
   3  -1   6    1.02    0.51
  -3  -1  -6   -0.02    0.35
   3  -1   6    0.80    0.53
   3  -1   6    0.52    0.34
  -3  -1  -6   -0.04    0.31
   3   1   6   -0.02    0.28
   3   1   6    0.31    0.34
  -3   1  -6   -0.09    0.25
  -3   1  -6    0.49    0.42
  -3   1  -6    0.25    0.34
  -4  -1  -6    0.37    0.48
   4  -1   6    0.00    0.35
   4  -1   6    1.10    0.58
  -4  -1  -6   -0.16    0.27
   4  -1   6   -0.21    0.25
   4   1   6   -0.15    0.32
  -4   1  -6    1.12    0.52
  -4   1  -6   -0.03    0.42
   4   1   6    0.47    0.48
  -4   1  -6    0.24    0.40
   5  -1   6   -0.28    0.43
   5  -1   6   -0.02    0.46
  -5  -1  -6   -0.26    0.43
   5   1   6   -0.09    0.40
  -5   1  -6   -0.01    0.31
   5   1   6   -0.24    0.33
  -5   1  -6   -0.02    0.44
   6  -1   6   -0.07    0.43
  -6  -1  -6    0.17    0.61
   6  -1   6    0.73    0.71
  -6   1  -6    0.45    0.57
   6   1   6   -0.43    0.37
  -6   1  -6   -0.16    0.49
  -6  -2   6    6.90    1.68
   6  -2  -6    7.35    1.63
  -6   2   6    9.69    1.86
   6   2  -6    9.23    1.90
  -6   2   6    5.74    1.56
   6   2  -6    9.97    1.98
  -5  -2   6   -0.38    0.28
   5  -2  -6    0.75    0.60
   5  -2  -6    0.10    0.50
  -5  -2   6    0.49    0.52
  -5   2   6    0.29    0.51
  -5   2   6    0.30    0.51
   5   2  -6    0.40    0.58
   5   2  -6    0.47    0.50
   4  -2  -6   12.21    1.52
   4  -2  -6   10.03    1.70
  -4  -2   6   11.53    1.40
  -4  -2   6   11.11    1.50
  -4   2   6    8.48    1.17
  -4   2   6    7.57    1.54
   4   2  -6   10.41    1.47
   4   2  -6   10.85    1.35
   3  -2  -6   19.24    1.78
  -3  -2   6   19.51    1.75
  -3  -2   6   18.64    1.78
   3  -2  -6   22.00    1.47
   3  -2  -6   21.10    1.86
   3   2  -6   18.49    1.53
  -3   2   6   19.27    1.71
  -3   2   6   19.20    1.85
   3   2  -6   13.57    1.60
   3   2  -6   23.85    1.47
  -3   2   6   23.17    1.62
   2  -2  -6    0.86    0.45
  -2  -2   6    0.81    0.44
  -2  -2   6    0.77    0.45
   2  -2  -6    0.03    0.29
   2  -2  -6    0.21    0.36
  -2   2   6    0.46    0.27
   2   2  -6    0.30    0.32
   2   2  -6    0.47    0.34
  -2   2   6    0.01    0.31
   2   2  -6    0.57    0.34
  -2   2   6    1.19    0.52
  -1  -2   6    2.54    0.58
   1  -2  -6    3.51    0.76
  -1  -2   6    2.82    0.49
   1  -2  -6    2.65    0.50
  -1  -2   6    2.22    0.64
  -1  -2   6    2.04    0.66
   1  -2  -6    1.68    0.62
   1   2  -6    1.84    0.45
   1   2  -6    2.47    0.47
  -1   2   6    1.41    0.52
   1   2  -6    3.19    0.71
   1   2  -6    1.38    0.55
  -1   2   6    3.12    0.80
   0  -2   6   32.17    1.38
   0  -2  -6   27.67    1.98
   0  -2  -6   30.79    2.01
   0  -2   6   31.01    2.12
   0  -2  -6   30.95    1.76
   0  -2   6   30.87    2.05
   0   2  -6   30.73    1.87
   0   2   6   32.70    2.01
   0   2   6   29.14    1.97
   0   2  -6   29.17    1.92
   1  -2   6   31.83    1.63
  -1  -2  -6   30.22    2.04
   1  -2   6   32.13    2.28
  -1  -2  -6   35.57    2.20
  -1  -2  -6   35.34    2.05
   1  -2   6   36.64    2.25
  -1   2  -6   31.55    2.08
   1   2   6   36.62    2.11
   1   2   6   32.08    2.05
   1   2   6   34.29    2.18
  -1   2  -6   35.59    2.01
  -1   2  -6   32.47    1.77
   2  -2   6    2.56    0.82
  -2  -2  -6    3.65    0.83
   2  -2   6    4.83    1.05
  -2  -2  -6    4.46    0.93
  -2   2  -6    4.18    0.93
   2   2   6    3.47    0.87
   2   2   6    4.58    0.85
   2   2   6    5.44    0.79
  -2   2  -6    5.02    1.01
   3  -2   6   14.45    1.70
   3  -2   6   14.89    1.63
  -3  -2  -6   17.86    1.73
  -3  -2  -6   20.76    1.68
   3   2   6   19.91    1.84
   3   2   6   18.45    1.64
  -3   2  -6   17.48    1.63
  -3   2  -6   15.61    1.50
  -4  -2  -6   27.73    2.14
   4  -2   6   22.33    2.35
  -4  -2  -6   31.28    2.55
   4  -2   6   31.67    2.58
  -4   2  -6   24.68    2.17
  -4   2  -6   30.32    2.18
   4   2   6   25.89    2.28
  -4   2  -6   25.93    2.23
  -5  -2  -6   -0.09    0.51
   5  -2   6    0.48    0.65
   5  -2   6   -0.01    0.52
  -5   2  -6   -0.01    0.38
  -5   2  -6    0.23    0.52
   5   2   6    0.32    0.47
  -6  -2  -6    7.75    1.81
   6  -2   6    8.84    2.05
  -6   2  -6    9.61    2.04
   6   2   6   10.25    2.04
  -6   2  -6    8.99    1.78
   6  -3  -6    0.25    0.63
  -6  -3   6    0.17    0.64
  -6   3   6    0.67    0.71
  -6   3   6    0.39    0.61
   6   3  -6   -0.04    0.61
   5  -3  -6    0.24    0.60
  -5  -3   6    0.79    0.65
  -5   3   6    2.42    0.86
  -5   3   6    0.98    0.67
  -5   3   6    0.38    0.64
   5   3  -6    0.80    0.71
   4  -3  -6    5.24    1.22
  -4  -3   6    3.85    1.10
  -4   3   6    6.95    1.35
  -4   3   6    5.16    1.30
   4   3  -6    6.59    1.43
  -4   3   6    4.06    1.04
  -3  -3   6    0.45    0.42
   3  -3  -6    0.25    0.54
   3  -3  -6    0.37    0.50
  -3   3   6    0.20    0.41
   3   3  -6    0.16    0.41
  -3   3   6    1.20    0.64
   2  -3  -6   19.05    1.84
  -2  -3   6   24.05    1.72
  -2  -3   6   26.36    2.13
   2  -3  -6   22.16    1.76
  -2   3   6   22.20    1.84
   2   3  -6   27.78    2.15
   2   3  -6   24.64    1.74
  -2   3   6   22.13    1.90
   1  -3  -6   -0.09    0.24
   1  -3  -6    0.17    0.33
  -1  -3   6   -0.31    0.25
  -1  -3   6    0.44    0.33
   1  -3  -6    0.07    0.33
  -1  -3   6   -0.07    0.24
   1   3  -6   -0.03    0.31
  -1   3   6   -0.13    0.24
   1   3  -6    0.33    0.40
  -1   3   6    0.06    0.30
  -1   3   6   -0.18    0.19
   0  -3  -6    1.70    0.67
   0  -3   6    1.02    0.52
   0  -3  -6    2.60    0.70
   0  -3  -6    1.82    0.64
   0  -3   6    3.87    0.90
   0  -3   6    1.17    0.51
   0   3   6    2.82    0.80
   0   3   6    3.14    0.71
   0   3   6    1.87    0.60
   0   3  -6    2.98    0.80
   0   3  -6    2.81    0.72
   0   3  -6    2.85    0.70
  -1  -3  -6    0.72    0.52
  -1  -3  -6    0.08    0.30
   1  -3   6    0.30    0.34
   1  -3   6    0.36    0.39
  -1   3  -6   -0.06    0.34
   1   3   6   -0.04    0.31
  -1   3  -6   -0.15    0.24
   1   3   6   -0.08    0.25
  -2  -3  -6   68.29    3.64
   2  -3   6   68.84    3.83
  -2  -3  -6   64.92    3.54
   2  -3   6   63.89    3.80
  -2   3  -6   65.78    3.44
   2   3   6   67.38    3.49
  -2   3  -6   66.55    3.49
   2   3   6   66.48    3.63
  -3  -3  -6    1.99    0.71
   3  -3   6    5.05    1.31
  -3  -3  -6    3.29    1.05
   3  -3   6    7.00    1.47
  -3   3  -6    4.94    1.17
   3   3   6    1.62    0.76
   3   3   6    4.16    0.99
  -3   3  -6    3.14    0.84
   4  -3   6   14.40    1.90
  -4  -3  -6   13.05    1.74
   4  -3   6   15.16    1.93
  -4   3  -6   16.60    1.82
  -4   3  -6   21.22    1.89
  -4   3  -6   17.45    1.88
   4   3   6   17.09    1.90
   5  -3   6    3.16    1.19
  -5  -3  -6    2.73    1.07
   5  -3   6    4.65    1.48
  -5   3  -6    3.09    1.03
  -5   3  -6    3.71    1.21
   5   3   6    6.08    1.51
   5  -4  -6   -0.07    0.66
  -5  -4   6    1.03    0.85
   5   4  -6    1.97    1.03
  -5   4   6    0.69    0.80
  -5   4   6    0.75    0.71
  -4  -4   6    0.82    0.83
   4  -4  -6    1.58    0.80
   4  -4  -6   -0.03    0.47
  -4   4   6    0.50    0.52
  -4   4   6    0.99    0.67
  -4   4   6    1.13    0.62
   4   4  -6    1.65    0.85
   3  -4  -6    1.51    0.78
  -3  -4   6    1.06    0.68
   3  -4  -6    0.78    0.58
  -3   4   6    0.39    0.52
  -3   4   6    0.85    0.71
  -3   4   6    0.15    0.45
   3   4  -6    0.59    0.55
  -2  -4   6   12.88    1.59
  -2  -4   6   12.76    1.39
   2  -4  -6   11.73    1.39
   2  -4  -6   11.90    1.57
  -2   4   6   10.68    1.42
   2   4  -6   10.88    1.29
  -2   4   6   10.70    1.35
   2   4  -6   12.45    1.59
   1  -4  -6    0.21    0.47
  -1  -4   6   -0.20    0.36
  -1  -4   6    0.06    0.36
   1  -4  -6   -0.19    0.37
   1  -4  -6    0.27    0.27
   1   4  -6    0.42    0.49
  -1   4   6    0.73    0.48
   1   4  -6    0.21    0.37
  -1   4   6    1.14    0.63
   0  -4   6   21.13    2.11
   0  -4  -6   28.13    2.12
   0  -4   6   22.79    2.07
   0  -4  -6   22.88    2.04
   0   4  -6   26.81    2.07
   0   4  -6   26.93    1.99
   0   4  -6   26.95    2.00
   0   4   6   29.65    2.23
   0   4   6   23.79    2.02
  -1  -4  -6    1.34    0.64
   1  -4   6    2.20    0.85
  -1  -4  -6    0.64    0.53
   1  -4   6    1.56    0.75
   1  -4   6    1.13    0.56
   1   4   6    1.14    0.60
   1   4   6    0.61    0.53
  -1   4  -6    0.81    0.52
  -1   4  -6    1.40    0.69
   2  -4   6    9.24    1.37
  -2  -4  -6   10.01    1.71
   2  -4   6   11.67    1.66
  -2  -4  -6   11.09    1.52
  -2   4  -6   10.94    1.41
   2   4   6   10.87    1.45
  -2   4  -6   10.58    1.36
   2   4   6   12.74    1.53
   3  -4   6    1.43    0.76
  -3  -4  -6    1.13    0.69
   3  -4   6    1.53    0.85
  -3  -4  -6    0.75    0.68
   3   4   6    0.41    0.63
  -3   4  -6    1.39    0.62
   3   4   6   -0.03    0.45
  -3   4  -6    0.03    0.39
   4  -4   6    0.49    0.71
   4  -4   6    0.30    0.65
  -4  -4  -6   -0.03    0.52
   4   4   6    0.81    0.71
  -4   4  -6    0.64    0.59
   4   4   6    0.28    0.52
  -4   4  -6   -0.35    0.44
  -4   4  -6   -0.33    0.47
   5  -4   6   -0.40    0.61
  -5  -4  -6   -0.40    0.58
   5  -4   6   -0.09    0.59
  -5   4  -6    0.68    0.78
  -5   4  -6   -0.27    0.61
   5   4   6    0.12    0.64
  -4  -5   6    0.19    0.57
   4   5  -6   -0.04    0.65
  -3  -5   6    7.86    1.72
   3  -5  -6    4.67    1.24
   3  -5  -6    7.02    1.53
  -3   5   6    5.52    1.29
   3   5  -6    5.62    1.47
  -3   5   6    5.59    1.28
  -2  -5   6    0.44    0.50
   2  -5  -6   -0.36    0.42
  -2  -5   6    0.44    0.63
   2   5  -6    0.40    0.60
  -2   5   6   -0.35    0.41
   2   5  -6    0.53    0.61
  -2   5   6    0.43    0.48
  -2   5   6    0.24    0.51
   1  -5  -6    0.35    0.54
   1  -5  -6   -0.33    0.41
  -1  -5   6   -0.08    0.38
  -1  -5   6   -0.25    0.36
  -1   5   6    0.48    0.53
   1   5  -6    0.84    0.58
   1   5  -6    0.43    0.51
  -1   5   6   -0.12    0.31
   0  -5  -6    0.85    0.63
   0  -5   6    1.75    0.78
   0  -5   6    1.89    0.93
   0  -5  -6    0.69    0.53
   0   5  -6    1.45    0.64
   0   5  -6    0.47    0.52
   0   5   6    0.98    0.67
   0   5   6    1.15    0.64
   0   5  -6    1.12    0.65
  -1  -5  -6    0.21    0.62
   1  -5   6    1.38    0.84
  -1  -5  -6    1.73    0.81
   1  -5   6    1.23    0.74
  -1   5  -6    0.12    0.50
  -1   5  -6    0.95    0.62
   1   5   6    0.48    0.68
   1   5   6    0.89    0.61
  -2  -5  -6    6.87    1.56
  -2  -5  -6    6.57    1.57
   2  -5   6    2.20    0.98
  -2   5  -6    3.37    1.02
  -2   5  -6    2.03    0.81
   2   5   6    5.11    1.26
   2   5   6    5.35    1.34
  -3  -5  -6    0.40    0.67
   3  -5   6    0.04    0.46
   3  -5   6   -0.43    0.45
  -3  -5  -6   -0.97    0.48
   3   5   6    0.77    0.68
  -3   5  -6   -0.45    0.45
   3   5   6    0.82    0.69
  -3   5  -6   -0.15    0.60
   4  -5   6    0.56    0.77
   4  -5   6    0.18    0.72
  -4  -5  -6    0.52    0.78
  -4   5  -6    0.37    0.65
   4   5   6   -0.13    0.52
   4   5   6   -0.38    0.46
  -2  -6   6    3.09    1.20
   2  -6  -6    2.40    0.99
  -2  -6   6    4.36    1.33
  -2   6   6    3.36    1.00
   2   6  -6    3.16    1.02
  -2   6   6    4.04    1.20
   2   6  -6    3.14    1.23
   1  -6  -6   11.02    1.96
   1  -6  -6    9.73    2.06
  -1  -6   6    5.88    1.56
  -1  -6   6   12.82    1.81
   1   6  -6   11.02    1.97
  -1   6   6    5.63    1.51
   1   6  -6    9.98    1.88
   1   6  -6   11.99    1.70
  -1   6   6   10.14    1.83
   0  -6  -6    8.71    1.74
   0  -6   6    8.12    1.82
   0  -6   6   11.06    2.17
   0  -6  -6    6.99    1.53
   0   6   6   10.20    1.95
   0   6  -6   10.68    1.55
   0   6   6   13.24    2.15
   0   6  -6   13.00    1.81
   1  -6   6    5.41    1.55
  -1  -6  -6    4.20    1.26
   1  -6   6    5.11    1.50
  -1  -6  -6    4.75    1.45
  -1   6  -6    3.90    1.15
   1   6   6    5.50    1.41
  -1   6  -6    4.03    1.25
   1   6   6    4.83    1.35
  -2  -6  -6   -0.13    0.58
  -2  -6  -6    0.86    0.75
   2  -6   6    0.36    0.60
   2   6   6    1.26    0.70
  -2   6  -6    0.51    0.63
  -2   6  -6    0.33    0.53
   2   6   6   -0.05    0.52
  -6   0   7    0.28    0.64
  -6   0   7   -0.55    0.45
   6   0  -7   -0.25    0.56
   6   0  -7   -0.53    0.29
  -5   0   7    3.22    1.15
   5   0  -7    3.50    1.04
   5   0  -7    3.28    1.03
  -5   0   7    2.98    0.95
   4   0  -7    0.10    0.36
  -4   0   7   -0.07    0.36
   4   0  -7   -0.32    0.30
  -4   0   7    0.10    0.38
  -3   0   7   49.68    3.06
  -3   0   7   45.91    2.73
   3   0  -7   47.32    2.97
   3   0  -7   50.61    2.93
  -2   0   7   -0.01    0.26
  -2   0   7   -0.04    0.28
   2   0  -7   -0.01    0.29
   2   0  -7    0.05    0.28
  -2   0   7    0.21    0.27
  -1   0   7  178.07    7.08
  -1   0   7  187.51    6.61
   1   0  -7  185.24    6.62
   1   0  -7  181.69    6.91
  -1   0   7  183.95    6.39
   0   0   7    0.02    0.16
   0   0  -7    0.00    0.15
   0   0   7    0.31    0.28
   0   0  -7   -0.17    0.23
   0   0   7    0.11    0.34
   0   0  -7   -0.07    0.29
  -1   0  -7   52.53    2.56
  -1   0  -7   50.60    2.72
   1   0   7   46.57    2.90
   1   0   7   52.65    2.60
   1   0   7   52.49    2.36
  -2   0  -7   -0.31    0.16
  -2   0  -7   -0.11    0.23
   2   0   7   -0.18    0.17
   2   0   7    0.08    0.27
  -2   0  -7    0.00    0.31
   2   0   7    0.34    0.42
   2   0   7    0.26    0.32
   3   0   7    4.64    0.99
  -3   0  -7    7.12    1.26
  -3   0  -7    6.96    1.23
  -3   0  -7    6.19    0.80
   3   0   7    6.03    1.28
  -4   0  -7   -0.15    0.36
  -4   0  -7    0.35    0.41
   4   0   7    0.18    0.45
   4   0   7    0.01    0.38
  -5   0  -7    2.89    1.00
   5   0   7    4.57    1.25
   5   0   7    4.72    1.15
  -6   0  -7    0.19    0.54
   6   0   7   -0.26    0.50
   6   0   7   -0.66    0.43
  -6  -1   7    0.68    0.72
  -6  -1   7    2.66    1.25
   6  -1  -7    2.91    1.15
   6   1  -7    1.59    0.81
  -6   1   7    1.88    0.78
  -6   1   7    2.49    1.12
   6   1  -7    3.08    1.11
   5  -1  -7    3.90    1.09
  -5  -1   7    3.26    1.09
  -5  -1   7    3.29    1.08
   5  -1  -7    4.01    1.11
   5   1  -7    3.58    1.14
  -5   1   7    1.69    0.91
   5   1  -7    2.47    0.85
  -5   1   7    1.64    0.87
   4  -1  -7    1.56    0.72
  -4  -1   7    1.88    0.78
  -4  -1   7    1.36    0.68
   4  -1  -7    3.32    1.03
   4   1  -7    1.42    0.63
  -4   1   7    2.06    0.76
   4   1  -7    2.45    0.91
  -4   1   7    1.31    0.73
  -3  -1   7    3.48    0.88
   3  -1  -7    4.81    1.08
  -3  -1   7    3.10    0.90
   3  -1  -7    1.91    0.73
   3  -1  -7    3.82    0.77
   3   1  -7    2.37    0.72
   3   1  -7    2.76    0.87
  -3   1   7    2.64    0.78
  -3   1   7    4.44    1.10
  -3   1   7    2.77    0.72
   2  -1  -7   20.18    1.69
  -2  -1   7   22.08    1.86
   2  -1  -7   22.76    1.89
   2  -1  -7   24.80    1.58
  -2  -1   7   22.20    1.56
  -2  -1   7   21.59    1.68
   2   1  -7   22.79    1.64
  -2   1   7   24.09    1.76
  -2   1   7   23.22    1.51
  -2   1   7   21.16    1.85
   2   1  -7   20.03    1.76
   2   1  -7   24.18    1.57
   1  -1  -7   13.96    1.41
  -1  -1   7   16.31    1.31
   1  -1  -7   13.36    1.23
  -1  -1   7   14.33    1.46
   1   1  -7   15.06    0.86
  -1   1   7   14.16    1.28
  -1   1   7   13.50    1.38
   1   1  -7   15.35    1.28
   1   1  -7   14.37    1.36
  -1   1   7   15.02    0.98
   1   1  -7   15.45    1.19
   0  -1  -7   89.88    4.06
   0  -1   7   93.08    3.63
   0  -1   7   90.89    3.89
   0  -1  -7   93.87    4.13
   0  -1  -7   90.62    3.51
   0  -1   7   91.14    4.37
   0   1   7   97.33    4.08
   0   1  -7   95.21    4.09
   0   1  -7   97.39    4.00
   0   1   7   93.99    4.30
   0   1  -7   96.20    3.54
  -1  -1  -7   76.40    3.48
   1  -1   7   72.45    3.37
   1  -1   7   74.77    3.88
  -1  -1  -7   77.25    3.60
   1  -1   7   75.68    3.13
   1   1   7   70.98    3.65
   1   1   7   72.61    3.51
  -1   1  -7   74.68    3.20
  -1   1  -7   73.09    3.54
  -1   1  -7   75.29    3.23
  -2  -1  -7    1.29    0.50
   2  -1   7    0.71    0.39
   2  -1   7    1.56    0.70
  -2  -1  -7    1.06    0.57
  -2  -1  -7    0.40    0.33
  -2   1  -7    0.72    0.43
  -2   1  -7    1.11    0.53
   2   1   7    1.44    0.66
   2   1   7    1.13    0.52
  -3  -1  -7    9.19    1.24
  -3  -1  -7   11.33    1.27
   3  -1   7    9.76    1.41
   3  -1   7   14.92    1.49
  -3   1  -7   13.82    1.30
  -3   1  -7   12.06    1.36
   3   1   7    9.33    1.28
   3   1   7   10.54    1.33
  -3   1  -7   14.49    1.49
  -4  -1  -7    2.48    0.88
   4  -1   7    3.43    1.08
  -4  -1  -7    5.46    1.10
   4  -1   7    3.87    0.91
   4  -1   7    3.87    1.04
  -4   1  -7    3.68    0.91
  -4   1  -7    4.62    1.02
   4   1   7    2.00    0.81
   4   1   7    4.68    1.17
  -4   1  -7    1.42    0.69
  -5  -1  -7    0.89    0.65
   5  -1   7    1.91    0.74
   5  -1   7    1.65    0.94
   5   1   7    1.14    0.74
   5   1   7    1.29    0.72
  -5   1  -7    3.81    1.05
  -5   1  -7    1.59    0.84
   6  -1   7   -0.19    0.64
  -6  -1  -7   -0.86    0.55
  -6   1  -7    1.17    0.87
   6   1   7    2.01    0.92
   6  -2  -7   -0.29    0.53
  -6  -2   7    0.73    0.56
   6   2  -7    0.53    0.61
  -6   2   7   -0.06    0.45
   6   2  -7    0.40    0.58
  -6   2   7   -0.22    0.55
  -5  -2   7    0.50    0.63
  -5  -2   7   -0.18    0.39
   5  -2  -7    1.58    0.82
   5  -2  -7    0.65    0.65
   5   2  -7    0.95    0.61
   5   2  -7    1.66    0.87
  -5   2   7    0.50    0.45
  -5   2   7   -0.04    0.55
   4  -2  -7   14.74    1.75
  -4  -2   7   17.49    1.95
   4  -2  -7   13.84    1.71
  -4  -2   7   14.72    1.69
  -4   2   7   14.59    1.85
   4   2  -7   18.99    1.77
   4   2  -7   14.39    1.76
  -4   2   7   17.09    1.64
  -4   2   7   12.78    1.57
   3  -2  -7    1.26    0.59
  -3  -2   7    0.43    0.44
   3  -2  -7    0.99    0.64
   3  -2  -7    0.59    0.37
  -3  -2   7    0.23    0.40
  -3   2   7    1.70    0.65
  -3   2   7    0.19    0.46
   3   2  -7    0.74    0.63
  -3   2   7    0.33    0.44
   3   2  -7    0.61    0.42
   2  -2  -7   25.69    2.04
   2  -2  -7   30.93    2.25
   2  -2  -7   33.36    2.05
  -2  -2   7   28.21    2.19
  -2  -2   7   28.67    2.16
   2   2  -7   27.41    1.78
  -2   2   7   26.08    2.11
   2   2  -7   30.22    2.26
  -2   2   7   28.35    2.08
   2   2  -7   31.62    1.93
  -1  -2   7    0.34    0.33
   1  -2  -7    0.26    0.37
  -1  -2   7    0.65    0.45
  -1  -2   7    0.10    0.24
  -1  -2   7    0.25    0.24
   1  -2  -7   -0.17    0.31
  -1   2   7    0.35    0.36
   1   2  -7    0.76    0.52
   1   2  -7    0.40    0.39
  -1   2   7    0.44    0.36
   1   2  -7    0.45    0.27
   0  -2  -7    0.34    0.33
   0  -2   7    0.80    0.49
   0  -2  -7    1.58    0.58
   0  -2  -7    0.17    0.35
   0  -2   7    1.35    0.57
   0   2   7    0.33    0.36
   0   2  -7    1.05    0.47
   0   2   7    1.06    0.47
   0   2  -7   -0.09    0.28
  -1  -2  -7   30.69    2.18
   1  -2   7   29.80    2.32
   1  -2   7   34.83    2.29
  -1  -2  -7   32.96    2.05
  -1  -2  -7   34.21    2.23
   1   2   7   34.40    2.19
  -1   2  -7   33.33    1.89
  -1   2  -7   33.03    2.21
   1   2   7   33.05    2.18
   1   2   7   33.35    2.27
  -1   2  -7   37.95    2.14
   2  -2   7   14.42    1.50
   2  -2   7   16.85    1.75
  -2  -2  -7   12.82    1.36
  -2  -2  -7   14.83    1.43
   2   2   7   12.57    1.40
   2   2   7   11.32    1.26
   2   2   7   15.05    1.34
  -2   2  -7   17.09    1.54
  -2   2  -7   15.01    1.46
  -3  -2  -7   25.80    2.01
  -3  -2  -7   28.04    2.25
   3  -2   7   28.22    2.30
   3  -2   7   24.60    2.29
   3   2   7   26.61    2.25
  -3   2  -7   28.48    2.16
  -3   2  -7   23.72    2.02
  -4  -2  -7    0.29    0.53
   4  -2   7    0.45    0.41
  -4  -2  -7    0.78    0.51
   4  -2   7    0.57    0.50
  -4   2  -7    0.45    0.49
  -4   2  -7    0.54    0.46
  -4   2  -7   -0.05    0.42
   4   2   7    0.21    0.47
  -5  -2  -7    2.95    1.12
   5  -2   7    6.34    1.49
   5  -2   7    4.69    1.38
  -5   2  -7    4.56    1.30
  -5   2  -7    3.29    1.06
   5   2   7    2.60    0.92
   5  -3  -7    2.61    1.11
   5  -3  -7    1.25    0.74
  -5  -3   7    0.90    0.72
  -5   3   7    1.38    0.83
   5   3  -7    0.72    0.79
  -5   3   7    2.23    1.05
   4  -3  -7    0.50    0.56
  -4  -3   7   -0.49    0.36
   4  -3  -7   -0.09    0.46
  -4   3   7   -0.11    0.42
   4   3  -7   -0.17    0.50
  -4   3   7    0.69    0.65
   3  -3  -7    0.05    0.43
  -3  -3   7   -0.42    0.28
  -3  -3   7   -0.36    0.36
   3  -3  -7    0.45    0.43
   3  -3  -7    0.26    0.43
  -3   3   7    0.48    0.51
  -3   3   7    0.31    0.41
   3   3  -7   -0.42    0.33
  -2  -3   7    0.02    0.31
  -2  -3   7   -0.19    0.34
   2  -3  -7   -0.02    0.38
   2  -3  -7   -0.15    0.37
  -2   3   7   -0.06    0.25
  -2   3   7   -0.10    0.35
   2   3  -7   -0.11    0.35
   2   3  -7    0.18    0.38
  -1  -3   7    4.10    0.96
   1  -3  -7    3.33    0.89
  -1  -3   7    2.19    0.71
   1  -3  -7    3.58    0.99
  -1  -3   7    3.44    0.94
  -1   3   7    3.55    0.92
  -1   3   7    4.29    0.97
   1   3  -7    5.94    1.10
   1   3  -7    3.65    0.96
  -1   3   7    3.90    0.91
   0  -3  -7    1.79    0.70
   0  -3   7    2.31    0.78
   0  -3   7    0.92    0.46
   0  -3   7    1.28    0.62
   0  -3  -7    3.49    0.93
   0   3  -7    1.11    0.56
   0   3  -7    2.54    0.68
   0   3  -7    2.80    0.72
   0   3   7    2.17    0.66
   0   3   7    0.90    0.55
   0   3   7    2.11    0.72
   1  -3   7   -0.01    0.31
   1  -3   7   -0.07    0.36
  -1  -3  -7   -0.34    0.34
  -1  -3  -7    0.39    0.42
  -1  -3  -7    0.06    0.33
  -1   3  -7    0.03    0.29
   1   3   7   -0.29    0.25
  -1   3  -7    0.14    0.34
   1   3   7   -0.04    0.31
  -2  -3  -7    1.04    0.58
   2  -3   7    1.14    0.60
   2  -3   7    0.27    0.52
  -2  -3  -7    0.35    0.40
  -2   3  -7    1.58    0.68
   2   3   7    1.36    0.64
   2   3   7    0.19    0.39
  -2   3  -7    1.82    0.73
   3  -3   7    5.98    1.46
  -3  -3  -7    3.55    1.02
   3  -3   7    3.13    1.05
  -3  -3  -7    5.11    1.14
  -3   3  -7    5.71    1.25
   3   3   7    3.30    0.89
   3   3   7    7.02    1.55
  -3   3  -7    2.74    0.96
   4  -3   7    0.54    0.75
  -4  -3  -7    0.34    0.57
   4  -3   7    0.77    0.74
  -4  -3  -7    0.68    0.59
  -4   3  -7    1.47    0.71
  -4   3  -7    0.70    0.60
   4   3   7    0.11    0.50
  -4   3  -7   -0.10    0.48
  -5  -3  -7   -0.68    0.50
   5  -3   7   -0.16    0.64
   5  -3   7   -0.06    0.72
  -5   3  -7    0.53    0.66
  -5   3  -7    0.66    0.69
   5   3   7    0.01    0.52
   5  -4  -7    0.73    0.78
  -5  -4   7    0.07    0.62
  -5   4   7    0.94    0.75
   5   4  -7    2.28    1.15
  -5   4   7    2.23    1.07
   4  -4  -7    1.06    0.80
  -4  -4   7    2.48    1.07
   4  -4  -7    1.73    0.90
  -4   4   7    2.12    0.89
  -4   4   7    3.67    1.21
  -4   4   7    4.28    1.24
   4   4  -7    3.25    1.28
   3  -4  -7    4.74    1.21
  -3  -4   7    2.93    1.13
   3  -4  -7    3.17    0.93
  -3   4   7    2.56    0.93
  -3   4   7    4.06    1.07
   3   4  -7    3.42    1.13
  -3   4   7    1.65    0.72
  -2  -4   7   18.47    2.01
   2  -4  -7   17.08    1.96
   2  -4  -7   17.33    1.76
   2   4  -7   18.66    1.71
  -2   4   7   18.56    1.82
  -2   4   7   16.18    1.83
   2   4  -7   17.00    1.89
   1  -4  -7    1.59    0.79
  -1  -4   7    0.51    0.47
  -1  -4   7   -0.08    0.38
   1  -4  -7    0.48    0.53
  -1   4   7    0.51    0.47
   1   4  -7    0.09    0.39
   1   4  -7    0.72    0.48
   1   4  -7    0.69    0.55
  -1   4   7    0.37    0.49
   0  -4   7    2.96    0.83
   0  -4  -7    1.91    0.80
   0  -4   7    1.65    0.74
   0  -4   7    3.31    1.07
   0  -4  -7    1.48    0.67
   0  -4  -7    3.04    0.86
   0   4  -7    2.24    0.73
   0   4  -7    2.18    0.79
   0   4   7    3.48    0.99
   0   4  -7    3.26    0.89
   0   4   7    3.31    0.98
   1  -4   7    1.32    0.71
   1  -4   7    0.38    0.51
  -1  -4  -7    0.94    0.56
  -1  -4  -7    1.77    0.72
  -1   4  -7    0.51    0.49
  -1   4  -7    1.15    0.59
   1   4   7    1.78    0.73
   1   4   7    1.34    0.64
  -2  -4  -7    0.98    0.66
   2  -4   7    1.30    0.64
   2  -4   7    0.45    0.61
  -2  -4  -7    0.93    0.56
   2   4   7    1.52    0.71
  -2   4  -7    1.34    0.70
   2   4   7    2.06    0.82
  -2   4  -7    0.43    0.44
  -3  -4  -7    6.53    1.39
   3  -4   7    6.78    1.58
   3  -4   7    3.74    1.35
  -3  -4  -7    8.20    1.60
   3   4   7    5.26    1.35
   3   4   7    4.13    1.23
  -3   4  -7    6.17    1.41
  -3   4  -7    5.95    1.33
   4  -4   7    0.52    0.72
   4  -4   7   -0.30    0.63
  -4  -4  -7   -0.26    0.51
  -4   4  -7    0.78    0.61
   4   4   7   -0.08    0.55
  -4   4  -7    0.20    0.53
  -4  -5   7    2.30    1.20
   4  -5  -7    3.08    1.18
   4   5  -7    2.61    1.26
  -4   5   7    4.74    1.32
  -3  -5   7    1.39    0.82
   3  -5  -7    0.93    0.73
   3  -5  -7    0.69    0.64
  -3   5   7    1.07    0.77
   3   5  -7    1.96    0.98
  -3   5   7    0.89    0.73
   2  -5  -7   -0.24    0.60
   2  -5  -7   -0.07    0.49
  -2  -5   7    0.15    0.57
  -2   5   7   -0.24    0.35
   2   5  -7   -0.05    0.50
   2   5  -7    0.07    0.50
  -2   5   7   -0.19    0.40
   1  -5  -7   -0.01    0.49
  -1  -5   7   -0.48    0.46
  -1  -5   7   -0.07    0.44
   1   5  -7   -0.04    0.36
   1   5  -7    0.10    0.45
   1   5  -7    0.82    0.60
  -1   5   7   -0.15    0.42
  -1   5   7   -0.40    0.36
   0  -5  -7    2.00    0.81
   0  -5   7    0.81    0.73
   0  -5   7    2.28    1.02
   0  -5  -7    0.37    0.54
   0   5   7    1.74    0.78
   0   5   7   -0.04    0.47
   0   5  -7    0.95    0.64
   0   5  -7    0.61    0.50
  -1  -5  -7    0.18    0.52
   1  -5   7    0.28    0.52
  -1  -5  -7   -0.13    0.55
   1   5   7    0.17    0.57
  -1   5  -7   -0.16    0.38
   1   5   7   -0.15    0.36
  -1   5  -7    0.08    0.39
  -2  -5  -7    0.28    0.53
   2  -5   7   -0.59    0.38
  -2  -5  -7    0.21    0.59
  -2   5  -7   -0.18    0.49
   2   5   7    0.55    0.61
   2   5   7    0.58    0.59
  -2   5  -7   -0.15    0.47
   3  -5   7    0.44    0.61
  -3  -5  -7    1.35    0.83
  -3  -5  -7    0.78    0.79
   3  -5   7    0.35    0.72
   3   5   7    2.23    0.91
  -3   5  -7    0.64    0.62
  -3   5  -7    2.67    1.04
   3   5   7    1.63    0.87
  -2  -6   7    3.14    1.42
   2  -6  -7    4.56    1.34
   2   6  -7    4.21    1.23
  -2   6   7    2.11    0.87
  -2   6   7    2.41    1.03
   2   6  -7    3.96    1.18
   1  -6  -7    1.41    0.80
  -1  -6   7    2.67    1.20
  -1  -6   7    3.00    1.10
  -1   6   7    2.11    0.97
   1   6  -7    1.91    0.95
   1   6  -7    1.07    0.74
   1   6  -7    1.14    0.75
  -1   6   7    0.41    0.60
   0  -6  -7    0.16    0.57
   0  -6  -7    0.72    0.72
   0  -6   7    0.75    0.68
   0  -6   7    0.50    0.61
   0   6  -7    0.21    0.57
   0   6   7    0.47    0.82
   0   6   7   -0.14    0.57
   0   6  -7   -0.08    0.53
   1  -6   7   -0.19    0.49
  -1  -6  -7    0.38    0.58
   1  -6   7    0.97    0.71
  -1  -6  -7    1.20    0.77
  -1   6  -7    0.01    0.48
  -1   6  -7    0.22    0.51
   1   6   7    0.13    0.58
   1   6   7    0.47    0.77
  -6   0   8    1.51    0.79
   6   0  -8    0.54    0.79
  -6   0   8    1.95    0.97
   6   0  -8    2.45    1.06
   5   0  -8    0.41    0.59
  -5   0   8    0.65    0.61
   5   0  -8    0.01    0.39
  -5   0   8   -0.08    0.40
  -4   0   8   -0.01    0.36
   4   0  -8   -0.32    0.31
   4   0  -8   -0.39    0.38
  -4   0   8    0.15    0.42
  -3   0   8    0.03    0.35
  -3   0   8   -0.14    0.28
  -3   0   8    0.25    0.38
   3   0  -8    0.22    0.34
   3   0  -8   -0.22    0.29
  -2   0   8    4.61    0.87
  -2   0   8    3.73    1.04
   2   0  -8    5.64    1.06
   2   0  -8    6.03    1.01
   2   0  -8    4.77    1.09
  -2   0   8    4.60    0.92
   1   0  -8   -0.16    0.26
  -1   0   8    0.26    0.24
  -1   0   8    0.21    0.31
   1   0  -8    0.05    0.34
  -1   0   8   -0.14    0.21
   0   0  -8    7.99    1.05
   0   0   8    8.14    1.12
   0   0  -8    6.99    0.66
   0   0   8    6.67    0.85
   0   0   8    6.31    0.71
   0   0  -8    5.59    1.04
   1   0   8   -0.07    0.24
  -1   0  -8   -0.07    0.24
   1   0   8    0.24    0.39
  -1   0  -8   -0.11    0.24
   2   0   8   -0.33    0.20
   2   0   8    0.08    0.28
  -2   0  -8   -0.20    0.24
  -2   0  -8    0.11    0.37
  -3   0  -8   -0.15    0.31
   3   0   8    0.00    0.37
   3   0   8    0.34    0.40
  -3   0  -8    0.33    0.43
  -4   0  -8    0.41    0.40
   4   0   8    0.17    0.50
   4   0   8   -0.07    0.41
   5   0   8   -0.15    0.41
   5   0   8   -0.15    0.45
  -5   0  -8   -0.34    0.50
  -6  -1   8    0.16    0.63
  -6  -1   8    0.10    0.56
   6  -1  -8   -0.28    0.60
   6  -1  -8    0.17    0.52
   6   1  -8    0.67    0.65
   6   1  -8   -0.61    0.54
  -6   1   8    0.31    0.58
  -6   1   8    2.10    1.04
   5  -1  -8   13.05    1.78
   5  -1  -8   14.56    1.85
  -5  -1   8   12.99    1.77
  -5  -1   8   14.04    1.83
   5   1  -8   13.52    1.77
  -5   1   8   16.73    1.87
   5   1  -8   12.00    1.75
  -5   1   8   11.59    1.82
   4  -1  -8   -0.06    0.45
  -4  -1   8    0.09    0.44
   4  -1  -8   -0.23    0.40
  -4  -1   8   -0.08    0.31
  -4   1   8    0.13    0.46
   4   1  -8   -0.07    0.49
  -4   1   8   -0.51    0.35
   4   1  -8    0.20    0.42
  -4   1   8   -0.13    0.24
  -3  -1   8   26.10    2.26
   3  -1  -8   21.90    2.01
   3  -1  -8   26.68    2.20
  -3  -1   8   25.28    2.04
  -3   1   8   28.17    1.95
   3   1  -8   21.25    1.87
  -3   1   8   24.04    1.99
   3   1  -8   26.54    2.27
  -3   1   8   24.16    2.21
  -2  -1   8   -0.05    0.28
   2  -1  -8    0.27    0.32
  -2  -1   8   -0.13    0.26
   2  -1  -8    0.45    0.41
   2  -1  -8   -0.01    0.34
  -2  -1   8    0.24    0.46
   2   1  -8    0.87    0.56
   2   1  -8    0.14    0.28
  -2   1   8    0.23    0.40
   2   1  -8    0.74    0.43
  -2   1   8    0.47    0.41
  -1  -1   8   -0.28    0.28
  -1  -1   8   -0.18    0.18
   1  -1  -8    0.29    0.36
   1  -1  -8    0.25    0.46
   1   1  -8    0.48    0.35
   1   1  -8    0.30    0.34
  -1   1   8    0.08    0.30
  -1   1   8    0.29    0.31
   0  -1  -8    3.83    0.90
   0  -1   8    1.65    0.51
   0  -1   8    2.99    0.62
   0  -1  -8    2.01    0.67
   0  -1   8    2.73    0.85
   0  -1  -8    3.46    0.61
   0   1  -8    3.71    0.86
   0   1  -8    2.81    0.53
   0   1   8    2.39    0.69
   0   1  -8    2.56    0.72
   0   1   8    1.90    0.74
  -1  -1  -8    1.43    0.55
  -1  -1  -8    1.65    0.65
   1  -1   8    2.38    0.64
   1  -1   8    0.58    0.49
   1  -1   8    1.04    0.42
   1   1   8    2.10    0.75
  -1   1  -8    3.08    0.81
   1   1   8    1.71    0.64
  -1   1  -8    1.48    0.50
  -2  -1  -8    0.76    0.53
   2  -1   8    1.08    0.54
  -2  -1  -8    0.90    0.47
   2  -1   8    0.47    0.48
  -2  -1  -8    0.77    0.44
   2   1   8    1.12    0.56
  -2   1  -8    0.87    0.48
   2   1   8    0.63    0.49
  -2   1  -8    0.60    0.55
  -3  -1  -8    3.93    0.98
   3  -1   8    6.85    1.26
   3  -1   8    3.29    1.02
  -3  -1  -8    6.06    1.24
  -3   1  -8    6.36    1.11
  -3   1  -8    5.37    1.16
   3   1   8    7.05    1.44
  -3   1  -8    6.36    1.23
   3   1   8    8.57    1.51
   4  -1   8    0.13    0.44
  -4  -1  -8    0.14    0.37
  -4  -1  -8   -0.06    0.45
   4   1   8    0.13    0.43
  -4   1  -8    0.30    0.49
  -4   1  -8   -0.13    0.36
  -4   1  -8    0.58    0.48
   4   1   8    0.02    0.35
   5  -1   8   12.98    1.90
  -5  -1  -8   10.21    1.93
   5   1   8   14.89    1.84
  -5   1  -8   13.71    1.85
   5   1   8   10.08    1.93
  -6  -2   8    0.72    0.75
   6   2  -8    0.92    0.85
   6   2  -8    1.93    0.96
   5  -2  -8    0.43    0.65
   5  -2  -8    0.90    0.64
  -5  -2   8    0.13    0.59
  -5  -2   8    0.34    0.54
   5   2  -8    0.36    0.64
  -5   2   8   -0.19    0.35
   5   2  -8   -0.10    0.38
  -5   2   8   -0.03    0.57
  -4  -2   8    1.64    0.80
  -4  -2   8    0.06    0.46
   4  -2  -8    1.36    0.90
   4  -2  -8    0.30    0.53
  -4   2   8    0.94    0.56
   4   2  -8    1.06    0.58
   4   2  -8   -0.12    0.46
  -4   2   8    1.25    0.73
  -3  -2   8    4.04    1.09
  -3  -2   8    5.47    1.25
   3  -2  -8    2.63    0.99
   3  -2  -8    3.41    0.96
   3   2  -8    7.83    1.51
  -3   2   8    5.29    1.19
   3   2  -8    4.75    1.05
  -3   2   8    4.47    1.17
   2  -2  -8    0.95    0.48
  -2  -2   8    1.68    0.51
  -2  -2   8    1.31    0.70
   2  -2  -8    0.83    0.55
  -2  -2   8    1.56    0.70
  -2   2   8    0.94    0.53
   2   2  -8    1.54    0.66
  -2   2   8    0.43    0.45
   2   2  -8    0.84    0.53
   1  -2  -8   12.59    1.37
   1  -2  -8   16.08    1.64
  -1  -2   8   18.30    1.63
  -1  -2   8   19.36    1.78
  -1   2   8   12.96    1.47
  -1   2   8   12.44    1.40
   1   2  -8   18.44    1.56
   1   2  -8   18.82    1.69
   0  -2   8    8.17    1.09
   0  -2   8    8.16    1.23
   0  -2  -8   10.17    1.23
   0  -2  -8    7.45    1.10
   0  -2  -8    9.20    1.07
   0   2   8    7.51    1.08
   0   2  -8    9.20    1.10
   0   2  -8    9.49    0.96
   0   2  -8    9.18    1.16
   0   2   8    6.36    1.18
   1  -2   8   -0.18    0.36
  -1  -2  -8    0.31    0.34
  -1  -2  -8    0.13    0.32
   1   2   8    0.40    0.39
   1   2   8   -0.38    0.32
   1   2   8   -0.05    0.33
  -1   2  -8    0.01    0.29
  -1   2  -8    0.01    0.41
  -2  -2  -8    2.72    0.78
   2  -2   8    1.96    0.73
  -2  -2  -8    1.19    0.66
   2  -2   8    3.27    1.06
  -2   2  -8    2.29    0.78
   2   2   8    2.24    0.88
  -2   2  -8    1.68    0.61
   2   2   8    2.71    0.82
   2   2   8    2.04    0.69
   3  -2   8    8.28    1.52
   3  -2   8   12.23    1.63
  -3  -2  -8    9.11    1.51
  -3  -2  -8    9.81    1.33
  -3   2  -8    8.32    1.50
  -3   2  -8   11.02    1.38
   3   2   8    8.49    1.53
   4  -2   8    0.98    0.57
  -4  -2  -8    0.69    0.65
  -4  -2  -8    0.67    0.61
   4  -2   8    0.40    0.60
   4   2   8    0.77    0.59
  -4   2  -8    0.57    0.60
  -4   2  -8    0.82    0.56
  -4   2  -8    1.27    0.71
   5  -2   8    1.84    0.90
   5  -2   8    2.47    1.01
  -5  -2  -8    1.20    0.83
  -5   2  -8    2.65    1.01
   5   2   8    0.87    0.71
  -5   2  -8    1.18    0.93
  -5  -3   8    2.19    0.94
   5  -3  -8    0.19    0.63
   5  -3  -8    2.91    1.15
  -5   3   8    1.91    1.04
   5   3  -8    1.09    0.84
  -5   3   8    1.93    0.91
  -4  -3   8    0.62    0.60
   4  -3  -8    1.32    0.75
   4  -3  -8    0.98    0.74
   4   3  -8    2.45    1.07
  -4   3   8    0.94    0.65
  -4   3   8    2.90    1.17
   3  -3  -8    1.06    0.68
   3  -3  -8   -0.40    0.59
  -3  -3   8    0.05    0.50
  -3  -3   8    1.56    0.84
  -3   3   8    0.29    0.50
  -3   3   8    0.01    0.39
   3   3  -8    0.27    0.54
  -2  -3   8    7.58    1.41
   2  -3  -8    7.75    1.51
   2  -3  -8    6.32    1.18
  -2  -3   8    3.19    0.92
  -2   3   8    5.73    1.24
  -2   3   8    5.59    1.20
   2   3  -8    6.22    1.37
   2   3  -8    6.73    1.22
  -1  -3   8   -0.25    0.22
   1  -3  -8    0.15    0.39
  -1  -3   8    0.35    0.46
   1  -3  -8   -0.16    0.35
   1   3  -8   -0.11    0.35
  -1   3   8    0.21    0.39
  -1   3   8    0.08    0.42
   1   3  -8   -0.11    0.34
  -1   3   8    0.44    0.46
   0  -3  -8    0.24    0.37
   0  -3  -8    0.40    0.49
   0  -3   8   -0.22    0.30
   0  -3   8    0.31    0.40
   0   3   8    0.43    0.41
   0   3   8    0.02    0.30
   0   3  -8   -0.03    0.34
   0   3   8    0.11    0.44
   0   3  -8    0.61    0.53
   0   3  -8    0.27    0.33
   1  -3   8    6.10    1.29
  -1  -3  -8    4.19    0.97
  -1  -3  -8    6.49    1.36
  -1  -3  -8    9.14    1.59
   1  -3   8    4.04    1.09
  -1   3  -8    4.91    1.13
  -1   3  -8    5.47    1.08
   1   3   8    5.27    1.17
   1   3   8    5.17    1.11
  -2  -3  -8    3.71    1.07
   2  -3   8    4.05    1.12
  -2  -3  -8    3.30    0.97
   2  -3   8    3.71    1.13
  -2   3  -8    6.12    1.28
   2   3   8    6.35    1.37
  -2   3  -8    5.89    1.26
   2   3   8    4.59    1.09
  -3  -3  -8   14.96    1.71
   3  -3   8   18.18    2.10
   3  -3   8   13.42    1.74
  -3  -3  -8   14.14    1.68
  -3   3  -8   18.37    1.86
   3   3   8   14.03    1.55
   3   3   8   15.42    1.89
  -3   3  -8   14.23    1.71
  -4  -3  -8    0.56    0.56
   4  -3   8    2.70    1.02
   4  -3   8    0.14    0.58
  -4  -3  -8    1.54    0.87
   4   3   8    1.46    0.89
  -4   3  -8    1.13    0.70
  -4   3  -8    1.38    0.80
  -4   3  -8    1.06    0.67
   5  -3   8    1.74    1.03
   5  -3   8    4.56    1.46
  -5  -3  -8    2.65    1.17
   5   3   8    6.18    1.61
  -5   3  -8    3.24    1.16
  -5   3  -8    4.32    1.29
  -4  -4   8    3.74    1.27
   4  -4  -8    6.83    1.62
   4   4  -8    2.76    1.16
  -4   4   8    3.27    1.09
  -4   4   8    1.65    0.85
  -4   4   8    2.54    1.05
  -3  -4   8   13.92    1.89
   3  -4  -8    9.78    1.85
  -3   4   8    8.60    1.68
  -3   4   8   16.61    1.89
   3   4  -8   13.65    1.91
  -3   4   8   13.28    1.64
   2  -4  -8   -0.05    0.41
  -2  -4   8    0.18    0.48
   2  -4  -8   -0.28    0.44
  -2   4   8   -0.44    0.42
   2   4  -8    0.61    0.54
  -2   4   8   -0.33    0.31
   2   4  -8   -0.17    0.40
  -1  -4   8    0.18    0.45
   1  -4  -8   -0.20    0.33
   1   4  -8    0.92    0.60
  -1   4   8    0.14    0.45
  -1   4   8    0.71    0.57
   1   4  -8   -0.14    0.37
   0  -4   8    3.36    1.02
   0  -4  -8    3.36    1.01
   0  -4   8    2.81    0.92
   0  -4  -8    2.95    0.91
   0  -4   8    2.03    0.86
   0   4  -8    2.31    0.74
   0   4  -8    2.41    0.82
   0   4   8    1.98    0.75
   0   4   8    1.36    0.73
   1  -4   8   24.51    2.33
  -1  -4  -8   30.82    2.48
   1  -4   8   30.20    2.65
  -1  -4  -8   29.04    2.36
  -1   4  -8   24.86    2.22
  -1   4  -8   28.52    2.27
   1   4   8   27.86    2.40
   1   4   8   24.10    2.22
   2  -4   8    1.59    0.87
   2  -4   8    1.47    0.87
  -2  -4  -8    1.74    0.81
  -2  -4  -8    3.63    1.11
  -2   4  -8    1.76    0.84
   2   4   8    1.68    0.92
  -2   4  -8    1.78    0.80
   2   4   8    2.20    0.86
  -3  -4  -8   13.85    1.76
  -3  -4  -8   13.79    1.88
   3  -4   8   17.09    2.14
   3  -4   8   16.48    2.13
  -3   4  -8   16.28    1.95
   3   4   8   14.12    1.74
  -3   4  -8   14.35    1.73
   3   4   8   15.63    1.95
   4  -4   8    0.02    0.63
   4  -4   8    0.08    0.54
  -4  -4  -8   -0.92    0.44
  -4   4  -8    0.48    0.57
  -4   4  -8    0.13    0.53
   4   4   8   -0.12    0.46
  -3  -5   8    4.08    1.32
   3  -5  -8    4.04    1.27
  -3   5   8    2.71    1.01
  -3   5   8    1.92    0.92
   3   5  -8    4.01    1.34
  -2  -5   8    3.54    1.27
   2  -5  -8    1.96    0.99
   2  -5  -8    4.18    1.38
  -2   5   8    3.20    1.03
   2   5  -8    5.72    1.53
   2   5  -8    3.93    1.10
  -2   5   8    3.88    1.24
  -1  -5   8   29.86    2.85
   1  -5  -8   26.74    2.46
  -1   5   8   30.23    2.66
   1   5  -8   29.77    2.59
  -1   5   8   27.66    2.44
   1   5  -8   27.58    2.47
   0  -5   8    4.98    1.44
   0  -5   8    6.09    1.52
   0  -5  -8    2.79    1.10
   0   5   8    6.12    1.39
   0   5  -8    5.79    1.30
   0   5   8    6.50    1.45
   0   5  -8    6.89    1.57
  -1  -5  -8   11.02    1.62
  -1  -5  -8    8.27    1.71
   1  -5   8    9.47    1.98
   1   5   8   11.94    1.63
   1   5   8   12.01    1.77
  -1   5  -8   11.31    1.55
  -1   5  -8   11.32    1.55
  -2  -5  -8   -0.26    0.57
   2  -5   8    0.13    0.56
  -2  -5  -8   -0.05    0.57
   2   5   8    0.30    0.61
  -2   5  -8   -0.09    0.46
   2   5   8    0.38    0.63
  -2   5  -8    0.55    0.57
   3  -5   8    1.35    0.91
  -3  -5  -8    0.18    0.66
  -3  -5  -8    0.63    0.67
   3  -5   8    0.91    0.80
   3   5   8    0.35    0.61
   3   5   8    0.03    0.63
  -3   5  -8    1.00    0.69
  -3   5  -8    1.13    0.84
   0  -6   8    0.60    0.77
   0   6  -8    0.23    0.71
   0   6  -8   -0.61    0.49
   0   6   8    0.60    0.62
   6   0  -9   -0.55    0.52
  -6   0   9    0.15    0.58
  -6   0   9   -0.01    0.56
   6   0  -9   -0.92    0.58
   5   0  -9    3.63    1.17
   5   0  -9    2.08    0.90
  -5   0   9    2.09    1.05
  -5   0   9    3.43    1.07
  -4   0   9    0.74    0.60
  -4   0   9    0.11    0.41
   4   0  -9   -0.02    0.46
   4   0  -9    0.21    0.67
  -4   0   9    0.25    0.44
  -3   0   9   10.72    1.51
   3   0  -9    6.32    1.34
  -3   0   9    9.16    1.21
   3   0  -9    7.33    1.50
  -3   0   9    6.88    1.23
   2   0  -9    0.43    0.45
   2   0  -9   -0.22    0.24
   2   0  -9   -0.09    0.38
  -2   0   9   -0.17    0.24
  -2   0   9    0.36    0.40
  -2   0   9    0.08    0.38
   1   0  -9   91.76    4.16
   1   0  -9   81.39    4.30
  -1   0   9   92.57    4.06
  -1   0   9   92.61    4.66
   0   0   9   -0.19    0.27
   0   0  -9   -0.08    0.31
   0   0   9    0.29    0.37
   0   0  -9    0.01    0.27
  -1   0  -9   24.60    1.80
   1   0   9   23.57    1.79
  -1   0  -9   24.58    1.64
   1   0   9   25.38    2.27
  -1   0  -9   20.54    1.83
   2   0   9    0.34    0.39
  -2   0  -9    0.11    0.37
  -2   0  -9    0.69    0.51
   2   0   9   -0.24    0.28
  -3   0  -9    1.30    0.61
   3   0   9    2.06    0.78
  -3   0  -9    0.11    0.52
   3   0   9    1.57    0.75
   4   0   9   -0.49    0.43
  -4   0  -9    0.18    0.55
   4   0   9    0.26    0.45
  -4   0  -9    0.10    0.40
   5   0   9    0.51    0.75
  -5   0  -9    1.35    0.80
   5   0   9    1.59    0.82
   5  -1  -9    2.32    1.11
   5  -1  -9    0.66    0.63
  -5  -1   9    2.49    1.03
  -5  -1   9    2.51    1.04
   5   1  -9    1.97    0.93
  -5   1   9    2.82    0.98
  -5   1   9    3.47    1.30
   5   1  -9    1.76    0.86
   4  -1  -9   -0.24    0.43
  -4  -1   9    0.03    0.50
  -4  -1   9    0.25    0.43
   4  -1  -9    1.08    0.60
   4   1  -9    1.21    0.63
  -4   1   9    0.39    0.57
   4   1  -9    0.41    0.56
  -4   1   9   -0.28    0.34
  -3  -1   9    9.73    1.24
  -3  -1   9   11.74    1.63
   3  -1  -9    8.00    1.50
  -3  -1   9   11.91    1.41
   3  -1  -9    8.45    1.65
   3   1  -9   13.34    1.46
  -3   1   9    9.96    1.32
   3   1  -9   11.22    1.57
  -3   1   9   11.22    1.59
   2  -1  -9   12.44    1.55
   2  -1  -9   18.75    1.53
  -2  -1   9   12.22    1.35
  -2  -1   9   13.82    1.68
  -2  -1   9   14.03    1.34
  -2   1   9   13.90    1.46
  -2   1   9   13.47    1.64
   2   1  -9   11.51    1.27
   2   1  -9   14.52    1.41
   2   1  -9    9.17    1.34
  -1  -1   9    0.68    0.49
   1  -1  -9   -0.53    0.19
  -1  -1   9   -0.13    0.22
   1  -1  -9    0.03    0.38
  -1   1   9   -0.11    0.29
   1   1  -9   -0.07    0.31
  -1   1   9    0.14    0.33
   1   1  -9    0.08    0.38
   0  -1  -9   43.78    2.72
   0  -1   9   45.23    3.04
   0  -1  -9   44.09    2.75
   0  -1   9   41.89    2.48
   0  -1   9   43.05    2.81
   0   1  -9   45.21    2.69
   0   1   9   43.21    2.66
   0   1  -9   42.80    2.70
   0   1   9   38.89    2.80
   1  -1   9   13.35    1.65
   1  -1   9   10.96    1.20
  -1  -1  -9   10.28    1.24
  -1  -1  -9   10.10    1.09
  -1  -1  -9   12.03    1.41
   1  -1   9   11.92    1.14
   1   1   9   14.48    1.64
   1   1   9   12.01    1.39
  -1   1  -9    9.84    1.30
   2  -1   9    3.33    1.06
  -2  -1  -9    6.15    1.25
  -2  -1  -9    2.39    0.73
  -2   1  -9    3.88    0.96
   2   1   9    3.82    0.95
   2   1   9    4.10    1.12
  -2   1  -9    1.14    0.60
  -3  -1  -9    2.20    0.78
  -3  -1  -9    1.49    0.68
   3  -1   9    1.77    0.86
   3   1   9    3.37    1.02
  -3   1  -9    2.58    0.88
   3   1   9    2.90    0.96
  -3   1  -9    3.25    0.95
  -4  -1  -9    1.69    0.74
   4  -1   9    1.44    0.80
  -4  -1  -9    0.67    0.53
  -4   1  -9    1.38    0.66
   4   1   9    0.31    0.56
  -4   1  -9    1.75    0.79
   4   1   9    2.22    0.88
  -5  -1  -9    1.30    0.79
   5  -1   9   -0.34    0.56
   5   1   9   -0.33    0.53
  -5   1  -9    0.00    0.63
  -5  -2   9   -0.65    0.31
  -5  -2   9    0.16    0.54
   5  -2  -9    0.75    0.81
   5  -2  -9   -0.38    0.46
   5   2  -9   -0.05    0.60
  -5   2   9   -0.12    0.59
  -5   2   9   -0.28    0.51
   4  -2  -9    0.23    0.49
   4  -2  -9    1.18    0.77
  -4  -2   9    2.01    0.94
  -4  -2   9    1.45    0.81
  -4   2   9    1.24    0.76
   4   2  -9   -0.02    0.53
  -4   2   9    0.26    0.49
  -3  -2   9   -0.10    0.42
   3  -2  -9   -0.33    0.39
   3  -2  -9   -0.06    0.53
  -3  -2   9   -0.25    0.32
   3   2  -9   -0.04    0.38
  -3   2   9    0.05    0.35
  -3   2   9    0.26    0.48
   2  -2  -9   -0.10    0.36
  -2  -2   9    1.59    0.67
  -2  -2   9    1.20    0.68
   2   2  -9    0.52    0.46
  -2   2   9    1.23    0.62
   2   2  -9    1.01    0.52
  -2   2   9    1.93    0.86
   1  -2  -9    2.81    0.92
  -1  -2   9    3.53    0.93
   1  -2  -9    3.29    0.92
  -1  -2   9    3.93    1.09
  -1   2   9    5.79    1.13
   1   2  -9    4.46    1.09
  -1   2   9    3.05    0.95
   1   2  -9    3.84    1.05
   0  -2  -9    9.30    1.35
   0  -2   9    8.52    1.19
   0  -2  -9    8.89    1.20
   0  -2   9    8.38    1.33
   0   2  -9    9.50    1.15
   0   2  -9    9.58    1.59
   0   2   9   12.70    1.41
   0   2   9   10.62    1.36
   1  -2   9    6.75    1.29
  -1  -2  -9    6.63    1.27
   1  -2   9    3.78    1.10
  -1  -2  -9    4.53    1.06
   1   2   9    4.84    1.10
   1   2   9    4.99    1.16
  -1   2  -9    6.60    0.91
   1   2   9    4.77    1.14
  -1   2  -9    5.20    1.19
   2  -2   9   23.44    2.05
   2  -2   9   24.65    2.38
  -2  -2  -9   23.93    1.96
  -2  -2  -9   25.98    2.04
  -2  -2  -9   18.95    1.85
  -2   2  -9   24.64    1.97
  -2   2  -9   22.05    2.06
   2   2   9   23.71    1.93
   2   2   9   21.99    2.06
   2   2   9   26.36    2.24
  -3  -2  -9    0.91    0.65
  -3  -2  -9    1.90    0.81
   3  -2   9    1.48    0.85
   3  -2   9    2.54    0.94
   3   2   9    1.17    0.73
  -3   2  -9    2.11    0.77
  -3   2  -9    1.82    0.78
  -4  -2  -9    0.41    0.50
  -4  -2  -9    0.84    0.75
   4  -2   9    0.80    0.80
  -4   2  -9    0.53    0.71
   4   2   9    0.77    0.73
  -4   2  -9    1.13    0.65
  -4   2  -9    0.24    0.56
  -5  -2  -9    1.93    0.93
   5  -2   9    1.06    0.78
  -5   2  -9    1.12    0.87
   5   2   9    0.75    0.72
  -5  -3   9    0.17    0.56
   5  -3  -9    0.20    0.60
   5  -3  -9    0.89    0.70
  -5   3   9   -0.08    0.66
   5   3  -9   -0.81    0.59
  -5   3   9   -0.05    0.62
   4  -3  -9   -0.43    0.40
   4  -3  -9    0.20    0.49
  -4  -3   9   -0.34    0.42
  -4   3   9    0.25    0.41
  -4   3   9    0.22    0.55
   4   3  -9   -0.97    0.37
  -3  -3   9    8.94    1.67
  -3  -3   9    8.69    1.70
   3  -3  -9    7.86    1.62
   3   3  -9    9.83    1.88
  -3   3   9    9.13    1.69
  -3   3   9    7.94    1.70
   2  -3  -9    0.07    0.48
  -2  -3   9    0.84    0.58
  -2  -3   9    1.90    0.76
   2  -3  -9   -0.03    0.40
  -2   3   9    0.91    0.62
   2   3  -9    1.18    0.64
   2   3  -9    1.89    0.77
  -2   3   9    1.67    0.73
  -1  -3   9    4.81    1.14
  -1  -3   9    7.03    1.49
   1  -3  -9    5.25    1.21
   1  -3  -9    4.82    1.23
   1   3  -9    5.44    1.21
  -1   3   9    5.00    1.17
  -1   3   9    3.68    1.02
  -1   3   9    6.09    1.30
   1   3  -9    5.90    1.25
   0  -3   9    1.90    0.84
   0  -3  -9    1.92    0.80
   0  -3  -9    1.89    0.73
   0  -3   9    2.32    0.96
   0   3  -9    4.20    0.99
   0   3   9    1.84    0.73
   0   3  -9    0.25    0.47
   0   3   9    1.43    0.69
   1  -3   9   -0.10    0.35
  -1  -3  -9    0.03    0.42
  -1  -3  -9    0.27    0.50
   1  -3   9   -0.19    0.46
  -1   3  -9   -0.09    0.34
  -1   3  -9   -0.13    0.36
   1   3   9   -0.15    0.38
   1   3   9   -0.20    0.36
  -2  -3  -9   11.52    1.47
   2  -3   9   10.08    1.57
  -2  -3  -9   10.73    1.84
   2  -3   9   11.30    1.61
   2   3   9   12.28    1.48
   2   3   9   12.68    1.64
  -2   3  -9   14.21    1.68
  -2   3  -9   12.74    1.53
   3  -3   9   -0.12    0.57
   3  -3   9    0.27    0.51
  -3  -3  -9   -0.16    0.50
  -3  -3  -9    0.22    0.47
   3   3   9    0.31    0.60
  -3   3  -9   -0.40    0.47
  -3   3  -9    0.11    0.47
  -4  -3  -9    8.43    1.69
  -4  -3  -9    7.91    1.57
   4  -3   9    8.17    1.77
   4  -3   9    5.88    1.59
  -4   3  -9    5.23    1.32
  -4   3  -9    5.68    1.37
  -4   3  -9    5.68    1.33
   4   3   9   11.63    2.26
  -4  -4   9   -0.14    0.58
   4  -4  -9    0.31    0.65
  -4   4   9    0.86    0.82
  -4   4   9   -0.32    0.46
   4   4  -9    0.11    0.56
  -4   4   9    0.42    0.56
  -3  -4   9    1.29    0.73
   3  -4  -9    2.52    1.05
   3   4  -9    2.19    1.03
  -3   4   9    2.87    1.08
  -3   4   9    1.22    0.65
   2  -4  -9    1.46    0.84
  -2  -4   9    2.46    1.10
   2  -4  -9    1.94    0.89
   2   4  -9    0.99    0.70
   2   4  -9    1.39    0.91
  -2   4   9    1.68    0.83
  -2   4   9    3.50    1.10
   1  -4  -9    0.93    0.71
  -1  -4   9    0.61    0.65
   1  -4  -9    1.05    0.61
  -1   4   9    1.41    0.78
   1   4  -9    0.60    0.55
  -1   4   9    0.87    0.62
   1   4  -9    1.07    0.78
   0  -4  -9    0.83    0.60
   0  -4  -9    0.88    0.71
   0  -4   9    0.93    0.71
   0  -4   9    1.30    0.76
   0   4   9    1.46    0.82
   0   4   9    0.83    0.66
   0   4  -9    1.24    0.80
  -1  -4  -9    0.33    0.50
   1  -4   9   -0.41    0.50
   1  -4   9    0.92    0.76
   1   4   9    0.75    0.64
   1   4   9    0.13    0.51
  -1   4  -9    2.87    0.88
  -1   4  -9    1.89    0.86
   2  -4   9    2.73    1.10
  -2  -4  -9    2.34    0.91
   2  -4   9    3.05    1.11
  -2  -4  -9    2.36    0.87
   2   4   9    1.21    0.72
   2   4   9    2.48    0.94
  -2   4  -9    2.69    1.03
  -2   4  -9    2.76    0.97
  -3  -4  -9    0.24    0.58
   3  -4   9    0.23    0.61
  -3  -4  -9    1.13    0.78
   3  -4   9    0.52    0.74
   3   4   9    0.42    0.56
  -3   4  -9    0.57    0.76
  -3   4  -9   -0.14    0.50
   3   4   9    1.00    0.70
   3  -5  -9    3.75    1.32
  -3   5   9    5.33    1.42
  -3   5   9    4.02    1.14
   3   5  -9    4.67    1.45
  -2  -5   9    1.54    0.87
   2  -5  -9   -0.19    0.57
   2  -5  -9   -0.57    0.53
   2   5  -9    0.68    0.74
  -2   5   9    0.61    0.75
   2   5  -9    1.32    0.88
  -2   5   9    0.53    0.70
   1  -5  -9    2.06    0.98
  -1  -5   9    3.55    1.22
  -1   5   9    2.89    1.05
  -1   5   9    1.25    0.74
   1   5  -9    1.66    0.84
   0  -5   9    0.58    0.59
   0  -5  -9   -0.14    0.48
   0   5   9    0.58    0.69
   0   5   9    1.09    0.73
   0   5  -9    1.45    0.83
  -1  -5  -9    0.16    0.55
   1  -5   9    0.34    0.67
  -1   5  -9   -0.08    0.43
  -1   5  -9    0.43    0.50
   1   5   9    0.04    0.46
   1   5   9    0.15    0.59
   2  -5   9   -0.49    0.49
  -2  -5  -9   -0.49    0.54
  -2  -5  -9    0.54    0.61
   2   5   9    0.02    0.43
  -2   5  -9    0.20    0.56
  -2   5  -9    0.06    0.59
   2   5   9    0.10    0.63
   5   0 -10    0.02    0.59
   5   0 -10   -0.63    0.43
  -5   0  10   -0.36    0.54
  -5   0  10   -0.09    0.46
  -5   0  10    0.32    0.54
   4   0 -10   31.47    2.87
  -4   0  10   31.89    2.96
  -4   0  10   35.51    3.15
  -4   0  10   35.80    2.72
   4   0 -10   34.34    2.82
   3   0 -10   -0.07    0.47
  -3   0  10   -0.05    0.33
   3   0 -10    0.17    0.41
  -3   0  10    0.02    0.52
  -2   0  10   15.36    1.85
   2   0 -10   12.65    1.65
   2   0 -10   17.21    1.58
  -2   0  10   15.20    1.56
   1   0 -10   -0.23    0.29
   1   0 -10    0.17    0.37
  -1   0  10   -0.04    0.38
  -1   0  10    0.00    0.33
   0   0  10    3.31    1.08
   0   0 -10    2.97    0.88
   0   0 -10    4.09    0.96
   0   0  10    1.78    0.62
   1   0  10    0.18    0.40
  -1   0 -10   -0.08    0.37
  -1   0 -10   -0.14    0.31
   1   0  10   -0.42    0.40
   2   0  10    1.61    0.70
   2   0  10    1.93    0.85
  -2   0 -10    1.85    0.79
  -2   0 -10    1.58    0.63
  -3   0 -10    0.23    0.42
   3   0  10   -0.30    0.37
  -3   0 -10    0.65    0.55
   3   0  10   -0.13    0.49
   4   0  10    3.38    1.20
  -4   0 -10    4.30    1.20
   4   0  10    3.19    1.11
  -4   0 -10    2.50    0.88
  -5   0 -10   -0.01    0.62
   5   0  10    0.36    0.51
   5  -1 -10    0.53    0.60
  -5  -1  10    2.31    1.07
   5  -1 -10    2.29    1.08
  -5  -1  10    1.50    0.93
  -5   1  10    0.34    0.68
   5   1 -10    0.91    0.82
  -5   1  10    1.65    0.96
   5   1 -10    0.73    0.74
   4  -1 -10    0.04    0.49
  -4  -1  10   -0.47    0.37
   4  -1 -10   -0.15    0.58
  -4  -1  10    0.74    0.64
  -4  -1  10   -0.26    0.42
   4   1 -10    0.07    0.54
  -4   1  10    0.34    0.56
  -4   1  10   -0.29    0.48
   4   1 -10    0.27    0.42
  -3  -1  10    0.26    0.48
  -3  -1  10   -0.35    0.39
   3  -1 -10   -0.20    0.32
  -3  -1  10    0.49    0.46
   3  -1 -10   -0.43    0.41
   3   1 -10    0.10    0.49
  -3   1  10   -0.01    0.56
   3   1 -10   -0.12    0.30
  -3   1  10    0.41    0.46
   2  -1 -10    8.06    1.60
  -2  -1  10   12.00    1.28
  -2  -1  10   10.58    1.53
   2  -1 -10    9.90    1.22
  -2  -1  10    9.02    1.17
  -2   1  10    7.13    1.54
   2   1 -10   11.27    1.31
  -2   1  10    9.58    1.29
   2   1 -10    7.71    1.52
  -1  -1  10   -0.05    0.43
   1  -1 -10   -0.06    0.41
  -1  -1  10   -0.42    0.32
   1  -1 -10    0.10    0.37
   1   1 -10   -0.39    0.32
  -1   1  10    0.30    0.38
  -1   1  10   -0.02    0.36
   1   1 -10   -0.19    0.37
   0  -1 -10   11.86    1.42
   0  -1 -10    9.42    1.32
   0  -1  10   12.08    1.60
   0   1  10   12.94    1.60
   0   1  10   10.00    1.27
   0   1 -10    9.95    1.31
   0   1 -10   13.06    1.45
   1  -1  10    0.16    0.43
  -1  -1 -10    0.85    0.57
  -1  -1 -10    0.50    0.48
   1   1  10    0.10    0.38
  -1   1 -10    0.56    0.50
   1   1  10    0.39    0.59
  -2  -1 -10    0.25    0.49
  -2  -1 -10    0.38    0.40
   2  -1  10   -0.03    0.40
   2   1  10   -0.10    0.44
   2   1  10   -0.45    0.32
  -2   1 -10   -0.51    0.35
  -2   1 -10    0.35    0.45
   3  -1  10   -0.03    0.54
  -3  -1 -10    0.22    0.39
  -3  -1 -10   -0.19    0.44
  -3   1 -10    0.57    0.56
  -3   1 -10    0.02    0.53
   3   1  10    0.11    0.52
   3   1  10    0.29    0.46
  -4  -1 -10    2.86    0.86
  -4  -1 -10    1.93    0.85
   4  -1  10    3.62    1.31
   4   1  10    2.29    0.93
  -4   1 -10    2.70    0.97
   4   1  10    1.14    0.76
  -4   1 -10    0.72    0.65
  -5  -2  10   -0.77    0.47
   5  -2 -10   -0.14    0.53
  -5  -2  10    0.07    0.60
   5  -2 -10   -0.54    0.92
  -5   2  10    1.01    0.85
   5   2 -10    0.73    0.81
  -5   2  10   -0.16    0.54
  -4  -2  10    0.52    0.60
  -4  -2  10    1.36    0.79
   4  -2 -10    1.23    0.87
   4  -2 -10    0.76    0.59
  -4   2  10    0.68    0.64
  -4   2  10    0.99    0.68
   4   2 -10    2.60    1.12
   3  -2 -10    0.28    0.57
  -3  -2  10    0.32    0.47
  -3  -2  10   -0.60    0.46
  -3   2  10    0.47    0.59
  -3   2  10   -0.12    0.44
   3   2 -10   -0.55    0.50
  -2  -2  10    0.16    0.41
   2  -2 -10   -0.13    0.48
   2  -2 -10    0.58    0.50
  -2  -2  10    0.13    0.59
   2   2 -10   -0.17    0.39
  -2   2  10    0.54    0.54
   2   2 -10    0.12    0.46
  -2   2  10    0.97    0.57
   1  -2 -10   -0.51    0.30
  -1  -2  10    0.03    0.30
   1  -2 -10   -0.03    0.38
  -1  -2  10    0.50    0.49
  -1   2  10   -0.14    0.33
   1   2 -10   -0.20    0.30
  -1   2  10   -0.31    0.39
   1   2 -10   -0.50    0.37
   0  -2  10    1.04    0.56
   0  -2 -10    0.50    0.52
   0  -2  10    0.13    0.56
   0  -2 -10   -0.12    0.43
   0   2  10   -0.25    0.44
   0   2 -10    0.35    0.53
   0   2 -10    0.38    0.47
   0   2  10    0.01    0.42
   1  -2  10    0.10    0.45
  -1  -2 -10    0.34    0.43
  -1  -2 -10   -0.10    0.41
   1  -2  10    0.11    0.30
   1   2  10    1.02    0.52
  -1   2 -10   -0.19    0.38
   1   2  10    0.15    0.46
   1   2  10    0.38    0.47
  -2  -2 -10    9.84    1.31
  -2  -2 -10   12.28    1.56
   2  -2  10   10.31    1.63
   2   2  10   11.11    1.53
  -2   2 -10   12.82    1.45
   2   2  10   10.56    1.54
   2   2  10   11.65    1.41
  -2   2 -10   15.71    1.81
   3  -2  10    0.47    0.66
  -3  -2 -10   -0.13    0.38
  -3  -2 -10    0.41    0.49
  -3   2 -10   -0.01    0.57
  -3   2 -10    0.59    0.63
   3   2  10   -0.01    0.44
  -4  -2 -10   12.60    1.66
  -4  -2 -10   12.81    1.76
   4  -2  10   15.70    2.20
  -4   2 -10   14.53    1.83
  -4   2 -10   14.95    1.95
   4   2  10   15.75    2.01
   4  -3 -10    2.39    1.06
  -4  -3  10    5.56    1.53
  -4   3  10    5.10    1.48
   4   3 -10    4.70    1.38
  -4   3  10    6.95    1.56
   3  -3 -10   -0.17    0.48
  -3  -3  10    0.12    0.57
  -3  -3  10    0.33    0.60
  -3   3  10   -0.12    0.50
  -3   3  10    0.58    0.57
   3   3 -10    0.55    0.56
  -2  -3  10    5.22    1.30
   2  -3 -10    4.17    1.22
   2  -3 -10    5.64    1.32
  -2  -3  10    6.98    1.54
  -2   3  10    6.44    1.44
  -2   3  10   10.06    1.52
   2   3 -10    6.19    1.39
   2   3 -10    7.22    1.57
   1  -3 -10   -0.30    0.47
  -1  -3  10   -0.09    0.50
   1  -3 -10    0.04    0.53
  -1  -3  10    0.17    0.38
   1   3 -10   -0.13    0.43
   1   3 -10   -0.59    0.42
  -1   3  10    0.13    0.40
  -1   3  10    0.31    0.48
  -1   3  10    0.44    0.54
   0  -3 -10    3.97    1.07
   0  -3  10    1.18    0.74
   0  -3 -10    0.42    0.55
   0  -3  10    1.35    0.81
   0   3  10    3.13    1.01
   0   3  10    1.17    0.71
   0   3 -10    1.36    0.71
   1  -3  10   -0.13    0.44
   1  -3  10   -0.36    0.39
  -1  -3 -10   -0.03    0.53
  -1  -3 -10   -0.03    0.41
   1   3  10    0.15    0.49
  -1   3 -10   -0.15    0.38
   1   3  10    0.15    0.48
   2  -3  10   16.53    2.11
   2  -3  10   22.11    2.21
  -2  -3 -10   13.52    1.73
   2   3  10   15.75    1.73
  -2   3 -10   15.18    1.89
   2   3  10   15.15    1.86
  -2   3 -10   14.89    1.66
  -3  -3 -10    0.41    0.58
  -3  -3 -10    0.41    0.56
   3  -3  10   -0.99    0.43
   3  -3  10    0.08    0.56
   3   3  10   -0.20    0.57
  -3   3 -10    0.08    0.46
  -3   3 -10   -0.46    0.42
  -4  -3 -10    0.65    0.72
  -4  -3 -10    1.46    0.80
   4  -3  10    2.87    1.26
   4   3  10    0.82    0.87
  -4   3 -10    1.03    0.73
  -4   3 -10    0.92    0.85
  -4   3 -10    1.90    1.01
  -3  -4  10    0.04    0.59
   3  -4 -10   -0.71    0.53
   3   4 -10   -0.39    0.51
  -3   4  10   -0.80    0.42
  -3   4  10   -0.01    0.59
  -2  -4  10    2.96    1.17
   2  -4 -10    4.81    1.37
   2  -4 -10    5.36    1.43
  -2   4  10    3.39    1.20
  -2   4  10    3.34    1.07
   2   4 -10    4.74    1.31
   2   4 -10    6.20    1.56
  -1  -4  10    0.96    0.81
   1  -4 -10    0.75    0.66
  -1  -4  10   -0.12    0.52
   1  -4 -10    1.56    0.97
   1   4 -10    0.73    0.61
  -1   4  10    0.75    0.72
   1   4 -10    1.34    0.72
  -1   4  10    1.08    0.68
   0  -4 -10    9.27    1.80
   0  -4  10    5.87    1.47
   0  -4 -10    5.61    1.35
   0  -4  10    7.29    1.65
   0   4  10    8.40    1.70
   0   4  10    6.37    1.43
   0   4 -10    6.13    1.40
  -1  -4 -10    1.12    0.74
   1  -4  10    1.78    0.91
   1  -4  10    1.82    0.87
  -1   4 -10    4.14    1.29
   1   4  10    2.24    0.92
   1   4  10    1.31    0.73
   2  -4  10    4.33    1.48
  -2  -4 -10    1.40    0.75
   2  -4  10    3.04    1.13
  -2   4 -10    2.18    0.78
   2   4  10    0.31    0.58
   2   4  10    3.53    1.11
  -2   4 -10    1.57    0.74
  -3  -4 -10   -0.19    0.55
   3  -4  10   -0.45    0.54
   3  -4  10    0.08    0.67
  -3  -4 -10    0.51    0.70
   3   4  10   -0.50    0.56
  -3   4 -10   -0.18    0.46
  -3   4 -10   -0.49    0.56
   1  -5 -10    0.82    0.79
   1  -5 -10    0.24    0.63
  -1  -5  10   -0.21    0.58
   1   5 -10    0.51    0.65
  -1   5  10    0.99    0.71
  -1   5  10    0.70    0.68
   0  -5 -10    0.01    0.47
   0  -5  10    0.41    0.63
   0   5 -10   -0.11    0.49
   0   5  10    0.29    0.60
   0   5  10    0.53    0.62
   1  -5  10    0.68    0.86
  -1  -5 -10   -0.17    0.57
   1   5  10   -0.37    0.57
  -1   5 -10    1.00    0.82
   1   5  10   -0.45    0.55
  -5   0  11   -0.26    0.59
   5   0 -11   -0.46    0.53
  -5   0  11   -0.47    0.46
   5   0 -11   -0.33    0.51
  -4   0  11   -0.25    0.43
   4   0 -11    0.01    0.45
   4   0 -11    0.30    0.60
  -4   0  11    0.08    0.52
  -3   0  11    1.07    0.73
   3   0 -11    0.68    0.69
   3   0 -11    0.59    0.58
  -3   0  11    1.13    0.61
   2   0 -11   -0.20    0.37
  -2   0  11   -0.13    0.45
   2   0 -11    0.16    0.37
  -2   0  11    0.15    0.33
  -1   0  11   15.47    1.54
   1   0 -11   18.99    1.80
   1   0 -11   17.06    1.87
  -1   0  11   15.71    1.96
   0   0  11    0.08    0.41
   0   0  11    0.33    0.49
   0   0 -11   -0.07    0.39
   0   0 -11    0.41    0.42
   1   0  11    7.77    1.82
   1   0  11    7.02    1.31
  -1   0 -11    6.00    1.34
   2   0  11    0.15    0.43
  -2   0 -11   -0.23    0.41
   2   0  11    0.31    0.53
   3   0  11    2.15    0.85
   3   0  11    0.65    0.72
  -3   0 -11    2.95    1.02
  -3   0 -11    1.52    0.71
  -4   0 -11   -0.50    0.49
  -4   0 -11    0.06    0.56
   4   0  11   -0.12    0.57
  -5  -1  11   -0.42    0.46
  -5  -1  11    0.17    0.63
  -5  -1  11    0.15    0.57
   5  -1 -11   -0.44    0.68
   5  -1 -11   -0.55    0.39
   5   1 -11    0.28    0.76
  -5   1  11    0.30    1.07
   5   1 -11   -0.52    0.60
  -5   1  11   -0.24    0.61
  -4  -1  11   -0.23    0.48
   4  -1 -11   -0.16    0.59
   4  -1 -11    0.37    0.49
  -4  -1  11    0.26    0.61
  -4  -1  11    0.05    0.53
   4   1 -11   -0.70    0.34
  -4   1  11    0.32    0.57
  -4   1  11    0.79    0.85
   4   1 -11    0.38    0.62
  -3  -1  11   -0.13    0.51
  -3  -1  11    0.09    0.42
   3  -1 -11    0.04    0.50
  -3   1  11   -0.35    0.43
   3   1 -11    0.44    0.70
   3   1 -11    0.10    0.42
  -3   1  11    0.38    0.47
   2  -1 -11   12.42    1.76
   2  -1 -11   12.89    1.44
  -2  -1  11   10.75    1.64
  -2  -1  11   12.16    1.39
  -2   1  11   12.82    1.81
   2   1 -11   11.43    1.41
   2   1 -11    9.27    1.77
  -2   1  11   15.54    1.66
   1  -1 -11    0.91    0.54
   1  -1 -11    1.46    0.83
  -1  -1  11    1.06    0.69
   1   1 -11    1.25    0.65
  -1   1  11    0.21    0.51
   1   1 -11    0.71    0.55
  -1   1  11    0.55    0.63
   0  -1 -11   19.22    1.88
   0  -1 -11   16.67    1.78
   0  -1  11   13.97    1.82
   0   1 -11   12.31    1.56
   0   1  11   15.17    1.67
   0   1 -11   16.37    1.72
   0   1  11   12.83    1.75
   1  -1  11    7.07    1.70
  -1  -1 -11    4.75    1.23
  -1  -1 -11    5.98    1.24
   1   1  11    6.38    1.39
   1   1  11    6.07    1.47
  -1   1 -11    3.69    1.14
  -2  -1 -11    1.99    0.80
   2  -1  11    1.70    0.97
   2   1  11    0.09    0.49
  -2   1 -11    0.11    0.54
   2   1  11   -0.08    0.49
  -3  -1 -11    1.07    0.65
   3  -1  11    0.87    0.77
  -3  -1 -11    1.04    0.66
  -3   1 -11    3.53    1.14
   3   1  11    1.29    0.75
  -3   1 -11    0.44    0.48
   3   1  11    0.78    0.74
   4  -1  11    0.13    0.75
  -4  -1 -11    0.67    0.67
  -4  -1 -11    0.90    0.59
   4   1  11    0.24    0.57
  -4   1 -11    0.28    0.70
   4   1  11   -0.13    0.54
  -4   1 -11   -0.48    0.51
   4  -2 -11    2.53    1.03
  -4  -2  11    2.64    1.07
  -4  -2  11    4.16    1.35
   4  -2 -11    4.08    1.30
  -4   2  11    2.07    0.92
   4   2 -11    6.00    1.63
  -4   2  11    4.78    1.55
  -3  -2  11    0.18    0.51
  -3  -2  11   -0.21    0.50
   3  -2 -11   -0.11    0.51
   3   2 -11    0.28    0.60
  -3   2  11    0.39    0.60
  -3   2  11    0.07    0.51
  -2  -2  11    2.31    1.00
  -2  -2  11    2.74    0.94
   2  -2 -11    1.23    0.62
   2  -2 -11    2.67    1.10
  -2   2  11    4.12    1.28
   2   2 -11    2.53    0.94
   2   2 -11    1.67    0.86
  -2   2  11    1.32    0.74
   1  -2 -11    6.32    1.39
   1  -2 -11    5.89    1.32
  -1  -2  11    6.61    1.54
  -1  -2  11    8.70    1.25
   1   2 -11    7.31    1.48
  -1   2  11    8.09    1.72
   1   2 -11    6.34    1.35
  -1   2  11    4.42    1.14
   0  -2 -11   -0.20    0.41
   0  -2  11    2.00    1.01
   0  -2 -11    2.51    0.94
   0   2  11    0.95    0.61
   0   2  11    1.84    0.83
   0   2 -11    0.58    0.61
  -1  -2 -11   15.19    1.75
  -1  -2 -11   14.18    1.68
   1  -2  11   11.05    1.71
   1   2  11   13.26    1.69
  -1   2 -11   10.85    1.90
   1   2  11   11.13    1.53
   1   2  11   15.57    1.92
   2  -2  11    2.01    0.94
  -2  -2 -11    1.01    0.63
   2   2  11    1.11    0.72
   2   2  11    0.42    0.80
  -2   2 -11    0.81    0.63
  -3  -2 -11    1.12    0.70
   3  -2  11    0.79    0.76
  -3   2 -11    0.97    0.73
   3   2  11    0.50    0.67
  -3   2 -11    3.00    1.14
  -4  -2 -11    0.34    0.63
   4  -2  11    0.93    0.92
  -4  -2 -11    0.29    0.53
  -4   2 -11    0.29    0.70
  -4   2 -11   -0.88    0.52
   4   2  11    0.67    0.92
   4  -3 -11    0.51    0.77
  -4  -3  11    0.78    0.60
   4   3 -11    0.73    0.74
  -4   3  11   -0.55    0.73
  -4   3  11    0.04    0.52
  -3  -3  11    3.72    1.15
  -3  -3  11    4.39    1.26
   3  -3 -11    3.62    1.22
  -3   3  11    6.47    1.68
  -3   3  11    5.29    1.39
   3   3 -11    4.22    1.32
  -2  -3  11    0.16    0.72
  -2  -3  11   -0.05    0.56
   2  -3 -11    0.01    0.49
   2  -3 -11    0.06    0.63
  -2   3  11    0.57    0.64
   2   3 -11   -0.19    0.50
  -2   3  11    0.04    0.47
   2   3 -11    0.16    0.53
  -1  -3  11    3.18    1.22
  -1  -3  11    3.44    1.16
   1  -3 -11    2.94    1.00
   1  -3 -11    2.73    1.01
   1   3 -11    2.11    0.82
  -1   3  11    1.24    0.73
  -1   3  11    2.02    0.95
  -1   3  11    1.68    0.80
   1   3 -11    2.35    0.87
   0  -3  11    1.56    0.87
   0  -3 -11    0.84    0.54
   0  -3 -11    0.61    0.57
   0  -3  11    0.77    0.52
   0   3 -11    1.01    0.69
   0   3  11    0.93    0.66
   0   3  11    1.29    0.81
   1  -3  11    8.10    1.78
   1  -3  11    9.16    1.73
  -1  -3 -11    6.15    1.46
  -1  -3 -11    6.30    1.45
   1   3  11    7.68    1.55
  -1   3 -11    4.97    1.35
   1   3  11    8.55    1.73
  -2  -3 -11    2.33    0.97
   2  -3  11    1.58    0.96
  -2   3 -11    4.05    1.31
   2   3  11    5.21    1.43
   2   3  11    3.81    1.05
  -3  -3 -11   11.17    1.93
   3  -3  11   12.27    2.28
  -3   3 -11   13.19    1.70
   3   3  11    9.68    1.99
  -3   3 -11    7.73    1.76
   2  -4 -11    2.06    1.05
  -2  -4  11    3.53    1.22
   2  -4 -11    2.27    0.97
  -2   4  11    2.41    1.06
  -2   4  11    3.32    1.09
   2   4 -11    4.25    1.30
   2   4 -11    3.66    1.18
  -1  -4  11    0.27    0.63
   1  -4 -11    2.33    0.85
  -1  -4  11    2.65    1.13
   1  -4 -11    1.62    0.86
  -1   4  11    2.70    1.14
   1   4 -11    0.61    0.61
  -1   4  11    0.87    0.86
   0  -4  11    2.56    1.15
   0  -4 -11    2.70    0.95
   0  -4  11    2.81    1.03
   0  -4 -11   -0.03    0.58
   0   4  11    1.76    0.90
   0   4  11    1.40    0.89
   0   4 -11    0.74    0.64
  -1  -4 -11   -0.10    0.46
   1  -4  11    0.43    0.73
   1  -4  11   -0.30    0.56
   1   4  11    1.52    0.80
   1   4  11    1.67    0.90
  -1   4 -11   -0.25    0.49
  -2  -4 -11    0.95    0.73
   2  -4  11    0.10    0.50
   2  -4  11    0.29    0.65
  -2   4 -11    0.00    0.68
   2   4  11   -0.12    0.55
   2   4  11   -0.60    0.49
   4   0 -12    0.63    0.69
  -4   0  12    0.68    0.78
  -4   0  12    0.64    0.83
   4   0 -12    0.54    0.60
  -3   0  12    0.09    0.55
   3   0 -12    0.11    0.57
  -3   0  12   -0.67    0.46
  -2   0  12    6.88    1.65
   2   0 -12    3.98    1.08
   2   0 -12    6.79    1.51
  -2   0  12    4.12    1.06
   1   0 -12    0.16    0.45
  -1   0  12    0.08    0.56
   1   0 -12    0.31    0.57
  -1   0  12    0.30    0.48
   0   0 -12   11.35    1.57
   0   0  12    9.24    1.55
   0   0 -12    9.00    1.75
   0   0  12    9.98    2.00
   1   0  12    0.43    0.60
   1   0  12    0.24    0.44
  -1   0 -12    0.43    0.53
   2   0  12   -0.52    0.48
  -2   0 -12    0.64    0.59
  -3   0 -12    0.53    0.59
   3   0  12   -0.45    0.55
   4  -1 -12    1.69    1.06
  -4  -1  12    1.02    0.75
   4  -1 -12    1.06    0.76
  -4  -1  12    0.75    0.73
   4   1 -12   -0.50    0.49
  -4   1  12    1.16    0.88
  -4   1  12    0.88    0.75
  -3  -1  12    4.34    1.40
   3  -1 -12    2.48    1.09
   3   1 -12    4.11    1.28
  -3   1  12    4.69    1.44
  -3   1  12    4.54    1.34
   2  -1 -12    0.50    0.65
   2  -1 -12    0.29    0.47
  -2  -1  12   -0.03    0.46
   2   1 -12    0.65    0.64
  -2   1  12   -0.19    0.52
   2   1 -12    0.04    0.57
  -2   1  12   -0.38    0.36
   1  -1 -12    0.19    0.42
   1  -1 -12    0.89    0.57
  -1  -1  12    1.05    0.71
   1   1 -12    0.66    0.65
  -1   1  12    1.14    0.79
   1   1 -12    0.03    0.55
  -1   1  12    0.73    0.58
   0  -1  12    1.06    0.78
   0  -1 -12    0.83    0.68
   0  -1 -12    2.31    0.93
   0   1 -12    0.76    0.65
   0   1  12    1.78    0.80
   0   1  12    1.28    0.77
  -1  -1 -12    0.70    0.60
   1  -1  12    0.36    0.60
   1   1  12    0.39    0.64
  -1   1 -12    0.59    0.57
   1   1  12    0.77    0.59
   2  -1  12    1.20    0.80
  -2  -1 -12    0.94    0.73
   2   1  12    1.15    0.57
  -2   1 -12    0.58    0.73
   2   1  12    1.35    0.88
   3  -1  12    2.62    1.14
  -3  -1 -12    0.81    0.65
   3   1  12    0.65    0.65
   3   1  12    2.68    1.12
  -3   1 -12    1.57    0.90
   4  -2 -12   -0.77    0.86
  -4  -2  12   -0.31    0.80
  -4  -2  12   -0.56    0.48
  -4   2  12   -0.11    0.61
   3  -2 -12    6.64    1.66
  -3  -2  12    8.36    1.83
   3   2 -12    6.76    1.63
  -3   2  12    3.51    1.13
  -3   2  12    5.93    1.59
   2  -2 -12    0.85    0.74
  -2  -2  12    0.44    0.59
   2  -2 -12   -0.36    0.51
   2   2 -12    0.65    0.64
  -2   2  12    1.40    0.77
  -2   2  12    0.23    0.61
   2   2 -12    0.64    0.52
  -1  -2  12    5.51    1.51
   1  -2 -12    5.98    1.32
   1  -2 -12    4.50    1.22
  -1   2  12    4.80    1.41
  -1   2  12    7.34    1.50
   1   2 -12    7.56    1.67
   1   2 -12    5.83    1.36
   0  -2  12    0.31    0.62
   0  -2 -12    0.68    0.59
   0  -2 -12    0.30    0.55
   0   2  12    0.14    0.51
   0   2 -12   -0.15    0.53
   0   2  12    1.00    0.76
   1  -2  12    1.20    0.75
  -1  -2 -12   -0.37    0.33
  -1  -2 -12   -0.17    0.38
   1   2  12   -0.06    0.48
   1   2  12   -0.84    0.55
   1   2  12    0.71    0.64
  -1   2 -12   -0.45    0.41
   2  -2  12    0.51    0.59
  -2  -2 -12    2.05    0.91
  -2   2 -12    1.00    0.74
   2   2  12    2.22    0.96
  -3  -2 -12    3.80    1.17
   3  -2  12    2.31    1.18
   3   2  12    4.97    1.49
  -3   2 -12    4.87    1.38
  -3  -3  12    0.34    0.66
  -3  -3  12    0.03    0.57
   3  -3 -12   -0.05    0.67
  -3   3  12    0.23    0.55
  -3   3  12    0.25    0.64
   3   3 -12   -0.59    0.72
   2  -3 -12    0.26    0.82
  -2  -3  12    1.01    0.93
   2  -3 -12    0.04    0.57
  -2  -3  12    0.70    0.63
   2   3 -12    0.27    0.65
  -2   3  12   -0.04    0.48
  -2   3  12    0.73    0.62
   2   3 -12    0.40    0.71
  -1  -3  12   -0.12    0.56
  -1  -3  12    1.12    0.75
   1  -3 -12    0.85    0.69
   1  -3 -12   -0.25    0.55
  -1   3  12    0.39    0.62
   1   3 -12    0.58    0.61
  -1   3  12    0.04    0.47
   0  -3 -12    0.01    0.44
   0  -3 -12    0.92    0.67
   0  -3  12    0.33    0.76
   0   3 -12    0.87    0.76
   0   3  12    0.49    0.72
   0   3  12    1.55    0.84
  -1  -3 -12    2.87    1.07
   1  -3  12    5.04    1.47
  -1  -3 -12    5.54    1.42
   1   3  12    5.87    1.54
   1   3  12    5.17    1.32
  -1   3 -12    4.36    1.36
  -2  -3 -12   -0.60    0.45
   2  -3  12    0.03    0.70
  -2   3 -12    0.46    0.66
   2   3  12    0.82    0.79
  -1  -4  12    0.12    0.76
   1  -4 -12   -0.09    0.60
  -1  -4  12   -0.08    0.50
   1  -4 -12    1.09    0.71
   1   4 -12    0.33    0.79
  -1   4  12   -0.26    0.66
  -1   4  12   -0.41    0.41
   0  -4  12    0.63    0.66
   0  -4 -12   -0.81    0.53
   0  -4 -12   -0.11    0.62
   0  -4  12    0.56    0.76
   0   4 -12    0.29    0.65
   0   4  12    1.06    0.81
   0   4  12   -0.40    0.53
  -3   0  13    6.68    1.74
   3   0 -13    9.97    2.10
  -3   0  13    7.23    1.53
   2   0 -13   -0.33    0.52
   2   0 -13    0.12    0.67
  -2   0  13   -0.64    0.40
  -2   0  13    0.28    0.68
   1   0 -13    8.84    1.78
  -1   0  13    6.76    1.33
  -1   0  13    7.55    1.77
   1   0 -13    8.59    1.77
   0   0  13    0.33    0.52
   0   0 -13   -0.31    0.79
   0   0 -13   -0.17    0.49
   0   0  13   -0.25    0.51
  -1   0 -13    0.03    0.47
   1   0  13   -0.44    0.47
   2   0  13   -0.32    0.54
  -2   0 -13    0.25    0.47
  -3   0 -13   -0.02    0.69
   3   0  13   -1.06    0.52
   3  -1 -13    0.89    0.81
  -3  -1  13   -0.01    0.60
  -3   1  13    0.08    0.50
  -3   1  13    0.78    0.75
   3   1 -13    1.14    1.00
  -2  -1  13    1.06    0.87
   2  -1 -13    1.60    0.69
   2  -1 -13    0.09    0.45
  -2   1  13    0.35    0.58
  -2   1  13    1.52    0.78
   2   1 -13   -0.45    0.38
   2   1 -13    2.01    0.93
   1  -1 -13    0.86    0.67
  -1  -1  13    1.10    0.86
   1  -1 -13    0.69    0.58
   1   1 -13    0.63    0.56
   1   1 -13    1.34    0.77
  -1   1  13    1.53    0.80
  -1   1  13    1.63    0.87
   0  -1  13    8.52    1.92
   0  -1 -13   10.42    1.54
   0  -1 -13    8.43    1.65
   0   1 -13   11.97    1.67
   0   1  13    6.08    1.39
   0   1  13    3.31    1.24
  -1  -1 -13    0.10    0.52
   1  -1  13    1.58    1.04
   1   1  13    0.33    0.57
  -1   1 -13    1.59    0.81
   1   1  13    0.46    0.56
   2  -1  13   -0.46    0.57
  -2  -1 -13    1.12    0.70
  -2   1 -13    0.46    0.66
   2   1  13   -0.25    0.50
   2   1  13   -0.17    0.56
  -3  -2  13   -0.06    0.66
   3   2 -13    0.33    0.74
  -3   2  13    0.47    0.74
  -3   2  13    0.55    0.76
   2  -2 -13    0.38    0.68
   2  -2 -13    0.92    0.76
  -2  -2  13    1.00    0.87
   2   2 -13    1.78    0.86
  -2   2  13    1.42    0.75
   2   2 -13    3.06    1.12
  -2   2  13    1.53    1.00
   1  -2 -13    1.83    0.91
   1  -2 -13    2.13    0.88
  -1  -2  13    2.27    1.06
  -1   2  13    3.21    1.09
   1   2 -13    1.81    0.90
  -1   2  13    1.21    0.73
   1   2 -13    3.30    1.14
   0  -2 -13    0.33    0.63
   0  -2 -13    0.86    0.64
   0  -2  13    0.66    0.80
   0   2 -13    1.46    0.84
   0   2  13    1.44    0.86
   0   2  13    0.07    0.68
  -1  -2 -13    4.25    1.25
   1  -2  13    4.52    1.49
   1   2  13    2.49    1.03
   1   2  13    2.88    1.20
  -1   2 -13    4.53    1.34
   1   2  13    3.40    1.16
  -2  -2 -13    4.79    1.35
   2  -2  13    5.02    1.58
  -2   2 -13    4.93    1.54
   2   2  13    5.86    1.52
   1  -3 -13    1.14    0.74
   1  -3 -13    1.08    0.75
  -1  -3  13    0.14    0.85
  -1   3  13    0.83    0.68
   1   3 -13    1.68    0.94
  -1   3  13   -0.03    0.60
   0  -3 -13    0.62    0.60
   0  -3 -13    0.66    0.63
   0  -3  13    0.01    0.53
   0   3  13    0.35    0.83
   0   3  13   -0.41    0.50
   0   3 -13    0.42    0.66
   1  -3  13   -0.17    0.64
  -1  -3 -13    0.74    0.76
   1   3  13    0.18    0.63
   1   3  13   -0.18    0.54
   2   0 -14   -0.50    0.55
   2   0 -14   -0.11    0.61
  -2   0  14    0.73    0.82
   1   0 -14   -0.05    0.62
  -1   0  14   -0.13    0.62
   1   0 -14   -0.84    0.56
   0   0 -14    3.82    1.29
   0   0  14    3.82    1.45
   1   0  14   -0.30    0.54
  -1   0 -14   -0.34    0.46
   2  -1 -14    3.88    1.10
  -2  -1  14    6.58    1.80
   2  -1 -14    3.74    1.30
  -2   1  14    2.24    1.11
   2   1 -14    4.21    1.35
   2   1 -14    8.44    1.68
  -2   1  14    3.78    1.24
   1  -1 -14    3.86    1.23
  -1  -1  14    5.60    1.70
   1  -1 -14    4.20    1.35
  -1   1  14    2.77    1.06
   1   1 -14    5.03    1.47
   1   1 -14    4.28    1.30
  -1   1  14    4.39    1.43
   0  -1 -14    0.34    0.54
   0  -1  14   -0.38    0.69
   0  -1 -14    0.69    0.68
   0   1 -14    0.91    0.76
   0   1  14    1.02    0.82
   0   1  14    0.66    0.57
  -1  -1 -14    2.12    0.93
   1  -1  14    5.81    1.70
   1   1  14    3.98    1.23
   1   1  14    2.24    1.02
  -1   1 -14    1.71    0.91
  -1  -2  14   -0.61    0.60
   1  -2 -14   -0.94    0.55
   1  -2 -14    0.49    0.67
   1   2 -14   -0.01    0.67
  -1   2  14   -0.17    0.62
  -1   2  14   -0.08    0.55
   0  -2 -14    0.70    0.68
   0  -2 -14   -0.56    0.48
   0  -2  14   -0.25    0.71
   0   2  14    0.59    0.81
   0   2  14    0.59    0.73
   0   2  14   -0.85    0.57
   0   2 -14    0.11    0.65
   0   0   0    0.00    0.00
;
_shelx_hkl_checksum              69813
_olex2_diffrn_ambient_temperature_device 'Oxford Cryosystems'
_olex2_exptl_crystal_mounting_method
'The crystal was mounted on a nylon loop with paratone oil'
_olex2_submission_original_sample_id N2H5(N3)
_olex2_submission_special_instructions 'No special instructions were received'
loop_
_space_group_symop_operation_xyz
'x, y, z'
'-x+1/2, y+1/2, -z+1/2'
'-x, -y, -z'
'x-1/2, -y-1/2, z-1/2'
loop_
_atom_site_label
_atom_site_type_symbol
_atom_site_fract_x
_atom_site_fract_y
_atom_site_fract_z
_atom_site_U_iso_or_equiv
_atom_site_adp_type
_atom_site_occupancy
_atom_site_site_symmetry_order
_atom_site_calc_flag
N1 N 0.8617(3) -0.0748(3) 0.65260(14) 0.0326(4) Uani 1 1 d
H1A H 0.861(4) -0.167(4) 0.584(2) 0.053(6) Uiso 1 1 d
H1B H 1.006(3) 0.027(4) 0.6584(18) 0.047(5) Uiso 1 1 d
H1C H 0.856(4) -0.180(4) 0.715(2) 0.057(6) Uiso 1 1 d
N2 N 0.6653(3) 0.0941(3) 0.64960(14) 0.0346(4) Uani 1 1 d
H2A H 0.530(4) -0.007(4) 0.638(2) 0.053(6) Uiso 1 1 d
H2B H 0.669(4) 0.182(4) 0.579(2) 0.058(7) Uiso 1 1 d
N3 N 0.8302(3) -0.2887(3) 0.42452(14) 0.0413(5) Uani 1 1 d
N4 N 0.7445(2) -0.4776(2) 0.40136(12) 0.0327(4) Uani 1 1 d
N5 N 0.6597(3) -0.6650(3) 0.37815(17) 0.0552(6) Uani 1 1 d
loop_
_atom_site_aniso_label
_atom_site_aniso_U_11
_atom_site_aniso_U_22
_atom_site_aniso_U_33
_atom_site_aniso_U_23
_atom_site_aniso_U_13
_atom_site_aniso_U_12
N1 0.0345(8) 0.0284(8) 0.0350(9) -0.0004(6) 0.0030(6) -0.0020(6)
N2 0.0342(8) 0.0324(8) 0.0370(9) -0.0010(6) 0.0001(6) 0.0015(6)
N3 0.0483(10) 0.0334(8) 0.0419(9) 0.0005(6) 0.0018(7) -0.0095(7)
N4 0.0308(8) 0.0342(8) 0.0329(8) 0.0025(6) 0.0008(6) 0.0005(6)
N5 0.0568(11) 0.0369(10) 0.0705(13) -0.0064(8) -0.0084(9) -0.0115(8)
loop_
_atom_type_symbol
_atom_type_description
_atom_type_scat_dispersion_real
_atom_type_scat_dispersion_imag
_atom_type_scat_source
H H 0.0000 0.0000 'International Tables Vol C Tables 4.2.6.8 and 6.1.1.4'
N N 0.0061 0.0033 'International Tables Vol C Tables 4.2.6.8 and 6.1.1.4'
loop_
_geom_angle_atom_site_label_1
_geom_angle_atom_site_label_2
_geom_angle_atom_site_label_3
_geom_angle
N5 N4 N3 179.9(2)
loop_
_geom_bond_atom_site_label_1
_geom_bond_atom_site_label_2
_geom_bond_distance
N1 N2 1.447(2)
N3 N4 1.1729(19)
N4 N5 1.163(2)
