#------------------------------------------------------------------------------
#$Date: 2019-10-28 11:27:23 +0200 (Mon, 28 Oct 2019) $
#$Revision: 220040 $
#$URL: file:///home/coder/svn-repositories/cod/cif/4/51/48/4514882.cif $
#------------------------------------------------------------------------------
#
# This file is available in the Crystallography Open Database (COD),
# http://www.crystallography.net/
#
# All data on this site have been placed in the public domain by the
# contributors.
#
data_4514882
loop_
_publ_author_name
'Gao, Xing'
'Xia, Miaoren'
'Yuan, Chunhao'
'Zhou, Leijie'
'Sun, Wei'
'Li, Cheng'
'Wu, Bo'
'Zhu, Dongyu'
'Zhang, Cheng'
'Zheng, Bing'
'Wang, Dongqi'
'Guo, Hongchao'
_publ_section_title
;
 Enantioselective Synthesis of Chiral Medium-Sized Cyclic Compounds via
 Tandem Cycloaddition/Cope Rearrangement Strategy
;
_journal_issue                   3
_journal_name_full               'ACS Catalysis'
_journal_page_first              1645
_journal_paper_doi               10.1021/acscatal.8b04590
_journal_volume                  9
_journal_year                    2019
_chemical_absolute_configuration ad
_chemical_formula_moiety         'C17 H15 Cl O5'
_chemical_formula_sum            'C17 H15 Cl O5'
_chemical_formula_weight         334.74
_space_group_crystal_system      monoclinic
_space_group_IT_number           4
_space_group_name_Hall           'P 2yb'
_space_group_name_H-M_alt        'P 1 21 1'
_symmetry_space_group_name_Hall  'P 2yb'
_symmetry_space_group_name_H-M   'P 1 21 1'
_atom_sites_solution_hydrogens   geom
_atom_sites_solution_primary     dual
_audit_creation_date             2018-03-26
_audit_creation_method
;
Olex2 1.2
(compiled 2017.08.10 svn.r3458 for OlexSys, GUI svn.r5381)
;
_audit_update_record
;
????
;
_cell_angle_alpha                90
_cell_angle_beta                 103.688(3)
_cell_angle_gamma                90
_cell_formula_units_Z            2
_cell_length_a                   6.1976(17)
_cell_length_b                   17.271(5)
_cell_length_c                   7.158(2)
_cell_measurement_reflns_used    2655
_cell_measurement_temperature    173(2)
_cell_measurement_theta_max      27.4845
_cell_measurement_theta_min      1.1790
_cell_volume                     744.4(4)
_computing_cell_refinement       'CrystalClear (Rigaku Inc., 2007)'
_computing_data_collection       'CrystalClear (Rigaku Inc., 2007)'
_computing_data_reduction        'CrystalClear (Rigaku Inc., 2007)'
_computing_molecular_graphics    'Olex2 (Dolomanov et al., 2009)'
_computing_publication_material  'CIFTAB (Sheldrick, 2014)'
_computing_structure_refinement  'ShelXL (Sheldrick, 2015)'
_computing_structure_solution    'ShelXT (Sheldrick, 2015)'
_diffrn_ambient_temperature      173.15
_diffrn_measured_fraction_theta_full 0.991
_diffrn_measured_fraction_theta_max 0.992
_diffrn_measurement_device_type  'MM007-HF CCD(Saturn 724+)'
_diffrn_measurement_method       '\w scans at fixed \c = 45\%'
_diffrn_radiation_monochromator  Confocal
_diffrn_radiation_type           MoK\a
_diffrn_radiation_wavelength     0.71073
_diffrn_reflns_av_R_equivalents  0.0341
_diffrn_reflns_av_unetI/netI     0.0300
_diffrn_reflns_Laue_measured_fraction_full 0.991
_diffrn_reflns_Laue_measured_fraction_max 0.992
_diffrn_reflns_limit_h_max       7
_diffrn_reflns_limit_h_min       -8
_diffrn_reflns_limit_k_max       22
_diffrn_reflns_limit_k_min       -22
_diffrn_reflns_limit_l_max       9
_diffrn_reflns_limit_l_min       -9
_diffrn_reflns_number            8090
_diffrn_reflns_point_group_measured_fraction_full 0.938
_diffrn_reflns_point_group_measured_fraction_max 0.919
_diffrn_reflns_theta_full        25.242
_diffrn_reflns_theta_max         27.485
_diffrn_reflns_theta_min         2.359
_diffrn_source                   'Rotating Anode'
_exptl_absorpt_coefficient_mu    0.281
_exptl_absorpt_correction_T_max  1.00000
_exptl_absorpt_correction_T_min  0.83086
_exptl_absorpt_correction_type   multi-scan
_exptl_absorpt_process_details   'CrystalClear (Rigaku Inc., 2007)'
_exptl_crystal_colour            colorless
_exptl_crystal_density_diffrn    1.493
_exptl_crystal_description       block
_exptl_crystal_F_000             348
_exptl_crystal_size_max          0.375
_exptl_crystal_size_mid          0.226
_exptl_crystal_size_min          0.137
_refine_diff_density_max         0.186
_refine_diff_density_min         -0.156
_refine_diff_density_rms         0.038
_refine_ls_abs_structure_details
;
 Flack x determined using 1318 quotients [(I+)-(I-)]/[(I+)+(I-)]
 (Parsons, Flack and Wagner, Acta Cryst. B69 (2013) 249-259).
;
_refine_ls_abs_structure_Flack   0.03(3)
_refine_ls_extinction_method     none
_refine_ls_goodness_of_fit_ref   1.072
_refine_ls_hydrogen_treatment    constr
_refine_ls_matrix_type           full
_refine_ls_number_parameters     209
_refine_ls_number_reflns         3134
_refine_ls_number_restraints     1
_refine_ls_restrained_S_all      1.072
_refine_ls_R_factor_all          0.0284
_refine_ls_R_factor_gt           0.0282
_refine_ls_shift/su_max          0.000
_refine_ls_shift/su_mean         0.000
_refine_ls_structure_factor_coef Fsqd
_refine_ls_weighting_details
'w=1/[\s^2^(Fo^2^)+(0.0377P)^2^+0.1120P] where P=(Fo^2^+2Fc^2^)/3'
_refine_ls_weighting_scheme      calc
_refine_ls_wR_factor_gt          0.0719
_refine_ls_wR_factor_ref         0.0722
_reflns_Friedel_coverage         0.793
_reflns_Friedel_fraction_full    0.880
_reflns_Friedel_fraction_max     0.841
_reflns_number_gt                3104
_reflns_number_total             3134
_reflns_threshold_expression     'I > 2\s(I)'
_cod_data_source_file            cs8b04590_si_002.cif
_cod_data_source_block           mx6923
_cod_database_code               4514882
_shelx_shelxl_version_number     2016/6
_shelx_space_group_comment
;
The symmetry employed for this shelxl refinement is uniquely defined
by the following loop, which should always be used as a source of
symmetry information in preference to the above space-group names.
They are only intended as comments.
;
_shelx_estimated_absorpt_t_max   0.963
_shelx_estimated_absorpt_t_min   0.902
_olex2_refinement_description
;
1. Fixed Uiso
 At 1.2 times of:
  All C(H) groups, All C(H,H) groups
 At 1.5 times of:
  All C(H,H,H) groups
2.a Ternary CH refined with riding coordinates:
 C10(H10), C13(H13)
2.b Secondary CH2 refined with riding coordinates:
 C9(H9A,H9B), C14(H14A,H14B)
2.c Aromatic/amide H refined with riding coordinates:
 C2(H2), C3(H3), C5(H5), C6(H6), C8(H8), C11(H11)
2.d Idealised Me refined as rotating group:
 C17(H17A,H17B,H17C)
;
_shelx_res_file
;
TITL mx6923_a.res in P2(1)
    mx6923.res
    created by SHELXL-2016/6 at 17:26:39 on 26-Mar-2018
CELL 0.71073 6.1976 17.2707 7.1575 90 103.688 90
ZERR 2 0.0017 0.0045 0.002 0 0.003 0
LATT -1
SYMM -X,0.5+Y,-Z
SFAC C H Cl O
UNIT 34 30 2 10

L.S. 4 0 71
PLAN  20
SIZE 0.375 0.226 0.137
TEMP -100
BOND $H
list 4
fmap 2
acta
CONF
HTAB
OMIT 2 8 1
OMIT 1 -5 0
OMIT 3 10 0
REM <olex2.extras>
REM <HklSrc "%.\\mx6923.hkl">
REM </olex2.extras>

WGHT    0.037700    0.112000
FVAR       1.25655
CL1   3    0.041928    0.179999   -0.010005    11.00000    0.04324    0.02567 =
         0.03227   -0.00373    0.00687   -0.00979
O1    4    0.472784    0.554607    0.295751    11.00000    0.02245    0.02302 =
         0.02904   -0.00348    0.00365    0.00042
C1    1    0.534612    0.372992    0.212053    11.00000    0.02685    0.02327 =
         0.01946   -0.00067    0.00846    0.00080
C2    1    0.603614    0.295673    0.214584    11.00000    0.02837    0.02351 =
         0.02727    0.00126    0.00754    0.00324
AFIX  43
H2    2    0.756074    0.283596    0.263593    11.00000   -1.20000
AFIX   0
O2    4    0.601656    0.535418    0.629011    11.00000    0.02586    0.02804 =
         0.02853    0.00312    0.00964   -0.00217
O3    4    0.833282    0.467422    0.846977    11.00000    0.05299    0.02815 =
         0.02992    0.00369    0.00658    0.00434
C3    1    0.454499    0.236250    0.147170    11.00000    0.03781    0.02067 =
         0.02718    0.00151    0.00882    0.00182
AFIX  43
H3    2    0.504569    0.184210    0.148799    11.00000   -1.20000
AFIX   0
O4    4    0.846649    0.772227    0.405615    11.00000    0.04815    0.02445 =
         0.04537   -0.00311    0.01388   -0.01191
C4    1    0.231390    0.253850    0.077383    11.00000    0.03418    0.02294 =
         0.02014   -0.00168    0.00705   -0.00604
O5    4    0.486745    0.739062    0.347199    11.00000    0.03845    0.02297 =
         0.03185    0.00187    0.00212    0.00500
C5    1    0.156968    0.329285    0.071967    11.00000    0.02772    0.02766 =
         0.02589   -0.00349    0.00215    0.00111
AFIX  43
H5    2    0.003975    0.340703    0.023570    11.00000   -1.20000
AFIX   0
C6    1    0.307911    0.388457    0.137984    11.00000    0.02983    0.02088 =
         0.02354   -0.00173    0.00526    0.00179
AFIX  43
H6    2    0.256668    0.440433    0.132897    11.00000   -1.20000
AFIX   0
C7    1    0.693982    0.436959    0.282124    11.00000    0.02602    0.02224 =
         0.02409   -0.00309    0.01094    0.00015
C8    1    0.884853    0.424006    0.410404    11.00000    0.02390    0.02590 =
         0.03584   -0.00514    0.01094    0.00089
AFIX  43
H8    2    0.911902    0.372340    0.455406    11.00000   -1.20000
AFIX   0
C9    1    1.062504    0.482862    0.491628    11.00000    0.02108    0.03000 =
         0.04899   -0.01007    0.00883    0.00146
AFIX  23
H9A   2    1.097188    0.512233    0.383594    11.00000   -1.20000
H9B   2    1.198928    0.454924    0.557184    11.00000   -1.20000
AFIX   0
C10   1    1.000305    0.542374    0.638213    11.00000    0.02084    0.02817 =
         0.03469   -0.00486    0.00081    0.00141
AFIX  13
H10   2    1.132075    0.546899    0.749541    11.00000   -1.20000
AFIX   0
C11   1    0.952545    0.621287    0.553523    11.00000    0.02273    0.02587 =
         0.03358   -0.00653    0.00924   -0.00477
AFIX  43
H11   2    1.072456    0.655577    0.553720    11.00000   -1.20000
AFIX   0
C12   1    0.747206    0.644534    0.478267    11.00000    0.02564    0.02139 =
         0.02467   -0.00289    0.00830   -0.00182
C13   1    0.554430    0.591211    0.472510    11.00000    0.02194    0.02078 =
         0.02619   -0.00136    0.00721    0.00019
AFIX  13
H13   2    0.430871    0.624435    0.495021    11.00000   -1.20000
AFIX   0
C14   1    0.629301    0.516893    0.203371    11.00000    0.02956    0.02304 =
         0.02524   -0.00052    0.00971   -0.00073
AFIX  23
H14A  2    0.764564    0.549208    0.221000    11.00000   -1.20000
H14B  2    0.562545    0.513016    0.063638    11.00000   -1.20000
AFIX   0
C15   1    0.809781    0.512132    0.715111    11.00000    0.03344    0.02128 =
         0.02529   -0.00417    0.00554    0.00064
C16   1    0.704101    0.725361    0.406565    11.00000    0.03584    0.02269 =
         0.02187   -0.00490    0.00838   -0.00254
C17   1    0.424309    0.817993    0.291870    11.00000    0.06105    0.02408 =
         0.02729    0.00291    0.00428    0.01166
AFIX 137
H17A  2    0.483859    0.832445    0.181512    11.00000   -1.50000
H17B  2    0.484724    0.852722    0.399858    11.00000   -1.50000
H17C  2    0.262043    0.822287    0.256753    11.00000   -1.50000
AFIX   0
HKLF 4




REM  mx6923_a.res in P2(1)
REM R1 =  0.0282 for    3104 Fo > 4sig(Fo)  and  0.0284 for all    3134 data
REM    209 parameters refined using      1 restraints

END

WGHT      0.0377      0.1120

REM Instructions for potential hydrogen bonds
EQIV $1 x-1, y, z-1
HTAB C5 O3_$1
EQIV $2 x, y, z-1
HTAB C14 O3_$2

REM Highest difference peak  0.186,  deepest hole -0.156,  1-sigma level  0.038
Q1    1   0.4100  0.3803  0.2218  11.00000  0.05    0.19
Q2    1   0.6175  0.4045  0.2414  11.00000  0.05    0.19
Q3    1   0.6547  0.6184  0.4690  11.00000  0.05    0.17
Q4    1   0.7161  0.6791  0.4244  11.00000  0.05    0.15
Q5    1   0.2426  0.3590  0.1046  11.00000  0.05    0.15
Q6    1   0.6513  0.4765  0.2539  11.00000  0.05    0.14
Q7    1   0.5251  0.5730  0.3874  11.00000  0.05    0.14
Q8    1   0.9742  0.5812  0.5786  11.00000  0.05    0.14
Q9    1   0.8456  0.6402  0.5578  11.00000  0.05    0.14
Q10   1   0.5502  0.3412  0.2375  11.00000  0.05    0.14
Q11   1   0.1077  0.3998  0.2735  11.00000  0.05    0.14
Q12   1   0.9657  0.4491  0.4459  11.00000  0.05    0.13
Q13   1   0.7231  0.6047  0.8359  11.00000  0.05    0.13
Q14   1   0.7805  0.4391  0.3940  11.00000  0.05    0.12
Q15   1  -0.0016  0.3482 -0.1029  11.00000  0.05    0.12
Q16   1   0.1874  0.2900  0.0982  11.00000  0.05    0.12
Q17   1   0.9874  0.6346  0.5802  11.00000  0.05    0.12
Q18   1   0.8568  0.6244  0.4495  11.00000  0.05    0.12
Q19   1  -0.0346  0.3513 -0.1755  11.00000  0.05    0.11
Q20   1   0.3110  0.2497  0.1647  11.00000  0.05    0.11
;
_shelx_res_checksum              26281
_shelx_hkl_file
;
   0   0  -1 1626.49   15.34
   0   0  -2  139.35    2.21
   0   0  -2  124.09    1.85
   0   0   2  137.81    1.97
   0   0   2  137.67    2.09
   0   0  -2  143.09    2.15
   0   0   3  162.19    2.90
   0   0  -3  146.32    2.34
   0   0   3  167.85    2.54
   0   0  -3  160.74    2.58
   0   0   4   23.45    1.31
   0   0  -4   25.74    1.14
   0   0  -5  131.46    4.44
   0   0  -6  145.89    5.54
   0   0   7   80.76    4.48
   0   0  -7   90.05    4.71
   0   0   8   23.69    3.34
   0   0  -8   22.64    2.88
   0   0  -8   34.64    4.25
   0   0   9    8.07    1.90
   0   0  -9    2.78    1.13
   0   0  -9    3.85    1.22
   0   1   0    0.14    0.05
   0  -1   0    0.20    0.05
   0  -1   0    0.07    0.05
   0  -1   0    0.83    0.18
   0   1   0    0.23    0.13
   0   1   1  376.71    4.06
   0   1  -1  356.82    3.82
   0   1  -1  365.91    3.79
   0  -1   1  369.28    3.99
   0   1  -1  369.97    3.99
   0  -1   3  161.29    2.85
   0   1  -3  190.41    2.87
   0   1   3  169.86    2.45
   0  -1   3  182.61    2.87
   0  -1  -3  163.07    2.60
   0   1  -3  169.66    2.85
   0   1   4   32.90    1.64
   0  -1   4   34.33    1.56
   0  -1  -4   34.57    1.29
   0   1  -4   31.15    1.32
   0  -1   4   32.75    1.50
   0   1   5  457.63   14.03
   0  -1   5  472.19   14.44
   0  -1  -5  546.31   16.25
   0   1  -5  449.33   13.48
   0   1   6    7.74    1.23
   0  -1   6    2.88    0.92
   0  -1  -6    5.06    0.89
   0   1  -6    2.01    0.67
   0  -1   7   69.42    4.17
   0  -1  -7   68.88    3.97
   0   1  -7   60.38    3.33
   0  -1  -7   53.41    3.27
   0   1   8   57.77    5.11
   0  -1   8   62.63    5.64
   0  -1  -8   43.15    5.01
   0   1  -8   70.11    5.77
   0  -1  -8   58.92    5.17
   0   1   9   24.28    2.84
   0  -1   9   27.58    3.19
   0   1  -9   27.14    2.91
   0  -1  -9   24.70    2.71
   0  -1  -9   20.40    2.28
   0   1  -9   21.63    2.38
   0   2   0  173.20    1.87
   0  -2   0  153.95    1.94
   0   2   3  989.75   10.85
   0  -2  -3 1055.76   10.90
   0   2   3 1012.93   10.29
   0   2  -3 1069.38   11.05
   0  -2  -3  982.11   10.41
   0  -2   3 1067.95   11.68
   0   2   4  370.25    7.63
   0  -2   4  431.10    8.55
   0  -2  -4  394.95    7.64
   0   2  -4  421.41    8.09
   0  -2   4  422.47    8.86
   0  -2  -4  460.79    9.02
   0   2   5  282.47    9.11
   0  -2   5  285.60    9.18
   0  -2  -5  303.12    9.39
   0   2  -5  306.95    9.47
   0  -2   5  299.57    9.43
   0  -2  -5  301.35    9.53
   0   2   6  286.14   10.45
   0  -2   6  270.69    9.94
   0  -2  -6  293.51   10.30
   0   2  -6  241.40    8.69
   0  -2  -6  289.84   10.48
   0   2   7   15.18    1.76
   0  -2   7   20.38    2.09
   0  -2  -7   19.08    1.60
   0   2  -7   14.59    1.35
   0  -2  -7   18.21    1.84
   0   2   8   57.72    5.31
   0  -2   8   51.72    4.86
   0  -2  -8   51.69    4.38
   0   2  -8   50.48    4.36
   0  -2  -8   49.28    4.41
   0   3   0    0.51    0.16
   0  -3   0    0.39    0.26
   0   3   0    0.31    0.20
   0  -3   0    0.18    0.59
   0   3   0    1.96    0.83
   0   3   1 1649.55   15.84
   0  -3  -1 1625.54   15.57
   0   3  -1 1665.59   15.82
   0  -3  -1 1500.43   14.26
   0  -3   1 1582.00   15.33
   0   3   1 1488.87   14.53
   0  -3  -2 6011.45   79.06
   0   3   2 5734.22   75.45
   0   3   3 1065.30   15.27
   0  -3   3  987.51   14.12
   0  -3  -3 1005.93   13.96
   0   3   3  984.84   13.59
   0   3  -3 1094.54   15.35
   0  -3   3  956.94   13.81
   0   3   4   23.15    1.34
   0  -3   4   24.32    1.41
   0  -3  -4   27.30    1.12
   0   3  -4   21.53    1.09
   0  -3   4   32.00    4.29
   0  -3  -4   25.49    1.37
   0   3   5   36.67    2.07
   0  -3   5   38.41    2.06
   0  -3  -5   40.22    1.79
   0   3  -5   34.54    1.74
   0  -3   5   40.38    2.42
   0  -3  -5   33.86    1.98
   0   3   6  276.14   10.25
   0  -3   6  270.74   10.04
   0  -3  -6  264.26    9.37
   0   3  -6  295.01   10.42
   0  -3   6  268.04    9.70
   0  -3  -6  280.92   10.25
   0   3   7   74.29    4.38
   0  -3   7   75.62    4.41
   0  -3  -7   77.63    4.21
   0   3  -7   75.08    4.19
   0  -3  -7   75.73    4.36
   0   3   8   39.43    4.98
   0  -3   8   33.39    4.21
   0  -3  -8   29.26    3.57
   0   3  -8   35.91    4.25
   0  -3  -8   33.76    4.18
   0   4   0 2624.37   25.03
   0   4   1 1617.56   15.68
   0  -4  -1 1556.38   15.07
   0  -4   1 1597.74   15.30
   0   4  -1 1543.03   14.82
   0  -4   1 1645.31   16.16
   0  -4  -2 3810.57   50.28
   0  -4   2 3712.56   49.17
   0  -4   2 3580.38   47.80
   0  -4  -2 3692.38   49.19
   0   4   2 3610.20   47.98
   0   4   3  503.43    8.02
   0  -4   3  478.35    7.54
   0  -4  -3  537.41    8.01
   0   4   3  508.55    7.38
   0   4  -3  528.90    8.00
   0  -4   3  518.63    8.09
   0   4   4  960.55   17.72
   0  -4   4 1046.04   18.94
   0  -4  -4  939.25   16.83
   0   4  -4  904.33   16.30
   0  -4   4  979.64   17.72
   0  -4  -4  989.81   18.11
   0   4   5  301.63    9.84
   0  -4   5  254.81    8.27
   0  -4  -5  267.78    8.38
   0   4  -5  253.44    8.06
   0  -4   5  246.78    8.68
   0  -4  -5  244.93    8.03
   0   4   6  218.46    8.41
   0  -4   6  206.79    7.91
   0  -4  -6  206.15    7.57
   0   4  -6  212.20    7.80
   0  -4   6  215.02    7.95
   0  -4  -6  210.02    7.96
   0   4   7  366.18   17.13
   0  -4   7  383.82   17.83
   0  -4  -7  375.96   17.19
   0   4  -7  355.36   16.30
   0  -4  -7  376.38   17.51
   0   4   8  118.36    9.63
   0  -4   8  102.78    8.34
   0  -4  -8  109.63    8.62
   0   4  -8  101.43    8.01
   0  -4  -8   90.33    7.42
   0  -5   0    1.49    0.30
   0  -5   0    0.62    0.62
   0  -5   0    0.91    0.50
   0   5   0    0.45    0.31
   0  -5   0    2.60    0.87
   0   5   0    0.89    0.69
   0  -5  -1 1074.46   10.79
   0  -5   1 1105.54   10.93
   0   5  -1 1128.02   11.15
   0  -5  -1 1157.33   11.59
   0   5  -1 1149.00   11.55
   0  -5  -1 1063.40   11.32
   0   5   1 1035.65   10.85
   0  -5  -2  137.17    2.38
   0  -5   2  140.44    2.35
   0   5  -2  135.29    2.24
   0  -5  -2  148.38    2.29
   0   5   2  135.46    2.06
   0  -5   2  144.09    2.44
   0  -5   2  127.87    2.45
   0  -5  -2  135.80    2.64
   0   5   2  145.13    2.57
   0   5   3    5.64    0.61
   0  -5   3    8.88    0.88
   0   5   3    5.92    0.46
   0   5  -3    4.69    0.62
   0  -5   3    9.18    1.43
   0   5   4  185.14    6.11
   0  -5   4  189.14    6.05
   0  -5  -4  176.75    5.51
   0   5  -4  185.68    5.86
   0  -5   4  193.57    6.68
   0  -5  -4  191.01    6.21
   0   5   5  168.65    5.63
   0  -5   5  160.72    5.21
   0  -5  -5  160.15    5.03
   0   5  -5  146.44    4.67
   0  -5   5  140.64    4.99
   0  -5  -5  150.13    5.08
   0   5   6  335.02   13.57
   0  -5   6  324.17   12.94
   0  -5  -6  367.41   14.29
   0   5  -6  319.51   12.58
   0  -5   6  333.56   13.14
   0  -5  -6  299.23   12.06
   0   5   7   24.94    2.42
   0  -5   7   14.58    1.64
   0  -5  -7   24.58    1.93
   0   5  -7   25.20    2.10
   0  -5   7   19.09    5.20
   0  -5  -7   18.58    1.89
   0   5   8   36.09    4.44
   0  -5   8   38.67    4.61
   0  -5  -8   45.63    3.67
   0   5  -8   39.44    3.25
   0  -5  -8   33.12    4.63
   0  -6  -1 2467.30   23.60
   0  -6   1 2542.99   24.11
   0   6  -1 2450.19   23.26
   0   6   1 2288.03   21.86
   0  -6   1 2265.53   22.30
   0   6   1 2300.21   22.68
   0   6   2  619.69    9.28
   0  -6  -2  599.89    8.86
   0  -6   2  669.49    9.68
   0   6  -2  616.22    8.99
   0  -6  -2  633.38    9.17
   0   6   2  562.33    8.13
   0  -6   2  629.41    9.52
   0  -6  -2  647.55   10.01
   0  -6   3 1627.48   28.42
   0  -6  -3 1692.08   29.32
   0   6   3 1770.67   30.51
   0   6  -3 1683.97   29.38
   0  -6   3 1659.94   29.19
   0   6   4 1351.03   37.82
   0  -6   4 1394.01   38.78
   0  -6  -4 1407.15   38.96
   0   6  -4 1213.69   33.81
   0  -6   4 1447.06   40.38
   0  -6  -4 1213.90   34.09
   0   6   5  247.67    7.78
   0  -6   5  243.52    7.39
   0  -6  -5  263.24    7.65
   0   6  -5  236.53    6.99
   0  -6   5  227.94    6.88
   0  -6  -5  229.23    7.20
   0   6   6  251.84   10.51
   0  -6   6  247.75   10.18
   0  -6  -6  279.49   11.08
   0   6  -6  258.10   10.37
   0  -6   6  247.89   10.50
   0  -6  -6  241.61   10.08
   0   6   7    2.55    1.12
   0  -6   7    3.72    1.43
   0   6  -7    8.47    1.21
   0  -6   7    4.41    1.54
   0  -6  -7    4.52    1.47
   0   6   8   44.73    3.91
   0  -6   8   50.69    4.47
   0  -6  -8   44.57    3.62
   0   6  -8   36.98    4.23
   0  -6  -8   46.18    4.33
   0  -7   0    0.18    0.11
   0  -7   0    0.81    0.51
   0   7   0    0.52    0.31
   0  -7   0    1.25    0.71
   0   7   0    3.45    0.89
   0   7   1  641.64    7.49
   0  -7  -1  629.06    6.97
   0  -7   1  666.45    7.19
   0   7  -1  627.04    6.80
   0   7  -1  650.66    7.46
   0  -7  -1  615.60    7.51
   0   7   1  622.59    6.85
   0   7  -1  653.16    7.38
   0  -7  -1  667.82    8.16
   0   7   2 3423.91   45.90
   0  -7  -2 3269.59   43.80
   0  -7   2 3576.83   60.84
   0   7  -2 3345.30   44.56
   0  -7  -2 3614.42   61.65
   0   7   2 3349.82   44.46
   0  -7   2 3462.88   59.33
   0   7   3  173.42    4.19
   0  -7   3  168.73    3.91
   0  -7  -3  169.94    3.74
   0   7  -3  180.27    4.13
   0  -7   3  172.90    4.48
   0  -7  -3  149.72    3.95
   0   7   4  158.37    5.41
   0  -7   4  162.77    5.35
   0  -7  -4  161.48    5.13
   0   7  -4  163.74    5.28
   0  -7   4  164.13    5.40
   0  -7  -4  155.28    5.37
   0   7   5   57.38    2.72
   0  -7   5   59.79    2.52
   0  -7  -5   49.70    2.01
   0   7  -5   73.04    2.78
   0  -7   5   45.20    2.20
   0  -7  -5   47.17    2.39
   0   7   6  162.65    7.92
   0  -7   6  161.42    7.66
   0  -7  -6  159.79    7.38
   0   7  -6  157.64    7.43
   0  -7   6  160.61    8.07
   0  -7  -6  158.43    7.68
   0   7   7   79.47    5.53
   0  -7   7   82.04    5.52
   0  -7  -7   86.30    5.53
   0   7  -7   85.95    5.52
   0  -7   7   82.61    5.39
   0  -7  -7   82.12    5.61
   0   7   8  120.54    8.60
   0  -7   8  141.14    9.77
   0  -7  -8  145.42    9.76
   0   7  -8  125.16    8.53
   0  -7   8  127.40    8.73
   0  -7  -8  115.34    8.19
   0   8   0  500.37    7.67
   0  -8  -1  759.98   10.91
   0  -8   1  792.82   11.24
   0   8  -1  863.95   12.14
   0  -8  -1  746.67   11.50
   0   8   1  814.03   11.59
   0   8  -1  795.62   11.55
   0  -8   1  810.13   12.14
   0   8   2   59.28    1.87
   0  -8   2   51.42    1.55
   0   8  -2   58.70    1.58
   0  -8  -2   52.52    1.67
   0   8   2   52.98    1.43
   0   8  -2   65.76    1.90
   0  -8   2   52.62    1.98
   0   8   3 2211.37   38.79
   0  -8   3 2393.67   41.37
   0  -8  -3 2438.84   42.02
   0  -8   3 2180.81   38.07
   0  -8  -3 2099.50   37.09
   0   8   4  461.08   14.13
   0  -8   4  438.94   13.31
   0  -8  -4  440.14   13.18
   0   8  -4  434.26   13.12
   0  -8   4  452.11   13.89
   0  -8  -4  432.17   13.44
   0   8   5  247.54    7.32
   0  -8   5  214.46    6.17
   0  -8  -5  224.67    8.04
   0   8  -5  183.13    6.87
   0  -8   5  216.46    6.25
   0  -8  -5  202.22    7.77
   0   8   6   31.53    2.49
   0  -8   6   23.34    2.07
   0  -8  -6   13.58    1.21
   0   8  -6   27.34    2.00
   0  -8   6   23.12    2.72
   0  -8  -6   24.04    2.05
   0   8   7  177.34   11.02
   0  -8   7  175.01   10.73
   0  -8  -7  159.40    9.66
   0   8  -7  171.68   10.37
   0  -8   7  170.19   10.33
   0  -8  -7  164.50   10.25
   0   8   8   31.41    4.04
   0  -8   8   28.79    3.65
   0  -8  -8   32.86    3.81
   0   8  -8   32.12    3.82
   0  -8   8   34.56    4.40
   0  -8  -8   30.37    3.80
   0  -9   0    1.03    0.24
   0  -9   0    0.04    0.36
   0   9   0    0.27    0.30
   0  -9   0    1.16    0.80
   0   9   1   34.74    1.95
   0  -9  -1   30.34    1.11
   0  -9   1   28.37    1.05
   0  -9  -1   27.21    1.23
   0   9   1   27.43    1.12
   0   9  -1   27.70    4.92
   0  -9   1   29.28    1.47
   0  -9  -1   30.91    1.56
   0   9   2   18.12    2.55
   0  -9   2   13.41    0.82
   0   9  -2   12.64    0.77
   0  -9  -2   18.88    2.74
   0   9   2   12.21    0.69
   0   9  -2   14.81    1.00
   0  -9   2   15.20    1.07
   0   9   3   19.20    2.80
   0  -9   3   14.43    0.99
   0  -9  -3   20.26    2.91
   0   9  -3   19.37    1.36
   0  -9   3   17.43    1.27
   0  -9  -3   21.05    1.61
   0   9   4  355.29   11.44
   0  -9   4  384.33   10.81
   0  -9  -4  356.54    9.96
   0  -9   4  350.21   11.02
   0  -9  -4  342.39   10.24
   0   9   5  241.40    9.19
   0  -9   5  249.16    9.06
   0  -9  -5  246.25    8.73
   0   9  -5  266.46    9.62
   0  -9   5  241.43   10.50
   0  -9  -5  234.54    9.01
   0   9   6   94.24    5.20
   0  -9   6   93.16    4.94
   0  -9  -6   82.42    4.23
   0   9  -6   92.89    4.87
   0  -9   6   89.88    4.91
   0  -9  -6   88.07    4.93
   0  -9   7    9.84    1.62
   0  -9  -7    6.20    0.96
   0   9  -7   10.11    1.35
   0  -9   7    8.90    1.77
   0  -9  -7    7.59    1.36
   0   9   8   95.39    7.74
   0  -9   8   96.60    7.80
   0  -9  -8   94.96    7.36
   0   9  -8   85.85    6.86
   0  -9   8   77.86    8.51
   0  -9  -8   77.79    6.51
   0 -10   0  488.97    9.33
   0 -10   1 1129.25   19.79
   0  10   1 1212.49   21.63
   0 -10  -1 1180.11   20.80
   0 -10   1 1319.33   23.04
   0 -10  -1 1148.43   20.76
   0  10  -1 1228.69   21.79
   0 -10   1 1189.71   21.63
   0  10   2  554.25   15.87
   0 -10   2  523.85   14.86
   0 -10  -2  511.26   14.72
   0  10  -2  521.20   14.98
   0 -10   2  498.86   14.62
   0  10   3  201.85    7.46
   0 -10   3  207.93    6.66
   0 -10  -3  175.89    6.49
   0  10  -3  216.03    7.06
   0 -10   3  229.46    7.56
   0 -10  -3  230.68    7.80
   0  10   4  686.39   17.80
   0 -10   4  725.80   17.50
   0 -10  -4  666.75   16.04
   0  10  -4  584.38   14.25
   0 -10   4  636.06   17.96
   0 -10  -4  694.19   17.49
   0  10   5  194.20    9.85
   0 -10   5  203.97    8.40
   0 -10  -5  188.35    7.65
   0  10  -5  195.46    8.07
   0 -10   5  204.01    9.59
   0 -10  -5  194.26    8.44
   0  10   6  209.45   10.36
   0 -10   6  175.67    8.62
   0 -10  -6  181.33    8.61
   0  10  -6  188.57    9.05
   0 -10   6  203.38    9.77
   0 -10  -6  195.87    9.76
   0  10   7   64.56    6.00
   0 -10   7   53.48    4.60
   0 -10  -7   41.05    4.80
   0  10  -7   52.77    4.54
   0 -10   7   50.44    8.56
   0 -10  -7   33.24    4.18
   0  10   8   59.80    5.02
   0 -10   8   60.84    4.89
   0 -10  -8   59.15    4.61
   0  10  -8   67.89    5.18
   0 -10   8   59.61    5.13
   0 -10  -8   69.49    5.65
   0 -11   0    0.26    0.33
   0 -11   0    0.30    0.38
   0 -11   0    1.38    0.87
   0  11   1   68.94    2.51
   0 -11   1   62.99    2.34
   0 -11   1   76.65    2.66
   0 -11  -1   67.85    2.82
   0  11  -1   72.40    2.80
   0 -11   1   71.49    3.05
   0 -11  -1   74.94    3.16
   0  11   2  474.61   13.78
   0 -11  -2  428.48   12.57
   0  11  -2  423.42   12.33
   0 -11   2  461.27   13.72
   0  11   3  801.71   21.74
   0 -11   3  815.14   21.60
   0 -11  -3  822.63   22.15
   0  11  -3  814.39   21.79
   0 -11   3  809.99   21.92
   0 -11  -3  873.86   23.84
   0  11   4  119.96    6.17
   0 -11   4  126.49    4.92
   0 -11  -4  109.19    5.24
   0  11  -4  134.25    5.33
   0 -11   4  138.82    5.94
   0 -11  -4  124.54    5.63
   0  11   5   18.44    2.90
   0 -11   5   18.77    1.77
   0 -11  -5   13.96    1.27
   0  11  -5   12.51    1.25
   0 -11   5   16.45    2.54
   0 -11  -5   14.79    1.66
   0  11   6   60.31    4.13
   0 -11  -6   56.99    3.65
   0  11  -6   74.36    4.71
   0 -11   6   63.86    7.41
   0 -11  -6   85.84    5.63
   0  11   7    8.83    3.56
   0 -11   7   12.67    2.21
   0 -11  -7    7.97    1.45
   0  11  -7    7.27    1.46
   0 -11   7   10.11    3.12
   0 -11  -7   10.32    2.08
   0 -12   0   22.39    1.19
   0 -12   0   19.49    1.51
   0  12   1  376.20   11.33
   0 -12   1  386.63   11.55
   0 -12  -1  398.87   12.08
   0  12  -1  383.64   11.67
   0 -12   1  352.63   11.15
   0 -12  -1  372.32   11.84
   0  12   2  641.31   19.12
   0 -12   2  630.70   18.48
   0 -12  -2  625.84   18.67
   0  12  -2  604.19   18.32
   0 -12   2  597.57   18.14
   0  12   3  563.47   14.23
   0 -12   3  572.03   13.86
   0 -12  -3  487.69   12.09
   0  12  -3  534.53   13.27
   0 -12   3  519.49   13.21
   0 -12  -3  601.17   15.43
   0  12   4  251.38   10.42
   0 -12   4  253.06   10.06
   0 -12  -4  245.54   10.45
   0  12  -4  254.50   10.21
   0 -12   4  229.34    9.68
   0 -12  -4  251.05   10.53
   0  12   5  354.86   16.77
   0 -12   5  410.93   18.20
   0 -12  -5  374.47   16.80
   0  12  -5  381.30   16.95
   0 -12   5  352.15   15.84
   0 -12  -5  388.94   17.74
   0  12   6   11.77    2.25
   0 -12   6    8.29    1.30
   0 -12   6    5.90    2.31
   0 -12  -6    4.09    1.05
   0  12   7   11.39    4.65
   0 -12   7   19.95    2.69
   0 -12  -7   10.96    1.62
   0  12  -7   15.69    2.18
   0 -12   7   21.04    4.80
   0 -12  -7   27.56    3.93
   0 -13   0    1.87    0.88
   0 -13   1  147.79    4.51
   0 -13  -1  139.68    4.40
   0 -13  -1  156.41    4.95
   0  13  -1  149.97    4.93
   0 -13   1  151.10    5.20
   0 -13  -1  145.02    5.18
   0  13   2  475.69   12.09
   0 -13   2  458.92   12.48
   0 -13  -2  442.40   12.46
   0  13  -2  430.71   10.80
   0 -13   2  421.84   12.22
   0  13   3  215.22    7.90
   0 -13   3  198.30    7.11
   0 -13  -3  201.06    8.30
   0  13  -3  208.95    7.69
   0 -13   3  216.08    8.33
   0 -13  -3  231.78    8.91
   0  13   4   97.97    5.87
   0 -13   4   88.53    4.41
   0 -13  -4   96.84    4.80
   0  13  -4   94.99    4.80
   0 -13   4   79.02    4.26
   0 -13  -4  107.96    5.82
   0  13   5    2.44    0.73
   0 -13   5    6.01    1.01
   0 -13  -5    4.38    1.44
   0  13  -5    5.32    1.12
   0 -13   5    7.02    1.55
   0 -13  -5    4.24    1.20
   0  13   6   45.18    3.69
   0 -13   6   44.78    3.17
   0 -13  -6   62.16    4.01
   0  13  -6   52.49    3.67
   0 -13   6   45.36    5.32
   0 -13  -6   44.29    3.81
   0  13   7   23.16    3.37
   0 -13   7   23.15    3.37
   0  13  -7   20.87    3.05
   0 -13   7   16.09    5.10
   0 -13  -7   24.56    3.70
   0 -14   0  868.61   20.42
   0 -14   0  782.21   19.48
   0 -14   1  736.36   17.44
   0 -14  -1  690.58   16.53
   0  14  -1  710.00   17.15
   0 -14   1  684.71   17.18
   0 -14  -1  702.34   17.70
   0  14   2  417.45   14.68
   0 -14   2  438.39   14.80
   0 -14  -2  396.61   13.85
   0  14  -2  429.97   14.73
   0 -14   2  394.95   14.03
   0  14   3  267.42   11.72
   0 -14   3  276.59   10.79
   0 -14  -3  276.34   11.18
   0  14  -3  280.05   11.13
   0 -14   3  275.20   11.25
   0 -14  -3  246.79   10.47
   0  14   4   28.93    4.03
   0 -14   4   23.66    1.66
   0 -14  -4   20.16    2.78
   0  14  -4   22.24    1.87
   0 -14   4   20.79    1.88
   0 -14  -4   26.01    2.46
   0  14   5   32.21    4.29
   0 -14   5   27.14    2.19
   0 -14  -5   27.92    4.04
   0  14  -5   25.82    2.14
   0 -14   5   24.21    4.88
   0 -14  -5   34.38    2.98
   0  14   6  164.28   11.42
   0 -14   6  178.35   12.12
   0 -14  -6  162.70   11.14
   0  14  -6  183.83   12.57
   0 -14   6  176.73   12.14
   0 -14  -6  180.39   12.64
   0  14   7    8.99    3.14
   0  14  -7   12.87    1.75
   0 -14   7    5.36    1.92
   0 -14  -7    9.86    1.83
   0 -15   0    2.35    0.71
   0 -15   0    2.69    1.23
   0 -15   1  272.43    9.47
   0 -15  -1  280.77    9.83
   0  15  -1  269.59    9.56
   0 -15   1  250.24    9.45
   0 -15  -1  269.26   10.12
   0  15   2   41.77    2.32
   0 -15   2   49.86    2.46
   0 -15  -2   47.80    2.69
   0  15  -2   46.26    2.47
   0 -15   2   52.33    3.15
   0  15   3  172.40    8.61
   0 -15   3  202.80    9.07
   0 -15  -3  182.17    9.98
   0  15  -3  178.57    8.25
   0 -15   3  190.19    9.02
   0 -15  -3  208.12    9.95
   0  15   4  301.15   14.10
   0 -15   4  291.37   13.39
   0 -15  -4  263.38   12.88
   0  15  -4  288.46   13.43
   0 -15   4  282.13   13.63
   0 -15  -4  267.01   13.03
   0  15   5   27.28    6.61
   0 -15   5   31.21    2.40
   0 -15  -5   18.88    2.20
   0  15  -5   30.65    2.59
   0 -15  -5   26.65    2.60
   0  15   6    7.23    1.40
   0 -15   6    5.53    1.28
   0  15  -6    4.27    1.25
   0 -15  -6    3.44    1.05
   0 -16   0  303.57   11.78
   0 -16   0  281.37   11.71
   0 -16   1  229.07    9.02
   0 -16  -1  221.68    8.84
   0  16  -1  229.69    9.22
   0 -16   1  238.26   10.06
   0 -16  -1  250.72   10.59
   0  16   2   26.50    1.87
   0 -16   2   27.87    1.71
   0 -16  -2   25.77    1.77
   0  16  -2   19.63    1.55
   0 -16   2   27.77    2.34
   0  16   3  352.56   17.02
   0 -16   3  342.04   15.49
   0 -16  -3  330.12   15.17
   0  16  -3  367.94   16.83
   0 -16   3  341.85   16.06
   0 -16  -3  318.11   15.22
   0  16   4  201.79   12.09
   0 -16   4  229.17   13.42
   0 -16  -4  193.41   11.64
   0  16  -4  195.00   11.68
   0 -16   4  184.68   11.24
   0 -16  -4  186.24   11.61
   0  16   5  138.58   10.83
   0 -16   5  138.73   10.67
   0 -16  -5  134.83   10.39
   0 -16   5  127.21   11.67
   0  16   6   36.91    6.98
   0  16  -6   50.90    4.39
   0 -16   6   41.30    6.36
   0 -16  -6   49.09    4.80
   0 -17   0    2.20    0.92
   0  17   0    1.48    1.09
   0 -17   0    2.86    1.28
   0 -17   1   83.30    4.11
   0 -17  -1   85.09    4.28
   0  17  -1   86.93    4.46
   0 -17   1   81.50    4.65
   0 -17  -1   79.01    4.64
   0 -17   2   21.90    1.50
   0 -17  -2   22.65    1.74
   0  17  -2   23.10    1.79
   0 -17   2   14.88    1.68
   0  17   3    6.23    1.76
   0 -17   3    4.06    0.76
   0 -17  -3    5.37    1.81
   0 -17   3    8.19    1.55
   0 -17  -3    6.48    1.66
   0  17   4  197.48   11.40
   0 -17  -4  206.40   12.12
   0  17  -4  202.53   11.47
   0 -17   4  205.98   11.90
   0 -17  -4  203.25   11.98
   0  17   5   76.42    6.39
   0  17  -5   86.22    6.08
   0 -17   5   69.06    5.23
   0 -17  -5   87.50    6.66
   0 -18   0   23.11    1.64
   0  18   0   29.18    2.12
   0 -18   0   32.39    2.64
   0 -18   1  349.75   18.86
   0 -18  -1  391.43   22.48
   0  18  -1  385.19   22.22
   0 -18   1  365.69   20.36
   0 -18   2   20.35    1.60
   0 -18  -2   22.63    1.87
   0  18  -2   20.11    1.73
   0 -18   2   20.76    2.26
   0 -18  -2   17.77    2.02
   0  18   3   81.09    5.03
   0 -18  -3   85.79    5.21
   0  18  -3   86.79    5.37
   0 -18   3   87.60    5.65
   0 -18  -3   89.48    5.99
   0  18   4   29.98    4.40
   0  18  -4   22.16    3.26
   0 -18   4   33.06    4.64
   0 -18  -4   32.42    4.75
   0  18   5  116.45    9.02
   0  18  -5  102.65    7.92
   0 -18   5  118.75    9.21
   0 -18  -5  104.25    8.54
   0  19   0    1.29    0.92
   0 -19   0    4.55    1.41
   0 -19  -1   29.01    2.22
   0  19  -1   30.95    2.42
   0 -19   1   24.80    2.46
   0 -19  -1   32.19    2.96
   0 -19  -2   32.83    2.44
   0  19  -2   31.71    2.61
   0 -19   2   30.84    2.70
   0 -19  -2   37.85    3.22
   0  19   3   14.61    2.19
   0 -19  -3   14.29    2.10
   0  19  -3   20.74    3.10
   0 -19   3   13.13    2.29
   0 -19  -3   12.63    2.41
   0  19   4    3.27    1.04
   0  19  -4    4.77    1.24
   0 -19  -4    2.40    1.30
   0  20   0  425.96   52.39
   0 -20   0  389.89   29.38
   0  20  -1   11.89    1.91
   0 -20  -1    8.68    1.77
   0 -20   2  182.86   12.70
   0 -20  -2  169.05   11.96
   0  20  -3   27.60    3.28
   0 -20   3   20.85    2.93
   0 -20  -3   23.71    3.22
   0  20  -4    2.42    1.13
   0 -20   4    1.51    1.07
   0 -20  -4    4.38    1.55
   0 -21   0    3.16    1.76
   0  21  -1   38.47    4.38
   0  21   1   31.78    3.62
   0 -21   1   41.13    4.98
   0 -21  -1   43.36    5.97
   0  21  -2   29.64    2.68
   0 -21   2   21.86    3.37
   0 -21  -2   28.28    2.97
   0  21  -3   10.65    1.56
   0 -21  -3    9.28    1.76
   0  22   0  122.66    8.58
   0 -22   0  103.92    7.91
   0 -22   1    4.32    1.68
   0 -22  -1    4.14    1.48
  -1   0   9   16.80    2.78
   1   0  -9   32.09    3.16
   1   0  -9   26.33    3.75
  -1   0   8   59.86    4.29
   1   0  -8   67.30    4.37
   1   0  -8   56.54    3.90
  -1   0   7  197.06    9.51
   1   0  -7  185.68    8.66
  -1   0   6   67.76    2.93
   1   0  -6   81.00    3.09
  -1   0   5    1.78    0.74
   1   0  -5    1.73    0.66
  -1   0   4 1876.00   32.88
   1   0  -4 2003.33   34.75
  -1   0   3  639.69    7.55
   1   0  -3  615.09    7.01
   1   0  -3  573.49    6.30
  -1   0   1  992.53    9.76
  -1   0   1  975.37    9.41
   1   0   0  225.39    2.65
  -1   0   0  221.28    2.65
   1   0   0  220.85    2.51
  -1   0   0  214.31    2.50
  -1   0   0  220.93    2.42
   1   0   1  143.03    2.12
  -1   0  -1  134.14    2.03
  -1   0  -1  133.12    1.93
  -1   0  -2 2039.43   19.87
  -1   0  -2 2024.57   19.26
   1   0   2 1996.87   19.05
  -1   0  -2 2029.47   19.83
  -1   0  -3   42.60    1.29
   1   0   3   36.81    1.12
   1   0   4  128.47    3.52
  -1   0  -4  130.82    3.12
   1   0   5 1029.90   27.60
  -1   0  -5 1008.28   26.49
   1   0   6  110.44    5.21
  -1   0  -6  108.43    4.77
   1   0   7  106.49    6.98
  -1   0  -7  104.63    6.14
   1   0   8   18.30    3.04
  -1   0  -8   18.20    2.68
  -1   0  -8   19.35    3.05
  -1   1   9    4.00    1.70
  -1  -1   9    6.64    1.70
   1  -1  -9    4.77    1.39
   1   1  -9    4.17    1.32
   1  -1  -9    4.69    1.54
   1   1  -9    7.72    1.62
  -1   1   8   50.51    3.93
   1  -1  -8   58.35    3.95
   1  -1  -8   61.06    4.14
  -1   1   7    1.97    1.24
  -1  -1   7    6.22    1.22
   1  -1  -7    5.02    1.19
   1   1  -7    3.08    0.90
   1  -1  -7    3.30    1.06
  -1  -1   6  178.20    5.56
  -1   1   6  170.50    5.43
   1  -1  -6  167.77    4.98
   1   1  -6  151.74    4.72
   1  -1  -6  183.96    5.49
  -1   1   5   17.12    1.44
  -1  -1   5   17.79    1.43
   1  -1  -5   15.66    1.10
   1   1  -5   17.86    1.12
  -1   1   4  976.41   17.76
  -1  -1   4  992.91   18.08
   1   1  -4  915.77   16.40
  -1  -1   4  999.90   17.75
  -1  -1   3  467.51    5.94
   1  -1  -3  517.13    6.00
   1   1  -3  513.54    5.80
   1  -1  -2 9999.00  130.81
  -1  -1  -1  710.91    7.46
   1  -1   1  697.36    7.16
   1   1   1  653.79    6.37
  -1  -1  -1  694.56    7.16
   1  -1   2  182.78    2.83
  -1  -1  -2  171.70    2.70
  -1   1  -2  179.37    2.69
  -1  -1  -2  172.74    2.25
   1   1   2  190.09    2.46
   1  -1   2  170.90    2.45
  -1  -1  -2  178.78    2.63
  -1   1  -2  180.67    3.06
   1   1   3  309.08    5.49
   1  -1   3  319.04    5.47
  -1   1  -3  349.60    5.57
   1   1   3  306.09    4.82
   1  -1   3  335.45    5.69
   1   1   4   14.81    1.13
   1  -1   4   15.26    1.09
  -1  -1  -4   10.82    0.72
  -1   1  -4   11.11    0.81
   1  -1   4   17.10    1.10
   1  -1   5   48.26    2.35
   1   1   5   44.65    2.32
  -1  -1  -5   47.56    1.95
  -1   1  -5   41.18    1.84
   1   1   6  191.80    8.28
   1  -1   6  172.70    7.48
  -1  -1  -6  170.21    6.95
  -1   1  -6  182.75    7.47
   1   1   7   58.21    4.11
   1  -1   7   56.56    4.07
  -1  -1  -7   63.43    4.00
  -1   1  -7   57.43    3.70
  -1  -1  -7   56.33    4.08
   1   1   8   29.09    4.33
   1  -1   8   17.74    2.77
  -1  -1  -8   17.45    2.56
  -1   1  -8   20.20    3.04
  -1  -1  -8   17.16    2.69
  -1   2   9   21.40    3.51
   1  -2  -9   16.12    2.57
   1   2  -9   23.02    3.52
   1  -2  -9   17.08    2.73
   1   2  -9   18.06    2.78
  -1   2   8   51.27    4.00
  -1  -2   8   62.15    4.44
   1  -2  -8   78.74    5.12
   1   2  -8   57.01    3.86
   1  -2  -8   50.86    3.61
  -1   2   7   49.95    3.46
  -1  -2   7   38.28    2.69
   1  -2  -7   58.39    3.37
   1   2  -7   61.58    3.62
   1  -2  -7   53.59    3.25
  -1   2   6  131.54    4.54
   1  -2  -6  115.62    3.77
   1   2  -6  130.66    4.10
   1  -2  -6  132.88    4.23
  -1   2   5  776.33   23.03
   1  -2  -5  745.39   21.82
   1   2  -5  734.02   21.52
  -1  -2   5  781.50   23.22
   1  -2  -5  761.18   22.36
  -1   2   4 1798.54   31.62
  -1  -2   4 1764.91   31.08
   1  -2  -4 1761.81   30.75
   1   2  -4 1789.70   31.09
  -1  -2   4 1694.25   29.46
   1  -2  -4 1728.68   30.10
  -1   2   3  235.21    3.63
   1  -2  -3  216.50    3.27
  -1  -2   3  232.69    3.28
   1   2  -3  208.26    3.37
   1  -2  -3  210.34    3.10
   1  -2  -2 4088.50   53.96
   1   2  -2 3936.83   52.12
  -1  -2   2 3843.73   50.58
   1   2  -1 1298.13   12.40
   1  -2  -1 1277.90   12.26
   1   2   0  525.46    5.82
   1  -2   0  520.96    5.88
  -1   2   0  492.96    5.15
  -1  -2   0  510.60    5.38
  -1  -2  -1 3163.84   41.94
  -1   2  -1 3380.37   44.69
   1   2   2  709.57    8.05
  -1  -2  -2  669.70    7.55
   1  -2   2  692.96    7.53
  -1   2  -2  677.04    7.31
  -1  -2  -2  749.20    7.49
   1   2   2  762.35    7.64
  -1   2  -2  698.04    7.50
   1  -2   2  698.52    7.56
  -1   2  -2  717.01    7.94
  -1  -2  -2  764.21    8.49
   1  -2   3 1426.14   19.92
  -1   2  -3 1445.12   19.85
   1   2   3 1602.27   21.65
   1  -2   3 1364.04   19.37
   1  -2   4  307.36    9.26
  -1  -2  -4  315.13    9.12
  -1   2  -4  332.91    9.78
   1  -2   4  325.72    9.74
   1  -2   5  215.82    6.74
  -1  -2  -5  233.42    6.72
  -1   2  -5  210.58    6.24
   1  -2   5  232.91    7.12
   1   2   6    6.53    1.15
   1  -2   6    7.87    1.22
  -1  -2  -6    7.81    0.94
  -1   2  -6    6.82    0.93
  -1  -2  -6    7.84    1.24
   1   2   7   95.38    6.09
   1  -2   7  104.78    6.49
  -1  -2  -7  109.83    6.45
  -1   2  -7  111.59    6.54
  -1  -2  -7  109.46    6.75
   1   2   8   54.48    4.73
   1  -2   8   42.03    3.66
  -1  -2  -8   45.72    3.60
  -1   2  -8   59.59    4.73
  -1  -2  -8   49.14    4.19
  -1   3   9   40.08    3.70
  -1  -3   9   30.47    3.05
   1  -3  -9   57.10    4.60
   1   3  -9   34.18    3.07
   1  -3  -9   33.02    3.15
  -1   3   8  144.78    8.80
  -1  -3   8  160.04    9.56
   1  -3  -8  159.84    9.26
   1   3  -8  147.57    8.69
   1  -3  -8  152.93    9.02
  -1   3   7  135.79    6.91
  -1  -3   7  131.93    6.78
   1  -3  -7  137.51    6.71
   1   3  -7  132.74    6.63
   1  -3  -7  117.49    6.01
  -1   3   6  419.90   14.81
  -1  -3   6  393.60   13.91
   1  -3  -6  386.94   13.51
   1   3  -6  361.22   12.54
  -1  -3   6  422.43   14.55
   1  -3  -6  417.31   14.50
  -1   3   5  383.77   11.93
  -1  -3   5  372.10   11.62
   1  -3  -5  384.15   11.78
   1   3  -5  410.35   12.43
  -1  -3   5  360.05   11.48
   1  -3  -5  377.16   11.57
  -1   3   4 2759.11   47.75
   1  -3  -4 2715.46   46.75
   1   3  -4 2546.85   43.84
  -1  -3   4 2742.89   47.46
   1  -3  -4 2604.66   44.91
   1  -3  -3  580.39    8.73
  -1  -3   3  602.67    8.96
   1   3  -3  581.96    8.54
   1  -3  -3  596.86    8.91
   1  -3  -2 2045.67   19.69
   1   3  -2 1990.05   19.47
   1  -3  -2 2148.92   20.81
  -1  -3   2 2027.64   19.37
  -1  -3   2 2029.31   19.40
   1   3  -2 1990.10   19.13
  -1   3   2 2061.01   19.73
  -1   3   1  147.38    1.87
   1  -3  -1  141.46    1.80
  -1  -3   1  134.45    2.18
   1   3  -1  135.70    2.13
   1  -3  -1  145.43    2.24
   1   3  -1  136.67    1.77
   1   3  -1  142.64    2.06
   1  -3  -1  135.91    2.06
   1   3   0  900.10    9.37
  -1   3   0  826.55    8.55
  -1   3   0  876.46    8.89
  -1  -3   0  866.98    8.91
   1  -3   1 1438.76   13.68
  -1   3  -1 1406.66   13.39
  -1   3  -1 1388.72   13.79
  -1  -3  -1 1419.63   14.24
   1   3   2  134.51    2.56
  -1  -3  -2  113.07    2.22
   1  -3   2  126.50    2.20
  -1   3  -2  127.52    2.10
  -1  -3  -2  137.53    1.87
   1   3   2  126.74    1.73
  -1   3  -2  119.50    2.16
  -1   3  -2  133.12    2.38
  -1  -3  -2  121.53    2.39
   1  -3   3   36.69    1.34
  -1  -3  -3   49.66    1.35
   1   3   3   39.95    1.07
   1  -3   3   47.96    1.63
   1   3   4   13.01    1.24
   1  -3   4   11.75    1.05
  -1  -3  -4   12.21    0.88
  -1   3  -4    9.90    0.86
   1  -3   4   11.71    1.87
  -1  -3  -4   10.11    1.02
   1   3   5   50.08    2.46
   1  -3   5   46.44    2.22
  -1  -3  -5   46.44    1.97
  -1   3  -5   44.82    2.12
   1  -3   5   54.16    6.99
  -1  -3  -5   42.90    2.26
   1   3   6   66.49    3.59
   1  -3   6   59.66    3.19
  -1  -3  -6   67.17    3.15
  -1   3  -6   67.37    3.29
  -1  -3  -6   65.95    3.61
   1  -3   7   29.56    2.63
  -1  -3  -7   30.68    2.22
  -1   3  -7   27.30    2.11
  -1  -3  -7   36.47    2.95
   1   3   8   76.97    5.94
   1  -3   8   77.36    5.85
  -1  -3  -8   89.78    6.34
  -1   3  -8   71.38    5.11
  -1  -3  -8   62.67    4.98
  -1   4   9   36.31    3.53
  -1  -4   9   40.61    3.70
   1  -4  -9   41.18    3.54
   1   4  -9   38.56    3.46
   1  -4  -9   34.44    3.22
  -1   4   8    3.02    1.16
  -1  -4   8    1.88    1.02
   1  -4  -8    5.44    1.20
   1   4  -8    4.44    1.33
   1  -4  -8    2.56    0.84
  -1   4   7  159.17    7.91
  -1  -4   7  150.74    7.50
   1  -4  -7  154.48    7.52
   1   4  -7  143.26    6.93
   1  -4  -7  144.45    7.09
  -1   4   6  329.88   11.90
  -1  -4   6  328.84   11.82
   1  -4  -6  370.29   12.96
   1   4  -6  325.37   11.40
  -1  -4   6  344.39   12.02
   1  -4  -6  320.07   11.36
  -1   4   5   44.83    2.34
  -1  -4   5   49.69    2.40
   1  -4  -5   63.66    2.75
   1   4  -5   48.36    2.11
  -1  -4   5   54.70    2.63
   1  -4  -5   51.67    2.33
  -1   4   4  601.80   11.54
  -1  -4   4  618.11   11.84
   1  -4  -4  610.03   11.47
   1   4  -4  623.44   11.60
  -1  -4   4  588.51   11.03
   1  -4  -4  592.20   11.27
  -1   4   3  588.97    8.98
  -1  -4   3  585.91    9.26
   1   4  -3  556.78    8.38
   1  -4  -3  599.52    9.05
  -1   4   2 1850.36   18.03
   1  -4  -2 1809.83   17.58
  -1  -4   2 1900.91   18.79
   1   4  -2 1961.95   19.37
  -1  -4   2 1959.69   19.03
   1   4  -2 1887.54   18.43
   1  -4  -2 1877.12   18.54
  -1   4   2 1831.27   17.90
  -1   4   1   21.58    0.60
   1  -4  -1   27.06    0.65
  -1  -4   1   28.58    1.03
   1   4  -1   20.06    0.81
   1  -4  -1   27.07    1.29
   1   4  -1   18.84    0.63
  -1  -4   1   26.52    0.71
   1   4  -1   21.37    0.80
   1  -4  -1   24.88    0.93
  -1   4   1   22.25    0.82
   1   4   0 4628.33   61.00
  -1  -4   0 4445.99   58.75
   1   4   1  428.14    5.72
  -1  -4  -1  423.65    5.15
   1  -4   1  457.93    4.74
  -1   4  -1  443.78    4.59
  -1   4  -1  446.23    5.36
  -1  -4  -1  444.78    4.40
  -1   4  -1  433.00    5.24
  -1  -4  -1  451.69    5.54
   1   4   2  208.87    3.40
   1  -4   2  224.80    3.12
  -1   4  -2  217.21    2.98
  -1  -4  -2  220.71    2.68
   1   4   2  204.53    2.41
  -1   4  -2  215.40    3.22
  -1  -4  -2  224.85    3.64
   1   4   3  714.80   11.06
   1  -4   3  737.83   10.91
  -1  -4  -3  721.49   10.14
   1   4   3  708.17    9.94
   1  -4   3  726.81   11.56
  -1  -4  -3  714.06   11.00
   1  -4   4 1921.85   55.10
  -1  -4  -4 1719.18   49.02
  -1   4  -4 1699.41   46.95
   1  -4   4 1932.34   55.91
   1   4   5  444.55   11.67
   1  -4   5  399.35   10.31
  -1  -4  -5  419.73   10.28
  -1   4  -5  400.96   10.09
   1  -4   5  367.21    9.60
  -1  -4  -5  427.56   11.19
   1   4   6  123.67    6.38
   1  -4   6  114.96    5.78
  -1  -4  -6   98.56    4.71
  -1   4  -6  111.95    5.47
   1  -4   6  104.70    7.15
  -1  -4  -6  117.78    6.17
   1   4   7  110.10    6.88
   1  -4   7  120.57    7.35
  -1  -4  -7  116.06    6.81
  -1   4  -7   95.25    5.74
  -1  -4  -7   96.50    6.11
   1   4   8   73.23    5.64
   1  -4   8   69.71    5.36
  -1  -4  -8   57.01    4.26
  -1   4  -8   75.22    5.43
  -1  -4  -8   68.45    5.34
  -1   5   9   47.03    4.31
  -1  -5   9   34.20    3.32
   1  -5  -9   40.91    3.68
   1   5  -9   37.86    3.40
   1  -5  -9   35.99    3.28
  -1   5   8   25.75    3.46
  -1  -5   8   20.24    2.80
   1  -5  -8   35.54    4.49
   1   5  -8   23.60    3.00
   1  -5  -8   22.33    2.98
  -1   5   7  303.47   14.41
  -1  -5   7  269.63   12.86
   1  -5  -7  351.74   16.23
   1   5  -7  298.82   13.89
  -1  -5   7  317.83   14.69
   1  -5  -7  290.12   13.66
  -1   5   6  225.80    8.47
  -1  -5   6  237.17    8.90
   1  -5  -6  280.80   10.08
   1   5  -6  260.32    9.38
  -1  -5   6  215.40    7.80
   1  -5  -6  243.60    9.00
  -1   5   5  247.58    8.09
  -1  -5   5  228.75    7.63
   1  -5  -5  251.55    8.07
   1   5  -5  247.07    7.84
  -1  -5   5  247.57    8.15
   1  -5  -5  254.24    8.22
  -1   5   4  649.39   12.35
  -1  -5   4  729.19   13.74
   1  -5  -4  757.85   14.00
  -1  -5   4  743.57   14.16
   1  -5  -4  724.38   13.57
  -1   5   3  521.60    8.06
  -1  -5   3  512.77    8.09
  -1  -5   3  525.12    8.22
   1   5  -3  483.66    7.53
   1  -5  -3  471.79    7.53
  -1   5   2  700.14    7.57
   1  -5  -2  684.37    7.32
   1  -5  -2  703.40    7.94
   1   5  -2  655.41    7.14
  -1  -5   2  659.05    7.15
  -1  -5   2  689.46    7.67
   1   5  -2  643.94    7.31
   1  -5  -2  703.66    8.05
  -1   5   2  633.21    7.18
  -1   5   1 1462.44   13.95
   1  -5  -1 1471.30   13.95
   1  -5  -1 1464.80   15.15
  -1   5   1 1432.45   14.34
  -1  -5   1 1469.25   14.20
   1  -5  -1 1493.64   15.05
   1   5  -1 1466.53   14.78
   1  -5   0   -0.02    0.03
   1   5   1  404.01    5.30
   1  -5   1  405.63    4.26
  -1   5  -1  424.93    4.43
  -1   5  -1  394.10    5.71
  -1  -5  -1  395.30    4.22
   1   5   1  401.47    4.06
  -1   5  -1  430.17    5.41
  -1  -5  -1  411.19    5.36
   1   5   2 1133.36   16.29
   1  -5   2 1158.31   15.92
  -1   5  -2 1123.13   15.40
  -1  -5  -2 1169.56   15.78
   1   5   2 1081.17   14.49
  -1   5  -2 1121.35   15.80
  -1  -5  -2 1134.40   16.33
   1   5   3   88.92    2.70
   1  -5   3   87.06    2.37
  -1  -5  -3   89.88    2.14
   1   5   3   74.65    1.74
  -1   5  -3   79.06    2.32
   1  -5   3   92.06    4.13
  -1  -5  -3   78.14    2.51
   1   5   4   33.38    2.07
   1  -5   4   42.53    2.06
  -1  -5  -4   30.09    1.35
  -1   5  -4   29.72    1.53
   1  -5   4   32.61    1.91
   1   5   5   67.13    3.17
   1  -5   5   59.52    2.50
  -1  -5  -5   62.87    2.26
  -1   5  -5   70.42    2.76
   1  -5   5   64.73    7.80
  -1  -5  -5   56.07    2.63
   1   5   6  132.14    6.76
   1  -5   6  127.29    6.22
  -1  -5  -6  125.73    5.90
  -1   5  -6  122.11    5.86
   1  -5   6  142.84    6.89
  -1  -5  -6  127.66    6.43
   1   5   7    6.09    1.35
  -1  -5  -7    7.22    1.00
  -1   5  -7    6.41    1.03
   1  -5   7    7.38    1.21
   1   5   8   28.20    3.73
   1  -5   8   33.11    4.02
  -1  -5  -8   27.66    3.33
  -1   5  -8   24.72    3.07
  -1  -5  -8   25.82    3.35
  -1   6   8  276.01   21.05
  -1  -6   8  262.02   19.99
   1  -6  -8  306.04   23.03
   1   6  -8  254.67   19.25
   1  -6  -8  248.60   18.93
  -1   6   7    4.66    1.28
  -1  -6   7    0.98    0.84
   1  -6  -7    7.33    1.16
   1   6  -7    5.09    1.21
  -1  -6   7    5.21    1.61
   1  -6  -7    4.71    1.15
  -1   6   6  246.23   10.20
  -1  -6   6  258.77   10.57
   1  -6  -6  258.83   10.45
   1   6  -6  240.38    9.66
  -1  -6   6  249.58    9.98
   1  -6  -6  236.92    9.73
  -1   6   5    2.30    0.81
  -1  -6   5    2.32    0.76
   1  -6  -5    2.49    1.01
   1   6  -5    4.82    0.75
  -1  -6   5    3.32    1.25
   1  -6  -5    3.46    1.29
  -1   6   4  920.42   25.97
  -1  -6   4  865.49   24.48
   1  -6  -4  970.17   27.20
  -1  -6   4  845.19   23.82
   1  -6  -4  873.18   24.71
  -1   6   3  597.48    9.18
  -1  -6   3  551.41    8.66
   1  -6  -3  605.56    9.27
   1   6  -3  664.65    9.91
  -1  -6   3  620.26    9.39
   1  -6  -3  581.43    9.20
  -1   6   2   66.57    1.67
   1  -6  -2   68.95    1.57
  -1  -6   2   67.07    1.92
   1   6  -2   63.99    1.79
  -1   6   2   66.28    1.74
   1   6  -2   69.70    1.66
  -1  -6   2   71.74    1.71
  -1  -6   2   80.17    2.02
   1   6  -2   64.92    1.87
   1  -6  -2   76.36    2.12
  -1   6   2   65.61    1.80
   1  -6  -1 2670.00   24.92
   1   6  -1 2613.60   25.24
   1  -6  -1 2695.84   26.21
   1   6  -1 2793.31   26.33
  -1  -6   1 2621.79   24.86
   1  -6  -1 2635.44   25.74
   1   6  -1 2530.34   24.75
  -1  -6   0 3669.57   48.80
   1  -6   0 3684.62   49.19
  -1   6   0 4036.01   53.77
  -1  -6   0 3982.15   53.16
   1   6   1  187.55    3.23
  -1  -6  -1  167.09    2.82
   1  -6   1  177.86    2.19
  -1  -6  -1  168.86    3.24
   1   6   2 3437.36   46.57
   1  -6   2 3228.35   42.80
  -1   6  -2 3246.02   43.02
  -1   6  -2 3352.89   44.94
  -1  -6  -2 3363.46   45.52
   1   6   3  332.53    7.02
   1  -6   3  361.14    7.06
  -1  -6  -3  369.75    6.91
   1   6   3  333.85    6.14
  -1   6  -3  366.14    7.35
   1  -6   3  395.41    7.96
  -1  -6  -3  366.04    7.75
   1   6   4  313.49   10.65
   1  -6   4  332.10   10.23
  -1  -6  -4  326.56    9.80
  -1   6  -4  312.12    9.62
   1  -6   4  331.63   11.05
   1   6   5   39.67    2.53
   1  -6   5   33.08    1.76
  -1  -6  -5   33.33    1.54
  -1   6  -5   28.55    1.70
   1  -6   5   33.99    4.76
  -1  -6  -5   29.24    1.87
   1   6   6  465.71   20.91
   1  -6   6  448.56   19.88
  -1  -6  -6  437.44   19.19
  -1   6  -6  443.65   19.56
   1  -6   6  461.41   20.68
  -1  -6  -6  426.69   19.21
   1   6   7  102.55    6.81
   1  -6   7  120.70    7.75
  -1  -6  -7  107.51    6.65
  -1   6  -7  104.92    6.60
   1  -6   7   97.21    6.84
  -1  -6  -7  109.78    7.35
   1   6   8   22.85    3.65
   1  -6   8   16.73    2.73
  -1  -6  -8   14.77    2.38
  -1   6  -8   17.94    2.62
  -1  -6  -8   20.92    3.34
  -1   7   8    6.68    1.86
  -1  -7   8    2.64    1.13
   1  -7  -8    2.27    0.93
   1   7  -8    4.35    1.41
  -1  -7   8    2.14    1.79
  -1   7   7   14.38    1.63
  -1  -7   7   13.91    1.56
   1  -7  -7   15.46    1.75
   1   7  -7   13.91    1.46
  -1  -7   7   14.21    3.73
   1  -7  -7   15.65    1.66
  -1   7   6  102.30    5.01
  -1  -7   6   94.71    4.58
   1  -7  -6  103.51    4.84
   1   7  -6   91.57    4.26
  -1  -7   6  110.37    9.83
   1  -7  -6   93.91    4.52
  -1   7   5   81.80    3.24
  -1  -7   5   80.35    3.02
   1  -7  -5   72.69    2.75
  -1  -7   5   83.92    7.02
   1  -7  -5   79.96    3.08
  -1   7   4  210.56    6.69
  -1  -7   4  224.15    7.08
   1  -7  -4  186.29    5.95
   1   7  -4  208.18    6.42
  -1  -7   4  216.02    7.14
   1  -7  -4  209.22    6.74
  -1   7   3 1367.48   24.15
  -1  -7   3 1276.36   22.71
   1  -7  -3 1274.22   22.63
  -1  -7   3 1273.25   22.60
   1  -7  -3 1176.00   21.25
  -1   7   2  290.38    4.77
   1  -7  -2  249.00    4.05
  -1  -7   2  290.03    5.05
   1  -7  -2  276.41    5.24
   1   7  -2  269.73    4.42
  -1  -7   2  267.93    4.80
   1  -7  -2  274.78    5.10
  -1   7   1  209.15    2.69
   1  -7  -1  221.78    2.74
  -1  -7   1  200.34    3.52
   1   7  -1  202.57    3.17
   1  -7  -1  192.09    3.66
  -1   7   1  198.17    3.14
   1   7  -1  212.70    2.90
   1  -7  -1  226.38    3.75
   1   7  -1  190.63    3.29
  -1   7   1  221.02    3.64
  -1  -7   0  215.90    3.40
   1  -7   0  239.26    2.70
   1  -7   0  229.56    2.53
  -1  -7   0  230.12    3.54
   1  -7   0  239.29    5.42
   1   7   0  233.69    4.06
   1   7   0  229.03    2.89
  -1   7   0  214.23    3.59
  -1  -7   0  245.61    4.05
   1  -7   1  177.80    2.78
  -1   7  -1  171.96    2.71
  -1  -7  -1  168.66    3.24
   1   7   1  175.78    2.80
  -1  -7  -1  180.27    3.82
   1   7   2  844.23   12.68
   1  -7   2  877.76   12.26
  -1   7  -2  837.02   11.74
  -1  -7  -2  904.52   12.73
   1   7   2  907.82   12.32
  -1   7  -2  880.81   12.99
   1  -7   2  903.57   13.37
  -1  -7  -2  919.58   13.87
   1   7   3   13.23    2.29
   1  -7   3    8.99    0.76
  -1  -7  -3    9.12    0.60
   1   7   3    7.35    0.44
  -1   7  -3    7.11    0.72
   1  -7   3   12.18    1.52
  -1  -7  -3    9.51    1.10
   1   7   4  220.61    8.15
   1  -7   4  228.40    7.30
  -1  -7  -4  238.15    7.33
  -1   7  -4  253.14    8.10
   1  -7   4  237.81    7.75
   1   7   5   26.07    3.70
   1  -7   5   17.13    1.32
  -1  -7  -5   20.87    1.24
  -1   7  -5   21.08    1.54
   1  -7   5   22.33    3.40
  -1  -7  -5   24.05    1.83
   1   7   6   44.50    6.48
   1  -7   6   37.38    2.66
  -1  -7  -6   42.24    2.52
  -1   7  -6   34.93    2.60
   1  -7   6   39.08    8.08
  -1  -7  -6   36.25    2.72
   1   7   7   89.13    7.09
   1  -7   7  110.12    6.73
  -1  -7  -7  113.38    6.66
   1  -7   7   92.90    5.83
  -1  -7  -7  107.87    6.86
   1   7   8    6.68    1.66
   1  -7   8    6.91    1.82
  -1  -7  -8    4.49    1.22
  -1   7  -8    9.20    1.71
   1  -7   8    4.87    1.35
  -1  -7  -8    9.60    2.14
  -1   8   8   39.52    4.78
  -1  -8   8   38.77    4.72
   1  -8  -8   46.12    3.67
   1   8  -8   43.28    5.68
  -1  -8   8   34.69    4.86
   1  -8  -8   46.26    3.86
  -1   8   7    3.85    0.99
  -1  -8   7    6.19    1.30
   1  -8  -7    5.26    0.95
   1   8  -7    1.52    0.80
  -1  -8   7    1.80    1.06
   1  -8  -7    1.05    0.92
  -1   8   6  319.38   14.38
  -1  -8   6  327.28   14.60
   1  -8  -6  285.16   12.71
   1   8  -6  323.76   14.27
  -1  -8   6  310.99   13.79
   1  -8  -6  310.62   13.96
  -1   8   5  500.37   12.83
  -1  -8   5  523.40   13.24
   1  -8  -5  441.25   11.21
   1   8  -5  508.74   12.61
  -1  -8   5  525.75   13.41
   1  -8  -5  516.67   13.22
  -1   8   4  166.78    5.67
  -1  -8   4  156.70    5.43
   1  -8  -4  166.98    5.61
   1   8  -4  163.33    5.55
  -1  -8   4  184.82    6.21
   1  -8  -4  182.81    6.35
  -1   8   3  267.38    5.65
  -1  -8   3  281.24    6.01
   1  -8  -3  277.76    5.95
   1   8  -3  258.01    5.36
  -1  -8   3  275.05    5.91
   1  -8  -3  284.88    6.35
  -1   8   2  174.91    4.53
   1  -8  -2  159.04    2.93
  -1  -8   2  182.09    3.66
   1  -8  -2  172.54    4.12
   1   8  -2  174.79    3.80
  -1  -8   2  158.59    3.84
   1  -8  -2  173.06    4.24
  -1   8   1 1155.14   15.86
   1  -8  -1 1104.50   14.97
  -1  -8   1 1128.22   16.02
   1   8  -1 1204.62   16.58
   1  -8  -1 1226.69   17.70
   1  -8   0  466.23    6.58
   1  -8   0  467.79    6.50
  -1  -8   0  453.98    7.20
   1  -8   0  471.10    8.14
   1   8   0  458.34    6.88
   1   8   0  430.82    6.33
   1  -8   0  436.73    7.28
  -1  -8   0  437.68    7.44
   1   8   1 2174.36   29.91
   1  -8   1 1896.22   25.19
  -1   8  -1 1975.59   26.24
  -1  -8  -1 1956.46   26.32
   1   8   1 2047.65   27.29
  -1  -8  -1 1990.97   27.91
   1   8   2 1179.79   21.94
   1  -8   2 1213.40   21.06
  -1   8  -2 1145.06   19.92
  -1  -8  -2 1112.61   19.54
   1   8   2 1223.23   21.04
  -1   8  -2 1150.98   20.59
   1  -8   2 1126.63   20.37
  -1  -8  -2 1225.06   22.33
   1   8   3  290.77    8.94
   1  -8   3  309.57    9.04
  -1  -8  -3  299.32    8.66
   1   8   3  271.33    7.73
  -1   8  -3  328.07    9.80
   1  -8   3  305.15    9.29
  -1  -8  -3  288.44    9.08
   1   8   4   50.79    2.64
   1  -8   4   56.70    2.37
  -1  -8  -4   51.04    1.94
  -1   8  -4   58.46    2.51
   1  -8   4   49.86    2.34
   1   8   5  707.49   27.05
   1  -8   5  666.59   25.27
  -1  -8  -5  661.55   24.78
  -1   8  -5  650.43   24.67
   1  -8   5  574.29   22.85
  -1  -8  -5  600.40   23.19
   1   8   6   71.68    9.87
   1  -8   6   59.34    3.66
  -1  -8  -6   68.89    3.67
  -1   8  -6   66.72    3.90
   1  -8   6   63.47    3.73
  -1  -8  -6   71.78    4.31
   1   8   7   84.58   14.34
   1  -8   7   94.60    7.68
  -1  -8  -7   94.89    7.42
  -1   8  -7   74.17    6.12
   1  -8   7   86.14    7.38
  -1  -8  -7   90.22    7.45
   1   8   8   97.57    7.39
   1  -8   8  109.28    8.03
  -1   8  -8  134.27    9.45
   1  -8   8  112.80    8.20
  -1  -8  -8  108.11    8.15
  -1   9   8   10.99    1.93
  -1  -9   8    8.07    1.69
   1  -9  -8    8.93    1.47
   1   9  -8    7.88    1.55
  -1  -9   8    4.73    2.82
   1  -9  -8    6.82    1.47
  -1   9   7  138.56    8.79
  -1  -9   7  142.46    8.90
   1  -9  -7  139.53    8.57
   1   9  -7  139.09    8.55
  -1  -9   7  124.46    8.04
   1  -9  -7  134.73    8.50
  -1   9   6  402.05   18.11
  -1  -9   6  426.83   19.10
   1  -9  -6  389.70   17.36
  -1  -9   6  399.49   17.72
   1  -9  -6  385.44   17.43
  -1   9   5  120.98    5.01
  -1  -9   5  116.98    4.85
   1  -9  -5  122.95    5.00
   1   9  -5  117.96    4.67
  -1  -9   5  131.66    9.68
   1  -9  -5  113.23    4.87
  -1   9   4  174.27    5.51
  -1  -9   4  162.04    5.17
   1  -9  -4  173.13    5.46
   1   9  -4  180.54    5.59
  -1  -9   4  171.15    5.47
   1  -9  -4  172.78    5.70
  -1   9   3  284.95    8.55
  -1  -9   3  287.45    8.69
   1  -9  -3  275.20    8.39
   1   9  -3  268.31    8.00
  -1  -9   3  278.26    8.51
   1  -9  -3  304.15    9.40
  -1   9   2    4.66    1.15
   1  -9  -2    3.73    0.41
  -1  -9   2    5.90    0.71
   1  -9  -2    7.37    1.26
   1   9  -2    2.29    0.39
  -1  -9   2    8.55    0.89
   1  -9  -2    4.73    0.76
  -1   9   1  385.44    7.11
   1  -9  -1  385.05    7.00
  -1  -9   1  399.58    7.82
   1   9  -1  386.57    7.42
   1  -9  -1  384.37    7.80
   1   9  -1  399.88    7.50
   1  -9  -1  397.96    8.18
   1  -9   0  888.52   12.07
   1  -9   0  951.82   12.91
  -1  -9   0  886.74   12.98
   1   9   0  812.07   11.87
   1   9   0  881.87   12.35
   1  -9   0  867.16   13.12
   1   9   1  589.18   11.26
   1  -9   1  518.09    9.17
  -1   9  -1  513.08    9.09
  -1  -9  -1  526.96    9.54
   1   9   1  515.25    9.26
   1  -9   1  515.95   10.12
  -1  -9  -1  584.13   11.53
   1   9   2  100.76    2.94
   1  -9   2  103.68    2.45
  -1   9  -2   97.46    2.30
  -1  -9  -2   95.36    2.71
   1   9   2  100.38    2.26
  -1   9  -2   88.42    3.28
   1  -9   2  102.80    3.06
  -1  -9  -2   95.72    3.11
   1   9   3   91.14    3.58
   1  -9   3   70.31    2.61
  -1  -9  -3   70.29    2.99
   1   9   3   63.23    2.13
  -1   9  -3   65.79    2.75
   1  -9   3   75.01    3.10
  -1  -9  -3   75.29    3.36
   1   9   4  137.48    4.54
   1  -9   4  136.60    4.06
  -1  -9  -4  139.91    3.95
  -1   9  -4  145.70    4.54
   1  -9   4  152.14    4.79
   1   9   5   59.52    7.18
   1  -9   5   41.27    2.46
  -1  -9  -5   45.41    2.26
  -1   9  -5   42.76    2.58
   1  -9   5   51.08    7.23
  -1  -9  -5   41.90    2.66
   1   9   6    3.12    1.01
   1  -9   6   10.09    1.63
  -1  -9  -6    5.62    0.94
  -1   9  -6    5.08    1.07
   1  -9   6    4.45    1.38
  -1  -9  -6    6.45    1.43
   1   9   7    9.66    3.07
   1  -9   7   11.43    1.98
  -1   9  -7   13.10    2.13
   1  -9   7    8.66    2.76
  -1  10   8  164.79   12.57
  -1 -10   8  145.75   11.13
   1 -10  -8  159.37   11.95
   1  10  -8  164.95   12.36
  -1 -10   8  151.38   11.35
   1 -10  -8  167.78   12.78
  -1  10   7   93.00    5.99
  -1 -10   7   95.95    6.11
   1 -10  -7   86.07    5.40
  -1 -10   7   83.31    5.20
   1 -10  -7   90.23    5.99
  -1  10   6  186.46    9.24
  -1 -10   6  173.96    8.57
   1 -10  -6  172.25    8.39
   1  10  -6  165.43    8.05
  -1 -10   6  176.40    8.58
   1 -10  -6  184.97    9.24
  -1  10   5   20.08    1.82
  -1 -10   5   23.09    2.06
   1 -10  -5   20.29    1.57
   1  10  -5   20.73    1.46
  -1 -10   5   28.64    3.48
   1 -10  -5   26.95    2.04
  -1  10   4   20.58    1.40
  -1 -10   4   18.27    1.34
   1 -10  -4   18.87    1.40
   1  10  -4   22.22    1.43
  -1 -10   4   21.72    1.56
   1 -10  -4   24.80    1.76
  -1  10   3  390.22   11.82
  -1 -10   3  377.43   11.54
   1 -10  -3  396.73   12.13
   1  10  -3  384.76   11.60
  -1 -10   3  399.00   12.27
   1 -10  -3  403.47   12.61
  -1  10   2  643.29   18.15
   1 -10  -2  625.92   17.54
  -1 -10   2  724.67   20.50
   1 -10  -2  643.38   19.11
   1  10  -2  642.05   18.11
  -1 -10   2  684.06   19.63
   1 -10  -2  602.05   17.52
  -1  10   1  194.05    4.18
   1 -10  -1  211.84    4.18
  -1 -10   1  203.79    4.56
   1 -10  -1  209.99    4.86
   1  10  -1  189.59    4.05
  -1 -10   1  205.82    5.09
   1 -10  -1  197.39    4.88
   1 -10   0  964.19   16.68
   1 -10   0  934.52   16.18
  -1 -10   0 1006.09   18.15
   1 -10   0 1006.88   18.35
   1  10   0  913.01   16.20
   1  10   0  982.29   17.29
   1 -10   0  922.21   17.12
  -1 -10   0  951.22   17.70
   1  10   1  143.60    3.65
   1 -10   1  145.24    3.26
   1 -10   1  140.19    2.85
   1  10   1  137.79    3.00
   1 -10   1  134.70    3.80
  -1 -10  -1  130.26    3.80
   1  10   2   63.53    2.89
   1 -10   2   62.26    2.17
  -1  10  -2   62.52    2.16
  -1 -10  -2   58.13    2.16
   1  10   2   60.29    2.06
  -1  10  -2   59.91    2.48
   1 -10   2   64.45    2.86
  -1 -10  -2   63.61    2.95
   1  10   3  868.27   23.51
   1 -10   3  822.40   21.65
  -1 -10  -3  793.50   21.18
   1  10   3  689.02   17.98
  -1  10  -3  852.21   22.78
   1 -10   3  846.01   22.75
  -1 -10  -3  781.31   21.46
   1  10   4  146.17    5.89
   1 -10   4  162.76    6.04
  -1 -10  -4  141.68    5.20
   1 -10   4  145.87    5.89
   1  10   5  173.00    8.36
   1 -10   5  193.11    8.82
  -1 -10  -5  161.77    7.33
  -1  10  -5  158.28    7.45
   1 -10   5  165.10    8.22
  -1 -10  -5  166.74    8.10
   1  10   6  390.91   23.62
   1 -10   6  455.33   24.74
  -1 -10  -6  436.78   23.52
  -1  10  -6  460.04   24.99
   1 -10   6  425.01   25.85
  -1 -10  -6  405.91   23.81
   1  10   7   88.70    7.79
   1 -10   7  127.18    8.95
  -1  10  -7  112.39    7.91
   1 -10   7  104.84    8.18
  -1 -10  -7  112.57    8.32
  -1  11   8    5.38    1.43
  -1 -11   8    3.79    0.96
   1 -11  -8    8.04    1.28
   1  11  -8    7.06    1.52
  -1 -11   8    6.23    2.01
   1 -11  -8    7.40    1.72
  -1  11   7   71.38    6.04
  -1 -11   7   65.62    5.53
   1 -11  -7   61.86    5.20
   1  11  -7   72.63    5.95
  -1 -11   7   68.99    5.66
   1 -11  -7   66.59    5.69
  -1  11   6   76.03    4.92
  -1 -11   6   55.53    3.87
   1 -11  -6   52.48    3.57
   1  11  -6   59.37    3.94
  -1 -11   6   53.83    3.59
   1 -11  -6   59.50    4.31
  -1  11   5   74.71    4.07
  -1 -11   5   70.55    3.80
   1 -11  -5   64.00    3.46
   1  11  -5   72.35    3.97
  -1 -11   5   78.46    7.72
   1 -11  -5   61.50    3.62
  -1  11   4  230.43    6.63
  -1 -11   4  221.92    6.24
   1 -11  -4  210.88    6.06
   1  11  -4  246.01    6.76
  -1 -11   4  204.41    6.26
   1 -11  -4  213.35    6.57
  -1  11   3  243.54    7.54
  -1 -11   3  230.68    6.93
   1 -11  -3  219.74    7.09
   1  11  -3  221.08    6.47
  -1 -11   3  222.96    6.89
   1 -11  -3  234.83    7.42
  -1  11   2  311.16    9.28
   1 -11  -2  291.92    8.51
  -1 -11   2  337.29   10.04
   1 -11  -2  338.06   10.16
   1  11  -2  319.39    9.41
  -1 -11   2  304.95    9.40
   1 -11  -2  324.30   10.04
  -1  11   1  564.28   15.78
   1 -11  -1  573.79   16.02
  -1 -11   1  540.69   15.53
   1 -11  -1  553.22   16.46
   1  11  -1  568.16   16.05
  -1 -11   1  544.98   15.97
   1 -11  -1  558.08   16.39
   1 -11   0   12.28    1.62
   1 -11   0   10.03    0.59
  -1 -11   0   14.13    1.18
   1  11   0   11.96    1.77
   1  11   0   12.24    0.83
   1 -11   0   11.38    1.05
  -1 -11   0   12.22    1.16
   1  11   1 1154.76   32.29
   1 -11   1 1141.52   31.37
   1 -11   1 1187.65   32.61
   1  11   1 1052.13   29.09
   1 -11   1 1155.31   32.56
  -1 -11  -1 1208.07   34.16
   1  11   2  122.03    4.43
   1 -11   2  125.11    4.01
  -1  11  -2  110.00    3.59
  -1 -11  -2  112.92    3.94
   1  11   2  121.70    3.88
  -1  11  -2  115.86    4.19
   1 -11   2  125.81    4.63
  -1 -11  -2  113.77    4.52
   1  11   3   76.23    3.38
   1 -11   3   89.09    2.80
  -1 -11  -3   78.58    2.54
   1 -11   3   77.40    3.11
  -1 -11  -3   79.60    3.30
   1  11   4   23.63    3.70
   1 -11   4   18.62    1.37
  -1 -11  -4   19.77    2.97
  -1  11  -4   18.03    1.57
   1 -11   4   22.34    3.64
  -1 -11  -4   16.46    1.62
   1  11   5   29.71    5.17
   1 -11   5   21.78    1.69
  -1 -11  -5   20.28    1.49
  -1  11  -5   26.90    2.14
   1 -11   5   23.28    5.69
  -1 -11  -5   20.50    2.00
   1  11   6   45.69    8.16
   1 -11   6   43.16    3.28
  -1 -11  -6   44.03    3.05
  -1  11  -6   58.25    4.37
   1 -11   6   44.56    7.84
  -1 -11  -6   43.31    3.50
   1  11   7   62.33    4.99
   1 -11   7   66.58    5.03
  -1  11  -7   68.78    5.12
   1 -11   7   56.48    6.04
  -1 -11  -7   56.37    4.67
  -1  12   7  140.88    9.96
   1 -12  -7  156.85   10.77
   1  12  -7  187.62   12.76
  -1 -12   7  157.69   10.82
   1 -12  -7  140.07    9.99
  -1  12   6   52.75    3.83
  -1 -12   6   45.08    3.41
   1 -12  -6   45.54    3.32
   1  12  -6   51.84    3.68
  -1 -12   6   38.90    7.32
   1 -12  -6   50.46    3.83
  -1  12   5  407.01   19.43
  -1 -12   5  451.12   19.95
   1 -12  -5  379.74   18.11
   1  12  -5  420.30   18.65
  -1 -12   5  457.06   20.32
   1 -12  -5  435.20   19.65
  -1  12   4  324.11   11.53
  -1 -12   4  351.41   12.29
   1 -12  -4  339.29   12.49
   1  12  -4  332.29   11.59
  -1 -12   4  328.25   11.66
   1 -12  -4  361.41   13.08
  -1  12   3  678.23   16.33
  -1 -12   3  638.67   15.55
   1 -12  -3  621.57   16.96
   1  12  -3  697.28   16.78
  -1 -12   3  670.48   16.59
   1 -12  -3  710.64   17.78
  -1  12   2   39.52    2.35
  -1 -12   2   56.98    2.43
   1 -12  -2   51.76    2.38
   1  12  -2   49.11    2.12
  -1 -12   2   53.55    2.54
   1 -12  -2   56.83    2.75
   1 -12  -1  235.85    7.13
  -1 -12   1  279.59    8.77
   1 -12  -1  256.20    7.72
   1 -12  -1  258.83    8.29
   1  12  -1  222.05    6.91
  -1 -12   1  254.32    8.44
   1 -12  -1  267.66    8.84
   1 -12   0  699.04   20.09
   1 -12   0  781.11   22.42
  -1 -12   0  775.17   22.73
   1 -12   0  857.03   25.41
  -1 -12   0  791.70   23.66
   1  12   1  678.81   20.08
   1 -12   1  600.51   17.33
   1 -12   1  651.81   18.77
   1 -12   1  629.26   19.01
  -1 -12  -1  677.61   20.53
   1  12   2  102.54    3.79
   1 -12   2   91.78    2.89
  -1  12  -2   86.26    2.76
  -1 -12  -2   78.80    2.74
   1  12   2   74.21    2.44
  -1  12  -2   84.00    3.14
   1 -12   2   87.00    3.43
  -1 -12  -2   92.92    3.83
   1  12   3  594.42   15.26
   1 -12   3  665.02   15.79
  -1 -12  -3  559.24   13.51
  -1  12  -3  616.03   15.18
   1 -12   3  611.88   15.33
  -1 -12  -3  608.51   15.78
   1  12   4   16.19    2.11
   1 -12   4   12.83    1.23
  -1 -12  -4   10.81    2.58
  -1  12  -4   12.92    1.34
   1 -12   4   13.15    1.71
  -1 -12  -4    9.96    1.38
   1  12   5   14.59    2.93
   1 -12   5   10.37    1.20
  -1 -12  -5    8.89    1.43
  -1  12  -5    8.28    1.18
   1 -12   5    9.42    2.11
  -1 -12  -5    7.57    1.40
   1  12   6   25.38    6.24
   1 -12   6   19.21    2.52
  -1  12  -6   27.32    3.45
   1 -12   6   20.52    4.95
  -1 -12  -6   24.80    3.36
   1  12   7  149.27   11.68
   1 -12   7  152.78   11.48
  -1  12  -7  173.96   12.95
   1 -12   7  154.73   11.91
  -1 -12  -7  142.52   11.15
  -1  13   7   11.22    2.78
  -1 -13   7   23.38    3.13
   1 -13  -7   20.87    2.77
   1  13  -7   19.78    2.78
  -1 -13   7   16.46    3.39
   1 -13  -7   15.23    2.42
  -1  13   6   46.73    8.83
  -1 -13   6   45.48    3.39
   1 -13  -6   42.84    4.53
   1  13  -6   44.37    3.06
  -1 -13   6   36.73    7.02
   1 -13  -6   35.59    2.93
  -1  13   5   85.73    4.69
  -1 -13   5   81.38    4.55
   1 -13  -5   77.02    4.72
   1  13  -5   92.50    4.88
  -1 -13   5   84.88    4.64
   1 -13  -5   82.15    4.92
  -1  13   4  190.04    8.85
  -1 -13   4  170.37    7.17
   1 -13  -4  192.17    8.01
   1  13  -4  189.83    7.76
  -1 -13   4  202.24    8.49
   1 -13  -4  168.77    7.45
  -1  13   3  151.55    5.65
  -1 -13   3  150.82    5.79
   1 -13  -3  147.14    5.76
   1  13  -3  154.73    5.84
  -1 -13   3  150.13    6.02
   1 -13  -3  167.40    6.74
  -1  13   2  154.74    4.57
  -1 -13   2  158.05    4.69
   1 -13  -2  159.97    5.41
   1  13  -2  156.32    4.48
  -1 -13   2  153.33    4.96
   1 -13  -2  159.98    5.26
   1 -13  -1   27.54    1.26
  -1 -13   1   39.07    1.91
   1 -13  -1   28.48    1.24
   1 -13  -1   29.63    3.90
   1  13  -1   27.00    1.37
  -1 -13   1   30.04    2.00
   1 -13  -1   36.56    2.17
   1 -13   0  286.40    7.74
   1 -13   0  325.99    8.78
  -1 -13   0  294.77    8.53
   1  13   0  283.52    7.95
   1 -13   0  327.05    9.74
  -1 -13   0  313.29    9.60
   1 -13   1  278.39    7.53
   1 -13   1  342.17    9.16
  -1 -13  -1  338.72    9.74
   1 -13   1  313.90    9.45
  -1 -13  -1  375.26   11.22
   1  13   2  131.90    4.30
   1 -13   2  126.12    3.48
  -1 -13  -2  113.95    3.35
  -1  13  -2  120.05    3.97
   1 -13   2  126.86    4.36
  -1 -13  -2  127.75    4.68
   1  13   3   11.07    2.09
   1 -13   3    6.38    0.84
  -1 -13  -3    8.53    1.77
  -1  13  -3    7.34    1.37
   1 -13   3    9.96    1.37
  -1 -13  -3    9.69    1.60
   1  13   4  136.62   13.09
   1 -13   4  133.73    6.31
  -1 -13  -4  119.86    5.69
   1 -13   4  139.00    6.92
   1  13   5    5.48    1.58
   1 -13   5    7.15    1.03
  -1 -13  -5   12.62    2.48
  -1  13  -5    7.17    1.09
   1 -13   5    9.97    2.61
  -1 -13  -5    3.49    1.21
   1  13   6    3.98    1.48
   1 -13   6    7.87    1.50
  -1  13  -6    5.02    1.21
   1 -13   6    4.95    1.40
  -1 -13  -6   11.73    2.33
  -1  14   7    8.51    4.79
  -1 -14   7   14.56    1.81
   1 -14  -7   10.08    5.31
   1  14  -7   18.86    2.15
  -1 -14   7   13.67    3.58
   1 -14  -7   14.73    2.24
  -1  14   6   52.18    4.82
  -1 -14   6   45.65    5.35
   1 -14  -6   40.44    4.84
   1  14  -6   42.50    5.00
  -1 -14   6   27.59    6.74
   1 -14  -6   42.40    5.22
  -1  14   5  230.75   13.39
  -1 -14   5  233.60   13.08
   1 -14  -5  192.52   12.11
   1  14  -5  242.75   13.51
  -1 -14   5  226.51   12.74
   1 -14  -5  213.11   12.40
  -1  14   4  137.14    6.74
  -1 -14   4  150.75    7.19
   1 -14  -4  127.97    7.05
   1  14  -4  142.52    6.82
  -1 -14   4  137.75    6.92
   1 -14  -4  131.51    6.85
  -1  14   3  440.15   16.83
  -1 -14   3  431.77   16.62
   1 -14  -3  418.15   16.33
   1  14  -3  436.47   16.75
  -1 -14   3  415.94   16.34
   1 -14  -3  428.81   17.03
  -1  14   2  283.16    9.74
  -1 -14   2  295.89   10.41
   1 -14  -2  305.80   11.06
   1  14  -2  314.97   10.94
  -1 -14   2  303.45   11.06
   1 -14  -2  299.57   11.15
   1 -14  -1 1346.78   30.85
  -1 -14   1 1486.70   34.61
   1 -14  -1 1540.72   35.26
   1 -14  -1 1642.86   53.95
   1  14  -1 1547.21   35.69
  -1 -14   1 1483.23   35.15
   1 -14  -1 1532.28   36.32
   1 -14   0  870.65   20.08
   1 -14   0 1059.55   24.34
  -1 -14   0 1030.84   24.38
   1  14   0 1038.86   24.21
   1 -14   0  949.31   23.16
  -1 -14   0  999.39   24.41
   1 -14   1   76.40    2.31
   1 -14   1   90.37    2.57
  -1 -14  -1   89.98    3.19
   1 -14   1   89.47    3.49
  -1 -14  -1   96.38    3.97
   1  14   2  127.86    6.21
   1 -14   2  127.38    4.60
  -1 -14  -2  107.70    4.10
  -1  14  -2  125.31    5.07
   1 -14   2  131.64    5.49
  -1 -14  -2  138.03    5.96
   1  14   3   95.43    4.93
   1 -14   3  115.22    5.31
  -1 -14  -3   94.99    4.56
  -1  14  -3   96.53    4.91
   1 -14   3   90.99    5.01
  -1 -14  -3  100.23    5.44
   1  14   4  248.61   11.99
   1 -14   4  251.12   11.53
  -1 -14  -4  223.06   10.41
  -1  14  -4  239.71   11.36
   1 -14   4  244.17   12.12
   1  14   5   95.95    6.54
   1 -14   5  110.70    6.52
   1 -14   5  119.03    7.17
  -1 -14  -5  107.31    6.91
   1  14   6   41.02   10.87
  -1  14  -6   54.93    4.21
   1 -14   6   41.33    6.41
  -1 -14  -6   37.40    4.62
  -1  15   6   72.29    5.49
  -1 -15   6   56.76    4.41
   1 -15  -6   67.34    5.08
   1  15  -6   59.59    4.55
  -1 -15   6   67.17    5.20
   1 -15  -6   82.61    6.44
  -1  15   5  109.29    6.91
  -1 -15   5  102.13    6.47
   1 -15  -5  125.31    7.81
   1  15  -5  125.37    7.82
  -1 -15   5  120.94    7.65
   1 -15  -5  119.00    7.76
  -1  15   4  180.63    8.67
  -1 -15   4  183.35    8.78
   1 -15  -4  168.39    8.27
   1  15  -4  191.81    9.10
  -1 -15   4  194.91    9.57
   1 -15  -4  174.50    8.88
  -1  15   3   85.35    4.24
  -1 -15   3   78.53    4.04
   1 -15  -3   84.09    9.05
   1  15  -3   75.49    4.01
  -1 -15   3   82.97    4.61
   1 -15  -3   83.89    4.71
  -1  15   2  346.23   13.25
  -1 -15   2  380.40   14.73
   1 -15  -2  355.09   14.16
   1  15  -2  366.99   14.18
  -1 -15   2  348.33   13.93
   1 -15  -2  385.55   15.45
  -1 -15   1  208.31    7.61
   1 -15  -1  184.98    6.49
   1 -15  -1  205.63    7.77
   1  15  -1  177.25    6.44
  -1 -15   1  178.00    7.24
   1 -15  -1  181.63    7.36
   1 -15   0   39.63    1.70
  -1 -15   0   40.32    2.12
   1  15   0   40.96    1.98
   1 -15   0   46.32    2.66
  -1 -15   0   35.27    2.48
   1 -15   1  299.27   11.30
  -1 -15  -1  302.39   11.98
  -1  15  -1  326.81   12.90
   1 -15   1  288.21   11.77
  -1 -15  -1  291.32   12.05
   1  15   2   69.06    3.74
   1 -15   2   71.75    3.40
  -1  15  -2   63.07    3.47
   1 -15   2   61.03    3.75
  -1 -15  -2   66.14    4.10
   1  15   3   56.50    3.38
   1 -15   3   55.85    2.88
  -1 -15  -3   43.11    2.56
  -1  15  -3   52.46    3.21
   1 -15   3   57.02    3.54
  -1 -15  -3   64.27    4.07
   1  15   4   37.58    6.46
   1 -15   4   29.67    2.11
  -1  15  -4   31.30    2.50
   1 -15   4   38.59    7.56
  -1 -15  -4   31.01    2.86
   1  15   5    3.05    1.47
  -1  15  -5    2.62    1.22
   1 -15   5    4.40    2.00
   1  15   6   46.20    5.86
  -1  15  -6   43.63    3.90
   1 -15   6   57.62    4.92
  -1 -15  -6   46.43    4.54
  -1  16   6   18.27    4.94
  -1 -16   6   24.53    3.48
   1 -16  -6   15.74    3.10
   1  16  -6   17.72    2.63
  -1 -16   6   20.11    5.90
   1 -16  -6   21.97    3.38
  -1  16   5  176.18   13.81
  -1 -16   5  185.72   14.21
   1  16  -5  195.06   14.88
  -1 -16   5  177.22   14.15
   1 -16  -5  172.16   13.53
  -1  16   4   34.25    5.67
  -1 -16   4   37.03    2.74
   1 -16  -4   32.92    5.94
   1  16  -4   38.29    2.78
  -1 -16   4   39.15    2.92
   1 -16  -4   44.66    3.50
  -1  16   3   82.04    4.43
  -1 -16   3   79.74    4.24
   1 -16  -3   80.17    4.43
   1  16  -3   91.84    4.86
  -1 -16   3   75.25    4.58
   1 -16  -3   75.46    4.48
  -1 -16   2  414.98   18.04
   1 -16  -2  378.44   16.80
   1  16  -2  412.93   17.87
  -1 -16   2  418.34   18.52
   1 -16  -2  376.94   17.01
  -1 -16   1   14.18    1.30
   1 -16  -1   11.20    0.91
   1  16  -1   14.75    1.32
   1 -16  -1    9.19    1.33
   1 -16   0    9.99    0.77
  -1 -16   0   12.48    1.16
   1  16   0   12.25    1.16
   1 -16   0    8.80    1.30
  -1 -16   0   11.59    1.87
   1 -16   1  101.17    4.55
  -1 -16  -1  107.50    5.31
  -1  16  -1  100.64    5.07
   1 -16   1  121.20    6.16
  -1 -16  -1  105.31    5.70
   1  16   2  798.64   34.63
  -1  16  -2  827.50   35.86
   1 -16   2  871.30   37.99
  -1 -16  -2  884.35   38.81
   1  16   3    9.41    2.88
  -1 -16  -3   12.33    1.13
  -1  16  -3   10.65    1.41
   1 -16   3   10.58    1.46
  -1 -16  -3   16.07    1.92
   1  16   4  221.50   12.65
  -1  16  -4  222.85   12.58
   1 -16   4  234.04   13.98
   1  16   5   44.65    9.31
  -1  16  -5   56.47    4.42
   1 -16   5   35.04    8.90
  -1 -16  -5   49.90    4.45
  -1  17   6   25.64    5.02
  -1 -17   6   32.69    3.05
   1 -17  -6   21.50    7.55
   1  17  -6   30.72    2.79
  -1 -17   6   33.74    5.09
   1 -17  -6   37.75    3.62
  -1  17   5   16.76    4.12
  -1 -17   5   19.89    2.85
   1 -17  -5   22.17    4.99
   1  17  -5   30.76    4.22
  -1 -17   5   22.87    4.12
   1 -17  -5   21.16    3.32
  -1  17   4  137.68    8.00
  -1 -17   4  130.21    7.63
   1 -17  -4  119.43    7.14
   1  17  -4  126.16    7.36
  -1 -17   4  111.10    6.88
   1 -17  -4  112.05    7.13
  -1  17   3  105.54    6.17
  -1 -17   3  118.12    6.94
   1 -17  -3  108.24    6.55
   1  17  -3  114.47    6.69
  -1 -17   3  119.02    7.24
   1 -17  -3  110.92    7.00
  -1 -17   2  152.19    7.38
   1 -17  -2  145.81    6.89
   1 -17  -2  143.87    7.20
   1  17  -2  151.71    7.33
  -1 -17   2  170.77    8.61
   1 -17  -2  151.13    7.91
  -1 -17   1   18.18    1.48
   1 -17  -1   16.61    1.16
   1  17  -1   18.01    1.34
  -1 -17   1   19.53    1.91
   1 -17  -1   19.41    1.98
  -1 -17   0   63.91    3.50
   1  17   0   73.19    3.67
   1 -17   0   62.09    3.82
  -1 -17   0   69.80    4.34
  -1 -17  -1   59.22    3.47
  -1  17  -1   66.34    3.79
   1  17   1   56.56    3.03
   1 -17   1   59.83    3.84
  -1 -17  -1   63.20    4.09
  -1 -17  -2  251.66   14.05
  -1  17  -2  270.73   14.99
   1 -17   2  274.17   15.44
  -1 -17  -2  252.45   14.47
   1  17   3   81.54    5.45
  -1  17  -3   71.96    4.82
   1 -17   3   84.48    5.74
  -1 -17  -3   73.67    5.33
   1  17   4   53.45    4.65
  -1  17  -4   36.76    4.43
   1 -17   4   51.94    8.35
   1  17   5   34.00    4.24
  -1  17  -5   34.95    3.32
   1 -17   5   38.14    8.33
  -1 -17  -5   38.68    3.85
  -1 -18   5   38.40    3.33
   1 -18  -5   38.46    3.47
   1  18  -5   46.31    3.98
  -1 -18   5   42.85    4.24
   1 -18  -5   42.68    4.09
  -1 -18   4  158.41   10.76
   1  18  -4  170.56   11.53
  -1 -18   4  173.34   12.04
   1 -18  -4  164.02   11.60
  -1 -18   3   70.75    4.41
   1 -18  -3   77.54    4.95
   1  18  -3   90.35    5.48
  -1 -18   3   78.70    5.24
   1 -18  -3   70.33    4.93
  -1 -18   2   89.58    5.41
   1 -18  -2   92.65    5.70
   1  18  -2   75.75    4.64
  -1 -18   2   85.55    5.57
   1 -18  -2   85.69    5.76
  -1 -18   1  145.41    8.32
   1  18  -1  133.56    7.58
  -1 -18   1  132.19    8.08
   1 -18  -1  131.31    8.12
  -1 -18   0   35.54    2.60
   1  18   0   34.36    2.30
   1 -18   0   35.19    2.98
  -1 -18   0   34.88    3.03
  -1 -18  -1   49.48    3.37
  -1  18  -1   56.06    3.85
   1  18   1   53.35    3.33
   1 -18   1   48.24    3.56
  -1 -18  -1   64.14    4.59
  -1 -18  -2  145.67    8.93
  -1  18  -2  149.37    9.17
   1 -18   2  144.16    9.06
  -1 -18  -2  144.30    9.24
   1  18   3   71.51    5.88
  -1  18  -3   83.84    6.83
   1 -18   3   83.00    6.99
  -1 -18  -3   75.31    6.54
   1  18   4  237.09   16.42
  -1  18  -4  258.43   31.78
   1 -18   4  254.11   31.33
   1 -19  -4    2.87    1.65
   1  19  -4    7.95    1.40
  -1 -19   4    5.97    1.48
   1 -19  -4    9.50    1.93
  -1 -19   3    2.02    0.92
   1 -19  -3    1.45    1.09
   1  19  -3    4.66    1.24
  -1 -19   3    1.44    1.00
   1 -19  -3    1.41    1.35
  -1 -19   2    6.86    1.03
   1  19  -2   10.05    1.25
  -1 -19   2    4.24    1.20
   1 -19  -2    8.32    1.46
  -1 -19   1   44.10    3.18
   1  19  -1   41.15    2.88
  -1 -19   1   50.28    3.93
   1 -19  -1   38.18    3.24
  -1 -19   0  108.73    6.79
   1  19   0   91.97    5.67
   1 -19   0  102.73    6.88
  -1 -19   0  103.69    6.91
  -1 -19  -1   53.21    3.62
  -1  19  -1   48.64    3.36
   1  19   1   46.44    2.97
   1 -19   1   49.80    3.74
  -1 -19  -1   49.04    3.80
  -1 -19  -2    3.99    1.14
  -1  19  -2    1.22    0.92
   1 -19   2    3.76    1.51
  -1 -19  -2    2.44    1.78
   1  19   3    2.46    1.10
  -1  19  -3    3.71    1.08
   1 -19   3    9.04    2.15
  -1 -19  -3    4.62    1.53
   1  19   4   63.25    5.33
  -1  19  -4   61.55    5.10
   1 -19   4   40.34    8.15
   1 -20  -4   46.79    5.06
   1  20  -4   60.92    4.58
  -1 -20   4   62.38    5.00
   1 -20  -4   58.93    5.01
   1 -20  -3  115.06    7.93
   1  20  -3  130.34    8.73
  -1 -20   3  106.31    7.62
   1 -20  -3  123.83    8.87
   1  20  -2  266.61   27.39
  -1 -20   2  244.21   16.64
   1 -20  -2  256.93   26.74
  -1 -20   1   18.69    2.53
   1  20  -1   19.34    2.46
  -1 -20   1   13.68    2.35
   1 -20  -1   12.19    2.11
  -1 -20   0  137.74   10.62
   1  20   0  128.61    9.82
  -1  20   0  136.65   10.62
   1 -20   0  149.93   11.89
  -1 -20   0  150.49   11.93
  -1 -20  -1  103.99    7.39
  -1  20  -1  106.66    7.52
   1 -20   1  123.39    8.98
  -1 -20  -1  125.47    9.28
  -1 -20  -2   48.54    3.80
  -1  20  -2   50.87    3.95
   1 -20   2   41.00    4.84
  -1 -20  -2   65.06    5.40
  -1 -20  -3   66.45    5.55
  -1  20  -3   69.11    5.59
   1 -20   3   68.14    5.75
  -1 -20  -3   70.33    6.11
   1  21  -3   62.59    4.72
  -1 -21   3   65.58    5.36
   1 -21  -3   73.17    6.19
   1  21  -2  165.74   12.23
  -1 -21   2  153.38   11.78
   1 -21  -2  134.92   10.55
   1  21  -1    1.35    0.66
  -1 -21   1    2.76    1.24
   1 -21  -1    2.01    1.15
  -1  21   0    2.26    0.99
   1 -21   0    1.15    1.04
  -1 -21   0    1.27    1.12
  -1  21  -1   51.52    4.06
   1 -21   1   48.77    4.19
  -1 -21  -1   56.05    4.81
  -1 -21  -2   29.91    2.92
  -1  21  -2   21.64    3.15
   1 -21   2   28.52    3.01
  -1 -21  -2   25.00    4.12
  -1 -22   1   96.21    7.42
   1 -22  -1   91.28    7.03
  -1  22   0   82.26    6.11
   1 -22   0   97.67    7.58
  -1 -22   0   93.70    7.16
  -1  22  -1   92.88    6.81
   1 -22   1  101.71    7.91
  -1 -22  -1   91.14    7.19
  -2   0   9   31.37    3.40
   2   0  -9   31.73    3.06
   2   0  -9   36.40    3.51
  -2   0   8   11.56    1.74
   2   0  -8   16.56    1.76
   2   0  -8    9.70    1.26
  -2   0   7   43.01    2.98
   2   0  -7   47.30    3.16
   2   0  -7   41.04    2.51
  -2   0   6  450.22   11.82
   2   0  -6  459.34   11.58
   2   0  -6  486.42   12.02
  -2   0   5  921.42   27.13
   2   0  -5  975.59   25.76
  -2   0   4   76.71    2.49
   2   0  -4   81.11    2.52
   2   0  -4   76.88    1.95
  -2   0   3   86.43    2.24
   2   0  -3   87.08    1.68
  -2   0   2 3003.32   28.78
   2   0  -2 3037.31   29.10
  -2   0   1    9.33    0.58
   2   0  -1    8.25    0.55
   2   0  -1   10.21    0.63
  -2   0   1   10.95    0.53
  -2   0   1    8.88    0.24
  -2   0   1    9.54    0.26
  -2   0   0 3054.85   40.51
   2   0   0 3017.88   28.34
  -2   0   0 3046.79   40.21
   2   0   1  188.90    2.92
  -2   0  -1  194.35    2.98
  -2   0  -1  187.20    2.83
  -2   0  -1  164.81    2.55
   2   0   2  573.28    8.98
  -2   0  -2  596.79    8.56
   2   0   3 1912.86   33.58
  -2   0  -3 1902.83   32.72
   2   0   4  449.25   13.75
  -2   0  -4  439.40   13.01
   2   0   5    7.79    1.08
  -2   0  -5    6.44    0.71
   2   0   6  374.11   16.99
  -2   0  -6  359.23   15.84
   2   0   7    7.45    1.50
   2   0   8  134.53   10.52
  -2   0  -8  149.96   11.22
  -2  -1   9   16.22    2.75
  -2   1   9   14.49    2.59
   2  -1  -9   23.69    3.45
   2   1  -9   20.09    3.04
   2  -1  -9   15.96    2.46
   2   1  -9   17.20    2.59
  -2   1   8    5.77    1.56
  -2  -1   8    9.79    1.63
   2  -1  -8   10.43    1.42
   2   1  -8    6.17    1.04
   2  -1  -8    8.82    1.24
   2   1  -8    6.64    1.03
  -2   1   7  506.39   22.54
  -2  -1   7  525.38   23.30
   2  -1  -7  528.77   23.39
   2   1  -7  493.45   21.74
   2  -1  -7  516.25   22.63
  -2   1   6    6.40    1.21
  -2  -1   6    7.38    1.29
   2  -1  -6    6.38    1.05
   2   1  -6   10.37    1.28
   2  -1  -6    7.92    1.04
  -2   1   5   57.41    2.68
  -2  -1   5   51.02    2.49
   2  -1  -5   60.68    2.62
   2   1  -5   51.25    2.25
  -2   1   4 3048.78   52.65
  -2  -1   4 2940.37   50.84
   2  -1  -4 2866.83   48.81
   2   1  -4 2800.86   47.72
   2  -1  -4 3148.63   53.66
  -2  -1   3  518.60    8.14
   2  -1  -3  572.85    8.77
   2   1  -3  521.17    7.86
  -2  -1   3  543.77    7.60
   2  -1  -3  541.75    7.64
   2   1  -3  541.17    7.60
   2  -1  -3  518.64    7.36
  -2  -1   2  236.25    3.51
   2  -1  -2  219.88    3.17
  -2   1   2  235.43    3.26
   2   1  -2  237.10    3.27
   2  -1  -2  243.24    2.55
  -2  -1   2  228.05    2.40
   2   1  -2  227.40    2.41
   2  -1  -2  220.72    2.39
  -2   1   1  996.76   10.11
  -2  -1   1  997.36   10.41
   2  -1  -1  929.30    9.44
   2   1  -1  960.86    9.64
  -2  -1   1  998.74    9.90
  -2   1   1  907.84    8.63
  -2  -1   1  961.43    9.12
  -2   1   0 1551.80   15.11
  -2   1   0 1542.84   15.01
   2  -1   0 1515.29   15.07
   2   1   0 1517.71   14.55
  -2   1   0 1524.19   15.03
  -2  -1   0 1545.07   14.70
  -2  -1   0 1556.78   15.01
   2  -1   0 1557.17   15.05
  -2   1   0 1571.14   15.36
  -2  -1   0 1491.78   14.38
   2   1   1  221.84    3.33
   2  -1   1  233.30    3.27
  -2  -1  -1  217.69    3.49
  -2   1  -1  216.84    3.02
  -2  -1  -1  218.55    2.79
  -2   1  -1  218.54    3.10
  -2  -1  -1  227.05    2.74
   2  -1   1  231.91    3.36
  -2   1  -1  204.02    3.13
   2   1   2    8.39    1.36
   2  -1   2    5.35    0.73
  -2   1  -2    5.48    0.54
  -2  -1  -2    5.86    0.43
  -2   1  -2    6.22    0.50
   2   1   3  454.43   10.09
   2  -1   3  514.19    9.94
  -2  -1  -3  489.67    8.98
  -2   1  -3  527.91    9.78
   2   1   3  464.33    8.59
   2   1   4  222.63    7.38
   2  -1   4  233.76    7.65
  -2  -1  -4  233.96    7.20
  -2   1  -4  225.13    7.06
   2  -1   5   40.57    2.38
   2   1   5   42.99    2.63
  -2  -1  -5   35.32    1.74
  -2   1  -5   40.40    1.99
   2  -1   6   14.50    1.70
   2   1   6   15.69    1.74
  -2  -1  -6   14.89    1.22
  -2   1  -6   16.29    1.39
   2  -1   7  104.81    6.77
   2   1   7  110.83    7.05
  -2  -1  -7  103.64    6.06
  -2   1  -7  112.58    6.60
  -2  -1  -7  128.56    7.99
   2   1   8    7.12    1.61
   2  -1   8    8.64    1.67
  -2  -1  -8    9.81    1.81
  -2   2   9    8.88    1.96
  -2  -2   9    9.96    2.12
   2  -2  -9    6.07    1.45
   2   2  -9    9.62    1.74
   2  -2  -9    5.58    1.25
   2   2  -9   11.51    2.02
  -2   2   8   33.41    2.88
  -2  -2   8   41.89    3.46
   2  -2  -8   32.60    2.65
   2   2  -8   34.83    2.78
   2  -2  -8   37.19    2.71
  -2   2   7  213.53   10.23
  -2  -2   7  188.16    9.17
   2  -2  -7  194.59    9.26
   2   2  -7  176.87    8.38
   2  -2  -7  182.91    8.55
  -2   2   6  642.14   21.82
  -2  -2   6  502.20   17.45
   2  -2  -6  734.45   24.72
   2   2  -6  684.42   23.04
   2  -2  -6  660.39   22.11
  -2   2   5   81.70    3.29
  -2  -2   5   75.89    3.18
   2  -2  -5   88.06    3.59
   2   2  -5   87.47    3.35
   2  -2  -5   74.99    2.78
  -2   2   4  403.28    8.16
  -2  -2   4  371.63    7.74
   2  -2  -4  415.49    8.32
  -2  -2   4  362.31    6.97
   2  -2  -4  346.85    6.77
   2   2  -4  354.06    6.71
   2  -2  -4  345.49    6.65
  -2   2   3 1359.53   18.99
  -2  -2   3 1388.19   19.54
  -2  -2   3 1408.68   18.98
   2   2  -3 1242.97   16.85
   2  -2  -3 1303.36   17.70
  -2   2   2  891.19    9.36
   2  -2  -2  895.74    9.38
  -2  -2   2  892.30    9.77
   2   2  -2  866.81    8.95
  -2  -2   2  892.47    9.08
  -2  -2   2  875.60    8.48
   2   2  -2  855.82    8.39
   2  -2  -2  922.44    9.04
  -2   2   2  859.56    8.34
  -2   2   1  545.51    5.84
  -2  -2   1  553.31    6.45
   2  -2  -1  532.80    5.71
   2   2  -1  529.87    6.15
  -2   2   1  512.06    5.80
  -2  -2   1  563.17    5.82
   2  -2  -1  553.36    5.57
  -2   2   1  569.22    5.81
  -2  -2   1  549.68    5.64
   2   2  -1  515.72    5.21
   2   2   0 2057.88   20.59
  -2  -2   0 1954.55   19.20
  -2   2   0 2024.60   19.20
  -2   2   0 1919.05   18.26
   2  -2   0 2054.32   20.03
  -2   2   0 1960.71   19.44
  -2   2   0 2028.01   19.36
  -2  -2   0 1890.74   18.16
   2   2   1 3115.79   41.87
   2  -2   1 2963.95   28.17
  -2  -2  -1 2815.49   27.24
  -2   2  -1 2855.31   27.03
  -2   2  -1 2839.38   27.27
  -2  -2  -1 2780.86   25.85
   2  -2   1 2772.60   27.35
  -2   2  -1 2858.86   27.71
   2  -2   2  819.15   12.08
  -2   2  -2  731.82   10.58
  -2  -2  -2  834.86   11.43
  -2   2  -2  768.46   11.05
   2   2   3   62.45    2.30
   2  -2   3   72.47    2.24
  -2  -2  -3   70.45    1.75
  -2   2  -3   63.13    1.87
   2   2   3   61.83    1.70
   2   2   4  118.75    4.51
   2  -2   4  126.77    4.55
  -2  -2  -4  118.61    3.88
  -2   2  -4  115.34    3.98
   2  -2   4  112.22    4.74
   2   2   5   28.49    2.06
   2  -2   5   30.87    2.00
  -2  -2  -5   27.37    1.46
  -2   2  -5   31.44    1.82
  -2  -2  -5   31.69    2.20
   2   2   6  262.23   12.28
   2  -2   6  251.39   11.77
  -2  -2  -6  243.28   10.89
  -2   2  -6  255.04   11.53
  -2  -2  -6  261.96   12.20
   2   2   7  391.34   42.10
   2  -2   7  338.36   18.86
  -2  -2  -7  376.21   40.26
  -2   2  -7  393.00   42.04
  -2  -2  -7  380.66   40.95
   2   2   8   76.16    6.36
   2  -2   8   81.74    6.39
  -2  -2  -8   62.33    4.65
  -2   2  -8   59.71    4.52
  -2   3   9   64.88    5.77
  -2  -3   9   64.12    5.71
   2  -3  -9   74.32    6.17
   2   3  -9   63.31    5.23
   2  -3  -9   52.85    4.63
  -2   3   8   96.58    6.27
   2  -3  -8   84.01    5.37
   2   3  -8   90.02    5.68
   2  -3  -8   95.55    5.86
  -2   3   7    5.31    1.26
  -2  -3   7    5.86    1.22
   2  -3  -7    4.85    0.93
   2   3  -7    8.64    1.29
   2  -3  -7    3.49    0.89
  -2   3   6 1239.44   41.13
  -2  -3   6 1292.11   48.37
   2  -3  -6 1370.96   51.09
   2   3  -6 1304.31   48.56
   2  -3  -6 1144.41   37.71
  -2   3   5  229.03    7.52
  -2  -3   5  235.38    7.79
   2  -3  -5  259.34    8.32
  -2  -3   5  223.68    7.06
   2  -3  -5  211.21    6.75
  -2   3   4  193.57    4.52
  -2  -3   4  215.18    5.18
   2  -3  -4  231.83    5.17
   2   3  -4  192.01    4.36
   2  -3  -4  197.90    4.10
  -2  -3   4  221.08    4.69
   2   3  -4  199.30    4.16
   2  -3  -4  203.57    4.34
  -2   3   3  126.36    2.76
  -2  -3   3   92.89    2.47
   2  -3  -3  105.73    2.54
   2   3  -3  122.77    2.60
  -2  -3   3  115.95    2.19
   2   3  -3  101.46    2.01
   2  -3  -3  104.68    2.20
  -2   3   2  520.69    5.93
   2  -3  -2  483.62    5.54
  -2  -3   2  509.25    6.34
   2   3  -2  495.67    5.62
  -2  -3   2  490.54    5.41
  -2  -3   2  478.70    5.11
   2   3  -2  482.53    5.24
   2  -3  -2  467.34    5.18
  -2   3   2  477.56    5.15
  -2   3   1  312.47    3.57
   2  -3  -1  295.12    3.42
  -2  -3   1  306.82    4.25
   2   3  -1  304.93    4.14
  -2   3   1  319.56    4.15
   2   3  -1  323.99    3.66
  -2  -3   1  301.43    3.33
   2  -3  -1  299.36    3.51
  -2   3   1  323.56    3.79
  -2  -3   1  313.75    3.74
   2   3  -1  291.42    3.41
  -2  -3   0 1323.93   13.59
  -2   3   0 1361.51   13.00
  -2   3   0 1304.21   12.49
   2   3   0 1373.85   12.87
   2  -3   0 1361.97   13.81
  -2   3   0 1298.38   12.94
  -2  -3   0 1278.71   12.84
   2   3   0 1320.13   13.02
   2  -3   1   60.98    1.54
  -2  -3  -1   50.71    1.48
  -2   3  -1   56.18    1.18
  -2   3  -1   58.88    2.30
  -2  -3  -1   58.71    0.92
  -2  -3  -1   62.30    0.80
   2  -3   1   62.41    1.53
  -2   3  -1   59.76    1.48
   2  -3   2  731.48   10.63
  -2  -3  -2  760.62   10.34
  -2   3  -2  720.85   10.55
  -2  -3  -2  718.18   10.89
   2   3   3  213.35    6.91
   2  -3   3  219.74    4.83
  -2  -3  -3  223.02    4.32
  -2   3  -3  225.30    4.85
   2   3   3  207.62    4.10
  -2  -3  -3  209.70    4.95
   2   3   4  188.97    7.20
   2  -3   4  190.62    6.38
  -2  -3  -4  201.44    6.20
  -2   3  -4  191.16    6.15
   2  -3   4  211.51    6.93
  -2  -3  -4  201.33    6.85
   2   3   5  228.80    9.21
   2  -3   5  233.31    8.62
  -2  -3  -5  229.18    7.97
  -2   3  -5  234.40    8.47
   2  -3   5  223.26    9.13
  -2  -3  -5  240.35    8.98
   2   3   6  173.66    8.91
   2  -3   6  196.20    9.59
  -2  -3  -6  185.52    8.72
  -2   3  -6  171.59    8.18
  -2  -3  -6  204.22   10.08
   2   3   7   27.95    4.73
   2  -3   7   21.80    2.28
  -2  -3  -7   22.57    1.77
  -2   3  -7   20.98    1.80
  -2  -3  -7   19.34    2.11
   2   3   8  182.48   13.85
   2  -3   8  175.92   12.40
  -2  -3  -8  164.96   11.26
  -2   3  -8  167.14   11.53
  -2  -3  -8  175.85   12.44
  -2   4   9   64.25    5.33
  -2  -4   9   58.30    4.87
   2  -4  -9   66.53    5.22
   2   4  -9   55.39    4.41
   2  -4  -9   41.96    3.58
  -2   4   8  203.58   11.82
  -2  -4   8  202.45   11.77
   2  -4  -8  210.42   12.07
   2   4  -8  215.59   12.25
   2  -4  -8  200.93   11.47
  -2   4   7   10.66    1.53
  -2  -4   7   11.50    1.50
   2  -4  -7   10.00    1.33
   2   4  -7    8.74    1.36
   2  -4  -7    7.61    1.04
  -2   4   6  159.25    6.39
   2  -4  -6  145.38    5.80
   2   4  -6  167.52    6.49
  -2  -4   6  147.16    5.66
   2  -4  -6  144.63    5.61
  -2   4   5  165.62    5.72
  -2  -4   5  176.83    6.12
   2  -4  -5  186.68    6.30
   2   4  -5  168.87    5.60
  -2  -4   5  184.88    6.11
   2  -4  -5  173.58    5.73
  -2   4   4  456.93    8.98
  -2  -4   4  493.76    9.83
   2  -4  -4  535.79   10.44
   2   4  -4  500.93    9.49
  -2  -4   4  499.48    9.61
   2   4  -4  430.17    8.17
   2  -4  -4  480.77    9.14
  -2   4   3  126.09    2.73
   2  -4  -3  131.03    2.70
  -2  -4   3  116.88    2.87
   2   4  -3  118.36    2.46
  -2  -4   3  139.01    2.71
   2   4  -3  124.64    2.48
   2  -4  -3  139.27    2.82
  -2   4   3  125.99    2.42
  -2   4   2  496.09    7.28
   2  -4  -2  465.46    6.86
   2   4  -2  478.52    5.38
  -2  -4   2  458.24    6.71
  -2  -4   2  477.85    5.37
   2  -4  -2  493.91    5.65
   2   4  -2  486.35    7.17
  -2   4   2  473.25    5.35
  -2   4   1 2479.03   23.15
   2  -4  -1 2640.31   24.65
  -2   4   1 2572.72   24.91
   2  -4  -1 2468.19   23.53
  -2   4   1 2547.21   24.32
  -2  -4   1 2652.28   25.34
   2   4  -1 2661.18   25.31
  -2  -4   0  296.80    4.29
  -2   4   0  286.39    3.08
  -2   4   0  286.44    3.06
  -2  -4   0  288.62    4.25
   2  -4   0  297.39    4.98
  -2   4   0  276.04    3.90
   2   4   0  302.07    3.02
  -2  -4   0  310.37    3.04
   2  -4   0  294.60    3.86
  -2   4   0  272.30    3.68
  -2  -4   0  300.15    4.10
   2   4   0  265.37    3.53
   2  -4   1 1027.54   14.09
  -2   4  -1  969.64   13.19
   2  -4   1  991.20   14.29
  -2   4  -1  946.10   13.51
   2   4   2 2652.68   36.27
   2  -4   2 2617.45   35.07
  -2   4  -2 2536.73   33.92
  -2   4  -2 2638.57   35.67
   2   4   2 2538.80   33.44
  -2  -4  -2 2474.83   33.86
   2   4   3  386.00   11.60
   2  -4   3  379.40   11.05
  -2  -4  -3  384.00   10.80
  -2   4  -3  381.74   11.13
   2   4   3  352.98    9.94
  -2  -4  -3  360.64   10.85
   2  -4   4  107.30    3.73
  -2  -4  -4  118.18    3.57
  -2   4  -4  108.42    3.65
   2  -4   4  112.98    3.89
  -2  -4  -4  111.38    4.13
   2   4   5  490.08   18.07
   2  -4   5  596.21   20.31
  -2  -4  -5  636.08   21.10
  -2   4  -5  620.11   20.88
   2  -4   5  553.07   20.59
  -2  -4  -5  579.27   20.00
   2   4   6  305.80   14.63
   2  -4   6  313.14   14.65
  -2  -4  -6  318.29   14.42
  -2   4  -6  288.43   13.28
   2  -4   6  310.06   14.57
  -2  -4  -6  326.78   15.45
   2   4   7   33.24    5.77
   2  -4   7   32.56    4.16
  -2  -4  -7   31.18    3.65
  -2   4  -7   32.98    3.93
  -2  -4  -7   26.53    3.52
   2   4   8   11.18    2.24
   2  -4   8    5.21    1.37
  -2   4  -8    5.71    1.14
  -2  -4  -8    2.69    1.42
  -2   5   9   54.10    4.65
  -2  -5   9   58.41    5.12
   2  -5  -9   58.30    4.72
   2   5  -9   63.95    5.02
   2  -5  -9   49.18    4.07
  -2   5   8  190.96   14.75
  -2  -5   8  185.84   14.38
   2  -5  -8  203.91   15.67
   2   5  -8  212.94   16.23
   2  -5  -8  161.07   12.43
  -2   5   7  129.30    6.72
  -2  -5   7  107.51    5.87
   2  -5  -7  119.41    6.33
   2   5  -7  138.61    7.00
  -2  -5   7  125.17    6.16
   2  -5  -7  116.92    6.00
  -2   5   6  262.94    9.69
  -2  -5   6  292.61   10.72
   2  -5  -6  291.72   10.52
  -2  -5   6  268.01    9.38
   2  -5  -6  255.44    9.20
  -2   5   5   39.50    2.05
  -2  -5   5   29.64    1.79
   2  -5  -5   37.38    2.00
   2   5  -5   35.55    1.78
  -2  -5   5   37.49    2.45
   2  -5  -5   36.41    1.75
  -2   5   4  819.98   23.15
   2  -5  -4  838.04   23.73
   2   5  -4  829.97   23.26
  -2  -5   4  850.78   23.97
   2  -5  -4  839.88   23.62
  -2   5   3  413.34    7.89
   2  -5  -3  361.20    6.94
   2  -5  -3  374.85    7.54
   2   5  -3  422.21    7.96
  -2  -5   3  400.67    7.63
   2   5  -3  406.81    7.77
   2  -5  -3  416.59    8.01
  -2   5   3  397.69    7.49
  -2   5   2  332.41    5.10
   2  -5  -2  324.18    4.97
  -2  -5   2  346.93    5.99
   2  -5  -2  323.71    5.61
   2   5  -2  333.89    5.12
  -2  -5   2  297.72    4.60
  -2  -5   2  338.40    5.33
   2  -5  -2  325.89    5.27
   2   5  -2  317.94    5.14
  -2   5   2  332.57    5.30
  -2   5   1  693.55    6.85
   2  -5  -1  702.61    6.95
   2   5  -1  700.74    7.03
  -2  -5   1  706.51    7.14
   2  -5  -1  699.36    7.72
  -2  -5   1  666.55    7.50
  -2   5   1  711.39    7.91
   2   5  -1  693.34    7.67
   2  -5   0 2093.46   20.57
  -2   5   0 1923.71   19.12
  -2  -5   0 2164.81   21.46
   2   5   0 1926.21   19.03
   2  -5   1  898.62   12.27
  -2   5  -1  853.80   11.59
   2  -5   1  901.75   13.10
   2   5   2    9.02    1.80
   2  -5   2    5.40    0.52
  -2   5  -2    9.59    0.66
  -2  -5  -2    8.19    0.37
   2   5   2    6.80    0.33
  -2   5  -2    9.17    0.87
   2  -5   2    8.84    1.56
  -2  -5  -2    6.08    0.79
   2   5   3  225.74    7.21
   2  -5   3  214.92    6.55
  -2  -5  -3  241.24    6.90
   2   5   3  209.11    6.01
  -2   5  -3  222.94    6.88
  -2  -5  -3  218.23    6.98
   2   5   4   73.51    3.02
   2  -5   4   74.14    2.84
  -2  -5  -4   69.59    2.26
  -2   5  -4   77.56    2.97
   2  -5   4   71.76    2.85
  -2  -5  -4   83.66    3.36
   2   5   5  429.85   16.91
   2  -5   5  481.99   18.61
  -2  -5  -5  462.80   17.41
  -2   5  -5  477.43   18.28
   2  -5   5  439.06   18.39
  -2  -5  -5  448.70   17.62
   2  -5   6  106.63    5.77
  -2  -5  -6  123.29    5.97
  -2   5  -6  111.86    5.62
   2  -5   6  108.61    7.14
  -2  -5  -6  132.53    6.99
   2   5   7   12.02    4.04
   2  -5   7   17.75    2.51
  -2  -5  -7   11.60    1.58
  -2   5  -7   15.52    2.12
  -2  -5  -7   12.20    2.00
  -2   6   8   33.44    4.18
  -2  -6   8   32.20    4.11
   2  -6  -8   28.07    3.58
   2   6  -8   35.48    4.40
   2  -6  -8   25.65    3.29
  -2   6   7   34.83    2.56
  -2  -6   7   39.27    2.88
   2  -6  -7   41.33    2.73
   2   6  -7   36.05    2.50
  -2  -6   7   33.17    3.29
   2  -6  -7   34.98    2.41
  -2   6   6  170.98    7.34
  -2  -6   6  178.25    7.72
   2  -6  -6  154.18    6.67
   2   6  -6  187.85    7.71
  -2  -6   6  168.31    7.68
   2  -6  -6  142.74    6.14
  -2   6   5  233.86    7.19
  -2  -6   5  238.30    7.45
   2  -6  -5  232.09    7.10
   2   6  -5  216.65    6.56
  -2  -6   5  223.62    6.57
   2  -6  -5  230.14    6.95
  -2   6   4    2.50    0.59
  -2  -6   4    4.00    0.90
   2  -6  -4    3.67    0.68
   2   6  -4    2.82    0.60
  -2  -6   4    6.56    1.08
   2  -6  -4    4.02    0.67
  -2   6   3  796.96   14.38
   2  -6  -3  704.16   12.72
  -2  -6   3  757.47   14.15
   2  -6  -3  775.43   14.41
   2   6  -3  696.10   12.61
  -2  -6   3  774.63   13.95
   2   6  -3  768.27   13.98
   2  -6  -3  752.65   13.83
  -2   6   2 1140.27   15.64
   2  -6  -2 1109.45   15.17
   2  -6  -2 1144.28   16.60
   2   6  -2 1128.45   15.52
  -2  -6   2 1147.43   15.82
  -2  -6   2 1076.24   15.18
   2  -6  -2 1172.10   16.54
   2   6  -2 1159.55   16.34
   2  -6  -1 2467.15   33.82
   2   6  -1 2589.51   34.20
  -2  -6   1 2407.67   31.89
   2  -6  -1 2437.68   32.92
  -2  -6   1 2458.08   33.25
  -2   6   1 2496.30   33.74
   2   6  -1 2485.75   33.55
   2   6   0 1771.63   23.32
   2   6   0 1736.36   22.77
   2  -6   0 1772.68   24.32
  -2   6   0 1647.87   22.76
  -2  -6   0 1762.75   24.46
   2   6   0 1770.70   24.29
   2   6   1  703.73   10.89
   2  -6   1  687.05    9.43
  -2   6  -1  670.27    9.12
   2  -6   1  677.22   10.18
   2   6   2  143.53    4.96
   2  -6   2  151.23    3.22
  -2   6  -2  138.54    2.94
  -2  -6  -2  157.88    2.91
   2   6   2  138.34    2.53
  -2   6  -2  143.96    3.59
   2  -6   2  156.21    3.80
  -2  -6  -2  138.59    3.71
   2   6   3  418.16   12.52
  -2  -6  -3  448.36   12.52
   2   6   3  383.38   10.71
  -2   6  -3  428.80   12.53
  -2  -6  -3  375.66   11.42
   2   6   4  244.49    7.02
   2  -6   4  248.62    6.69
  -2  -6  -4  256.68    6.38
  -2   6  -4  252.72    6.86
   2  -6   4  254.37    7.01
  -2  -6  -4  227.71    6.62
   2   6   5  215.05    9.18
   2  -6   5  207.74    8.62
  -2  -6  -5  215.09    8.41
  -2   6  -5  195.28    8.02
   2  -6   5  193.35    8.40
  -2  -6  -5  168.90    7.43
   2   6   6   42.68    7.18
   2  -6   6   35.88    2.79
  -2  -6  -6   41.71    2.77
  -2   6  -6   43.93    3.13
   2  -6   6   38.44    3.04
   2   6   7   34.76    9.47
   2  -6   7   45.01    3.76
  -2   6  -7   44.28    3.60
   2  -6   7   60.42    4.78
  -2  -6  -7   44.13    3.87
  -2   7   8  194.79   13.45
  -2  -7   8  198.03   13.63
   2  -7  -8  187.36   12.83
   2   7  -8  202.96   13.80
  -2  -7   8  178.12   12.05
   2  -7  -8  160.58   11.10
  -2   7   7  145.47    8.59
  -2  -7   7  150.37    8.99
   2  -7  -7  144.41    8.47
   2   7  -7  124.36    7.27
  -2  -7   7  142.20    8.10
   2  -7  -7  149.66    8.70
  -2   7   6    2.29    0.88
  -2  -7   6    3.98    1.58
   2  -7  -6    4.19    0.84
   2   7  -6    5.71    1.19
  -2  -7   6   14.18    1.40
   2  -7  -6    3.78    0.88
  -2   7   5   45.15    2.25
  -2  -7   5   46.30    2.39
   2  -7  -5   34.74    2.10
   2   7  -5   39.95    1.85
  -2  -7   5   36.74    2.08
   2  -7  -5   40.56    2.06
  -2   7   4  478.29   14.35
  -2  -7   4  466.09   14.24
   2  -7  -4  461.73   14.06
   2   7  -4  471.15   14.02
  -2  -7   4  458.26   13.92
   2  -7  -4  459.85   13.91
  -2   7   3   72.56    2.05
   2  -7  -3   64.81    1.91
  -2  -7   3   65.47    2.24
   2  -7  -3   71.28    2.38
   2   7  -3   78.54    2.17
  -2  -7   3   63.93    1.97
   2  -7  -3   73.06    2.35
  -2   7   2  176.57    3.58
   2  -7  -2  177.22    3.54
  -2  -7   2  175.86    4.26
   2  -7  -2  189.78    4.48
   2   7  -2  177.69    3.65
  -2  -7   2  163.81    3.46
  -2  -7   2  166.53    3.80
   2  -7  -2  176.09    4.09
   2   7  -2  166.67    3.86
  -2   7   2  172.92    3.93
  -2   7   1  288.00    4.11
   2  -7  -1  280.15    3.93
  -2  -7   1  291.90    5.30
   2  -7  -1  284.73    5.27
   2   7  -1  258.73    3.92
  -2  -7   1  284.87    4.40
   2  -7  -1  267.07    4.83
  -2  -7   1  289.49    5.17
  -2   7   1  274.42    4.91
   2   7  -1  274.74    4.86
   2   7   0  243.25    3.65
   2   7   0  230.01    3.26
   2  -7   0  259.34    4.72
  -2  -7   0  247.34    4.78
   2   7   1  363.70    7.49
   2  -7   1  333.62    5.97
  -2   7  -1  348.47    6.11
   2  -7   1  365.05    7.35
   2   7   2  240.31    5.72
   2  -7   2  210.37    4.19
  -2   7  -2  196.28    3.88
  -2  -7  -2  191.25    3.51
   2   7   2  206.10    3.64
  -2   7  -2  215.87    5.04
   2  -7   2  195.88    6.05
  -2  -7  -2  195.19    4.79
   2   7   3  337.46   10.78
   2  -7   3  353.45   10.60
  -2  -7  -3  335.62    9.80
   2   7   3  337.35    9.78
  -2   7  -3  344.08   10.66
  -2  -7  -3  343.88   10.92
   2   7   4  178.10    5.92
   2  -7   4  203.55    5.63
  -2  -7  -4  207.31    5.26
  -2   7  -4  201.26    5.76
   2   7   4  179.84    4.55
   2  -7   4  207.94    6.00
  -2  -7  -4  200.94    6.23
   2   7   5  401.53   19.57
   2  -7   5  416.03   18.10
  -2  -7  -5  400.37   17.09
  -2   7  -5  369.94   16.14
   2  -7   5  413.33   18.12
  -2  -7  -5  405.99   18.07
   2   7   6   36.62    5.94
   2  -7   6   37.48    2.78
  -2  -7  -6   41.47    2.67
  -2   7  -6   37.68    2.72
   2  -7   6   38.35    2.90
  -2  -7  -6   36.48    2.98
   2   7   7  118.64    8.67
   2  -7   7  122.69    8.68
  -2   7  -7  101.48    7.17
   2  -7   7  122.08   10.16
  -2  -7  -7  112.19    8.24
  -2   8   8   32.60    4.61
  -2  -8   8   30.00    4.24
   2  -8  -8   23.94    3.47
  -2  -8   8   21.56    3.23
   2  -8  -8   20.22    2.99
  -2   8   7   60.96    4.38
  -2  -8   7   60.59    4.35
   2  -8  -7   70.26    4.73
   2   8  -7   62.48    4.25
  -2  -8   7   63.44    4.18
   2  -8  -7   60.32    4.22
  -2   8   6   15.11    1.74
  -2  -8   6   15.47    1.49
   2  -8  -6   17.43    1.60
   2   8  -6   19.00    1.73
  -2  -8   6   15.69    2.67
   2  -8  -6   14.88    1.47
  -2   8   5  261.61    7.38
  -2  -8   5  268.40    7.61
   2  -8  -5  294.29    8.18
   2   8  -5  251.71    6.85
  -2  -8   5  266.74    8.03
   2  -8  -5  255.26    7.23
  -2   8   4  113.42    4.10
  -2  -8   4  105.03    4.00
   2  -8  -4  110.16    4.22
   2   8  -4  101.79    3.65
  -2  -8   4  108.49    4.11
   2  -8  -4   99.92    3.80
  -2   8   3  708.42   19.92
  -2  -8   3  695.00   19.90
   2  -8  -3  651.09   18.85
   2   8  -3  689.85   19.35
  -2  -8   3  635.03   18.05
   2  -8  -3  618.95   17.77
  -2   8   2  812.23   14.31
   2  -8  -2  820.41   14.36
  -2  -8   2  858.06   15.90
   2  -8  -2  765.75   14.41
   2   8  -2  726.06   12.92
  -2  -8   2  734.69   13.58
   2  -8  -2  761.63   14.19
  -2   8   1  149.65    2.82
   2  -8  -1  157.70    2.85
  -2  -8   1  151.43    3.78
   2  -8  -1  153.51    3.92
   2   8  -1  158.85    3.19
   2  -8  -1  158.95    3.86
  -2  -8   1  151.12    3.77
  -2  -8   0  361.68    7.47
   2  -8   0  344.88    7.26
   2   8   0  341.31    6.21
   2   8   0  343.78    6.08
   2  -8   0  327.44    6.77
  -2  -8   0  324.41    6.89
   2   8   1    0.33    0.09
   2   8   2  206.69    6.69
   2  -8   2  199.05    5.80
  -2   8  -2  196.10    5.70
  -2  -8  -2  177.64    5.05
   2   8   2  212.77    5.90
  -2   8  -2  202.84    6.44
   2  -8   2  178.17    7.19
  -2  -8  -2  185.69    6.17
   2   8   3 1525.41   35.75
   2  -8   3 1629.28   37.33
   2   8   3 1406.98   31.83
  -2   8  -3 1590.17   36.89
  -2  -8  -3 1571.18   36.91
   2   8   4  178.33    7.48
   2  -8   4  170.34    6.27
  -2  -8  -4  177.40    6.15
  -2   8  -4  180.53    6.89
   2  -8   4  174.31    7.52
  -2  -8  -4  152.54    6.24
   2   8   5  117.47    6.31
   2  -8   5  125.01    6.08
  -2  -8  -5  114.70    5.24
  -2   8  -5  112.00    5.60
   2  -8   5  140.91    6.86
  -2  -8  -5  108.39    5.76
   2   8   6   25.65    3.36
   2  -8   6   27.88    2.36
  -2   8  -6   25.34    2.20
   2  -8   6   16.11    3.62
  -2  -8  -6   20.08    2.19
   2   8   7   94.31    7.34
   2  -8   7   98.02    6.94
  -2   8  -7   88.39    6.22
   2  -8   7   90.27    6.50
  -2  -8  -7   85.99    6.45
  -2   9   8  119.02    8.39
  -2  -9   8  120.11    8.48
   2  -9  -8  110.33    7.77
   2   9  -8  111.40    7.70
  -2  -9   8  117.82    8.47
   2  -9  -8  104.47    7.40
  -2   9   7   56.17    4.11
  -2  -9   7   48.84    3.80
   2  -9  -7   57.51    4.26
   2   9  -7   51.08    3.61
  -2  -9   7   41.79    6.94
   2  -9  -7   48.62    3.57
  -2   9   6   23.42    1.96
  -2  -9   6   21.35    1.84
   2  -9  -6   16.03    1.63
   2   9  -6   24.85    2.00
  -2  -9   6   19.82    2.83
   2  -9  -6   18.40    1.66
  -2   9   5  499.14   17.13
  -2  -9   5  450.72   15.73
   2  -9  -5  435.37   15.20
   2   9  -5  487.86   16.62
  -2  -9   5  460.18   15.92
   2  -9  -5  464.88   16.18
  -2   9   4  212.92    6.40
  -2  -9   4  224.69    6.92
   2  -9  -4  211.04    6.61
   2   9  -4  226.65    6.71
  -2  -9   4  219.63    6.56
   2  -9  -4  221.15    6.87
  -2   9   3   60.53    2.33
  -2  -9   3   47.05    2.22
   2  -9  -3   54.69    5.52
   2   9  -3   61.00    2.39
  -2  -9   3   54.80    2.41
   2  -9  -3   52.58    2.42
  -2   9   2  521.62   14.59
   2  -9  -2  536.10   14.95
  -2  -9   2  509.35   14.85
   2  -9  -2  526.30   15.39
   2   9  -2  561.46   15.78
  -2  -9   2  499.84   14.50
   2  -9  -2  504.18   14.68
  -2   9   1  867.22   14.77
   2  -9  -1  817.31   13.91
  -2  -9   1  868.15   16.08
   2  -9  -1  832.80   15.75
   2   9  -1  942.46   16.42
   2  -9  -1  870.96   16.13
  -2  -9   1  827.15   15.47
  -2  -9   0  389.55    7.98
   2  -9   0  416.69    8.63
   2   9   0  394.39    7.17
   2   9   0  389.52    6.90
   2  -9   0  383.49    7.85
  -2  -9   0  413.90    8.60
   2   9   1  155.44    5.25
   2   9   1  157.54    4.43
   2   9   1  142.78    4.02
   2  -9   1  149.35    5.03
  -2  -9  -1  137.96    4.89
   2   9   2  157.16    5.64
   2  -9   2  168.55    5.12
  -2   9  -2  157.13    4.78
  -2  -9  -2  158.01    4.65
   2   9   2  151.53    4.40
  -2   9  -2  155.32    5.34
   2  -9   2  179.07    6.24
  -2  -9  -2  180.42    6.36
   2   9   3   50.14    5.28
   2  -9   3   45.14    1.81
  -2   9  -3   42.44    1.68
  -2  -9  -3   44.98    1.59
   2   9   3   45.74    1.44
  -2   9  -3   39.82    1.99
  -2  -9  -3   49.96    2.67
   2   9   4  102.42    4.61
   2  -9   4  107.36    4.21
  -2  -9  -4  102.71    3.75
  -2   9  -4  106.96    4.64
   2  -9   4  117.05    4.87
  -2  -9  -4   96.25    4.61
   2   9   5  229.97   10.98
   2  -9   5  207.23    9.57
  -2  -9  -5  201.05    8.95
  -2   9  -5  237.76   11.03
   2  -9   5  215.15   10.50
  -2  -9  -5  214.40   10.40
   2   9   6   85.18    6.24
   2  -9   6   95.07    5.81
   2  -9   6   98.21    7.51
  -2  -9  -6   78.28    5.31
   2   9   7   17.63    4.62
   2  -9   7   18.50    2.83
  -2   9  -7   14.62    2.27
   2  -9   7   14.38    5.58
  -2  -9  -7   17.36    2.94
  -2  10   8   29.94    3.16
  -2 -10   8   26.48    3.86
   2 -10  -8   29.95    3.01
  -2 -10   8   26.44    4.05
   2 -10  -8   26.71    3.83
  -2  10   7    6.44    1.35
  -2 -10   7    6.05    1.20
   2 -10  -7    5.95    1.16
  -2 -10   7    4.57    1.38
   2 -10  -7    7.15    1.35
  -2  10   6    8.61    1.20
  -2 -10   6    9.44    1.44
   2  10  -6    9.12    1.21
  -2 -10   6    6.27    1.40
   2 -10  -6    9.55    1.24
  -2  10   5   10.01    1.18
  -2 -10   5   12.03    1.37
   2 -10  -5   11.55    1.27
   2  10  -5   12.71    1.27
  -2 -10   5   16.45    2.41
   2 -10  -5    9.70    1.21
  -2  10   4  673.65   16.31
  -2 -10   4  641.29   15.86
   2 -10  -4  609.54   17.29
   2  10  -4  594.90   14.35
  -2 -10   4  645.90   15.77
   2 -10  -4  654.77   16.28
  -2  10   3  239.75    7.45
  -2 -10   3  243.08    7.95
   2 -10  -3  241.00    8.26
   2  10  -3  231.46    7.20
  -2 -10   3  256.82    8.19
   2 -10  -3  224.42    7.42
  -2  10   2  310.76    8.99
   2 -10  -2  317.23    9.02
  -2 -10   2  322.66    9.84
   2 -10  -2  317.26    9.94
   2  10  -2  334.43    9.67
  -2 -10   2  299.33    9.17
   2 -10  -2  307.32    9.44
   2 -10  -1  418.83   11.50
  -2 -10   1  410.80   12.18
   2 -10  -1  436.20   11.99
   2 -10  -1  441.18   13.08
   2  10  -1  438.25   12.31
   2 -10  -1  471.84   13.88
  -2 -10   1  403.75   12.08
  -2 -10   0  112.58    4.03
   2 -10   0  111.30    4.10
   2  10   0  108.18    3.53
   2  10   0  119.23    3.54
   2 -10   0  122.55    4.38
  -2 -10   0  118.77    4.44
   2  10   1  108.18    3.95
   2  10   1   96.32    2.83
   2  10   1  103.87    3.03
   2 -10   1  117.58    4.28
  -2 -10  -1  108.89    4.20
   2  10   2 1076.31   28.75
   2 -10   2 1070.97   27.61
  -2  10  -2 1027.61   26.52
   2  10   2 1035.23   26.49
  -2  10  -2 1037.11   27.57
   2 -10   2 1031.42   27.46
  -2 -10  -2 1087.47   29.19
   2  10   3  169.19    8.18
   2 -10   3  187.94    4.92
  -2  10  -3  158.28    4.21
  -2 -10  -3  179.22    4.57
  -2  10  -3  189.54    5.57
  -2 -10  -3  204.05    6.39
   2  10   4 1002.83   42.93
   2 -10   4  999.17   42.04
  -2 -10  -4  892.61   33.00
  -2  10  -4 1004.66   42.62
   2 -10   4  973.13   38.01
  -2 -10  -4  928.57   35.32
   2  10   5  196.48   10.26
   2 -10   5  227.79   10.67
  -2  10  -5  228.70   10.92
   2 -10   5  185.56   10.39
  -2 -10  -5  202.73   10.14
   2  10   6   37.99    4.79
   2 -10   6   26.71    3.27
  -2  10  -6   26.80    3.42
   2 -10   6   21.27    7.69
  -2 -10  -6   32.39    4.17
   2  10   7    4.12    2.94
   2 -10   7   13.26    2.28
  -2  10  -7   13.92    2.29
   2 -10   7   11.45    5.57
  -2 -10  -7   13.96    2.54
  -2  11   8   73.94    5.81
  -2 -11   8   63.11    5.07
   2 -11  -8   65.95    5.17
   2  11  -8   76.45    5.77
  -2 -11   8   61.81    4.82
   2 -11  -8   53.77    4.43
  -2  11   7   70.48    5.96
  -2 -11   7   64.30    5.61
   2 -11  -7   49.49    4.34
   2  11  -7   59.92    5.03
  -2 -11   7   56.79    4.70
   2 -11  -7   58.99    5.10
  -2  11   6   44.11    3.17
  -2 -11   6   41.95    3.29
   2 -11  -6   43.72    3.14
   2  11  -6   41.47    2.86
  -2 -11   6   36.24    6.52
   2 -11  -6   35.96    2.84
  -2  11   5  519.46   22.43
  -2 -11   5  525.13   22.80
   2 -11  -5  482.94   21.03
   2  11  -5  542.44   23.26
  -2 -11   5  546.35   23.67
   2 -11  -5  485.43   21.22
  -2  11   4   79.38    3.39
  -2 -11   4   65.48    3.23
   2 -11  -4   74.33    5.22
   2  11  -4   70.52    3.03
  -2 -11   4   67.79    3.23
   2 -11  -4   77.30    3.65
  -2  11   3  770.26   20.35
  -2 -11   3  767.03   20.79
   2 -11  -3  740.72   20.32
   2  11  -3  788.23   20.90
  -2 -11   3  707.01   19.20
   2 -11  -3  748.64   20.42
  -2  11   2  125.20    4.29
   2 -11  -2  116.80    3.69
  -2 -11   2  115.82    4.38
   2 -11  -2  125.32    4.63
   2  11  -2  130.83    4.34
  -2 -11   2  113.32    4.26
   2 -11  -2  117.03    4.47
   2 -11  -1  772.20   21.92
  -2 -11   1  799.40   23.59
   2  11  -1  679.18   19.81
   2 -11  -1  770.26   22.97
   2  11  -1  735.99   21.19
   2 -11  -1  749.14   22.26
  -2 -11   1  724.57   21.64
  -2 -11   0  178.53    6.04
   2 -11   0  208.74    7.01
   2  11   0  172.57    5.50
   2  11   0  185.81    5.58
   2 -11   0  202.16    6.77
  -2 -11   0  208.77    7.20
   2  11   1   12.48    1.15
   2  11   1    7.74    0.48
   2  11   1    7.00    0.44
   2 -11   1    8.91    1.06
  -2 -11  -1   10.35    1.26
   2  11   2   83.14    3.82
   2 -11   2  106.12    3.07
  -2  11  -2   91.95    2.71
   2  11   2   93.29    2.58
  -2  11  -2   92.80    3.75
   2 -11   2   99.34    3.78
  -2 -11  -2   95.83    3.93
   2  11   3    3.75    0.96
   2 -11   3    6.58    0.62
  -2 -11  -3    3.39    1.13
  -2  11  -3    1.35    1.17
  -2 -11  -3    7.50    1.22
   2  11   4  102.41   12.76
   2 -11   4   98.78    4.67
  -2  11  -4  101.99    5.30
   2 -11   4   92.57    4.85
  -2 -11  -4   90.33    5.04
   2  11   5   54.63    8.07
   2 -11   5   57.73    3.66
  -2  11  -5   62.56    4.13
   2 -11   5   63.98    8.63
  -2 -11  -5   49.93    3.73
   2  11   6    2.74    1.40
   2 -11   6    1.18    0.75
  -2  11  -6    2.76    0.98
   2 -11   6    0.69    1.16
  -2 -11  -6    3.89    1.62
  -2  12   7   95.55    7.03
  -2 -12   7   79.92    6.09
   2 -12  -7   81.74    6.05
   2  12  -7   89.32    6.55
  -2 -12   7   82.39    5.93
   2 -12  -7   81.77    6.19
  -2  12   6   90.72    5.87
  -2 -12   6  102.57    6.66
   2 -12  -6   97.55    6.31
   2  12  -6   94.25    6.08
  -2 -12   6  109.36    7.27
   2 -12  -6   90.51    6.00
  -2  12   5  229.18   10.54
  -2 -12   5  222.48   10.38
   2 -12  -5  218.33   11.12
   2  12  -5  238.37   10.86
  -2 -12   5  217.38   10.84
   2 -12  -5  192.94    9.25
  -2  12   4  297.23   11.75
  -2 -12   4  269.53   10.87
   2 -12  -4  284.01   11.47
   2  12  -4  292.10   11.41
  -2 -12   4  276.48   11.08
   2 -12  -4  313.27   12.63
  -2  12   3  377.47    9.34
  -2 -12   3  387.85   10.22
   2 -12  -3  387.27   11.55
   2  12  -3  401.70   10.05
  -2 -12   3  375.55    9.95
   2 -12  -3  374.64   10.04
  -2  12   2 1087.62   28.16
   2 -12  -2 1049.74   27.14
  -2 -12   2 1193.08   31.62
   2 -12  -2 1121.76   30.10
   2  12  -2 1122.14   29.23
  -2 -12   2 1045.52   27.96
   2 -12  -2 1091.18   29.24
   2 -12  -1  300.18    7.80
  -2 -12   1  322.21    9.40
   2 -12  -1  311.72    8.11
   2 -12  -1  311.39    9.41
   2  12  -1  345.66    9.37
   2 -12  -1  325.03    9.60
  -2 -12   1  329.55    9.82
  -2 -12   0   13.64    1.24
   2 -12   0   14.18    1.25
   2  12   0    8.72    1.17
   2  12   0   11.98    0.71
   2 -12   0   11.10    1.14
  -2 -12   0   14.57    1.50
   2  12   1   64.69    2.83
   2  12   1   55.76    1.79
   2  12   1   61.44    1.91
   2 -12   1   56.51    2.60
  -2 -12  -1   69.57    3.43
   2  12   2  496.52   12.84
   2 -12   2  467.95   10.87
  -2  12  -2  480.52   12.28
   2 -12   2  517.64   13.20
  -2 -12  -2  479.88   12.86
   2  12   3  139.84    6.22
   2 -12   3  133.62    5.32
  -2 -12  -3  116.77    4.82
  -2  12  -3  102.26    4.76
  -2 -12  -3  131.95    6.15
   2  12   4   51.75    7.65
   2 -12   4   41.25    2.31
  -2  12  -4   47.92    2.99
   2 -12   4   46.25    7.78
  -2 -12  -4   52.06    3.99
   2  12   5  174.45   10.99
   2 -12   5  173.63   10.34
  -2  12  -5  189.38   11.47
   2 -12   5  177.75   11.06
  -2 -12  -5  169.60   10.66
   2  12   6  199.25   13.96
  -2  12  -6  229.76   15.02
   2 -12   6  244.55   16.02
  -2 -12  -6  217.24   14.63
  -2  13   7  104.22    7.36
  -2 -13   7  101.56    7.24
   2 -13  -7   95.37    6.81
   2  13  -7  103.34    7.13
  -2 -13   7   92.92    6.74
   2 -13  -7  102.05    7.49
  -2  13   6   56.50    4.39
  -2 -13   6   70.25    4.67
   2 -13  -6   59.88    4.08
   2  13  -6   65.94    4.23
  -2 -13   6   64.01    5.04
   2 -13  -6   61.59    4.34
  -2  13   5   37.76    4.20
  -2 -13   5   38.22    2.69
   2 -13  -5   44.49    7.29
   2  13  -5   38.56    2.41
  -2 -13   5   37.34    6.13
   2 -13  -5   32.89    2.50
  -2  13   4   21.64    2.26
  -2 -13   4   22.59    1.81
   2 -13  -4   22.02    3.20
   2  13  -4   24.06    1.64
  -2 -13   4   28.94    2.07
   2 -13  -4   24.06    1.98
  -2  13   3  661.37   21.90
  -2 -13   3  757.01   25.49
   2 -13  -3  739.46   25.04
   2  13  -3  766.61   25.45
  -2 -13   3  748.14   25.28
   2 -13  -3  741.23   25.19
  -2  13   2  647.25   15.08
   2 -13  -2  590.04   13.75
  -2 -13   2  674.70   16.63
   2 -13  -2  606.97   16.43
   2  13  -2  674.99   15.99
  -2 -13   2  657.13   16.40
   2 -13  -2  624.41   15.76
   2 -13  -1  187.34    4.41
  -2 -13   1  187.32    5.58
   2 -13  -1  186.50    4.41
   2 -13  -1  189.10    5.75
   2  13  -1  188.81    4.95
   2 -13  -1  187.13    5.71
  -2 -13   1  181.40    5.75
  -2 -13   0   72.63    2.88
   2  13   0   68.33    2.28
   2  13   0   78.90    2.30
   2 -13   0   71.27    2.97
  -2 -13   0   81.75    3.38
  -2 -13  -1   48.39    2.32
   2  13   1   50.41    1.58
   2  13   1   56.67    1.70
   2 -13   1   56.39    2.82
  -2 -13  -1   51.89    2.70
   2  13   2  217.51    8.25
   2 -13   2  205.13    6.84
   2 -13   2  219.00    8.29
  -2 -13  -2  237.41   10.10
   2  13   3   35.23    6.41
   2 -13   3   40.13    2.05
  -2  13  -3   33.68    2.39
  -2 -13  -3   48.09    3.26
   2  13   4   23.25    5.20
  -2  13  -4   24.22    2.10
   2 -13   4   25.01    4.27
  -2 -13  -4   19.93    2.04
   2  13   5   72.82    9.12
  -2  13  -5   81.43    5.23
   2 -13   5   73.93   10.36
  -2 -13  -5   84.88    5.88
   2  13   6   13.71    5.37
  -2  13  -6   16.07    2.50
   2 -13   6   12.07    4.57
  -2 -13  -6   13.59    2.55
  -2  14   7   86.07    6.43
  -2 -14   7   94.36    7.14
   2 -14  -7   75.01    6.67
   2  14  -7   99.29    7.16
  -2 -14   7   94.92    7.10
   2 -14  -7   84.88    6.49
  -2 -14   6  103.93    8.30
   2 -14  -6  101.73    8.14
   2  14  -6  108.59    8.51
  -2 -14   6  105.98    8.58
   2 -14  -6   94.52    7.85
  -2  14   5  121.75    7.24
  -2 -14   5  122.95    7.35
   2 -14  -5  124.40    7.87
   2  14  -5  134.62    7.75
  -2 -14   5  124.27   11.63
   2 -14  -5  118.06    7.28
  -2  14   4  166.01    7.72
  -2 -14   4  150.10    7.30
   2 -14  -4  153.14    8.41
   2  14  -4  168.34    7.81
  -2 -14   4  161.48    7.85
   2 -14  -4  156.58    7.77
  -2  14   3  646.30   27.32
  -2 -14   3  686.09   29.40
   2 -14  -3  698.77   30.26
   2  14  -3  730.75   30.97
  -2 -14   3  681.64   29.32
   2 -14  -3  644.25   27.89
  -2  14   2  248.74    9.46
  -2 -14   2  256.85   10.41
   2 -14  -2  268.94   11.04
   2  14  -2  261.03   10.11
  -2 -14   2  262.03   10.79
   2 -14  -2  264.86   10.94
   2 -14  -1  383.89   12.52
  -2 -14   1  385.86   13.54
   2 -14  -1  348.26   13.24
   2  14  -1  383.68   12.91
   2 -14  -1  344.25   12.35
  -2 -14   1  389.55   13.97
  -2 -14   0  456.64   15.82
   2  14   0  474.66   15.73
   2 -14   0  475.29   16.62
  -2 -14   0  460.48   16.31
  -2 -14  -1   17.35    1.54
   2  14   1   19.25    1.03
   2 -14   1   17.74    1.63
  -2 -14  -1   17.79    1.75
   2  14   2   67.28    3.88
   2  14   2   61.24    2.81
  -2  14  -2   68.48    3.74
   2 -14   2   78.07    4.24
  -2 -14  -2   72.39    4.35
   2  14   3  102.53    5.71
  -2  14  -3   83.57    4.56
  -2 -14  -3   96.01    5.53
   2  14   4  153.10   10.22
  -2  14  -4  180.75   10.91
   2 -14   4  154.99    9.71
  -2 -14  -4  146.06    9.32
   2  14   5   25.44    6.04
  -2  14  -5   33.27    4.65
   2 -14   5   28.29    5.83
  -2 -14  -5   25.64    3.89
   2  14   6   82.37    6.46
  -2  14  -6   70.15    5.34
   2 -14   6   71.39    5.55
  -2 -14  -6   64.75    5.47
  -2  15   6    7.18    1.90
  -2 -15   6    4.45    1.22
   2 -15  -6    7.39    2.49
   2  15  -6    5.49    1.17
  -2 -15   6    4.65    2.51
   2 -15  -6    3.95    1.15
  -2  15   5   64.97    4.52
  -2 -15   5   71.51    4.73
   2 -15  -5   61.65   10.50
   2  15  -5   70.26    4.39
  -2 -15   5   56.97    3.81
   2 -15  -5   50.52    3.75
  -2  15   4  272.91   15.06
  -2 -15   4  294.77   16.34
   2 -15  -4  250.24   14.04
   2  15  -4  278.45   15.29
  -2 -15   4  268.06   14.95
   2 -15  -4  245.70   13.91
  -2  15   3  106.61    5.09
  -2 -15   3  119.70    6.01
   2 -15  -3  104.60    6.15
   2  15  -3  109.07    5.30
  -2 -15   3  100.95    5.47
   2 -15  -3  111.31    5.89
  -2 -15   2  166.13    7.82
   2 -15  -2  158.87    6.95
   2 -15  -2  157.75    8.01
   2  15  -2  163.11    7.31
  -2 -15   2  166.00    8.05
   2 -15  -2  136.91    6.74
  -2 -15   1  149.38    6.46
   2 -15  -1  147.01    6.51
   2  15  -1  148.14    5.94
   2 -15  -1  141.18    6.43
  -2 -15   1  155.30    7.01
  -2 -15   0  164.88    7.04
   2  15   0  170.00    6.64
   2 -15   0  187.60    8.09
  -2 -15   0  177.47    7.82
  -2 -15  -1  310.21   13.92
   2  15   1  273.90   11.69
   2 -15   1  313.00   14.09
  -2 -15  -1  291.62   13.40
   2  15   2   18.84    1.80
  -2  15  -2   19.02    1.81
   2 -15   2   13.60    1.45
  -2 -15  -2   12.81    1.75
   2  15   3    5.02    1.73
  -2 -15  -3    7.60    1.48
   2  15   4   58.31    4.60
  -2  15  -4   46.24    3.31
   2 -15   4   53.56    8.00
  -2 -15  -4   42.81    3.54
   2  15   5    2.79    1.82
  -2  15  -5    3.25    1.41
   2 -15   5    0.71    1.43
  -2 -15  -5    6.81    2.01
  -2  16   6   78.90    6.27
  -2 -16   6   85.28    6.82
   2 -16  -6   65.89    5.80
   2  16  -6   92.92    7.20
  -2 -16   6   71.53    6.49
   2 -16  -6   65.68    5.75
  -2  16   5  106.77    8.32
  -2 -16   5  102.09    8.15
   2 -16  -5  115.52    9.16
   2  16  -5  100.99    7.89
  -2 -16   5  106.46    8.43
   2 -16  -5  108.77    8.81
  -2  16   4   28.02    3.46
  -2 -16   4   25.61    2.24
   2 -16  -4   25.09    5.89
   2  16  -4   37.42    2.85
  -2 -16   4   31.17    2.68
   2 -16  -4   25.07    2.45
  -2 -16   3   33.82    2.54
   2 -16  -3   33.83    5.70
   2  16  -3   40.44    2.43
  -2 -16   3   36.27    2.62
   2 -16  -3   33.16    2.68
  -2 -16   2   22.50    1.82
   2 -16  -2   20.03    5.15
   2  16  -2   12.64    1.13
  -2 -16   2   14.00    1.54
   2 -16  -2   18.27    1.79
  -2 -16   1    8.69    1.08
   2 -16  -1   18.35    1.77
   2  16  -1   14.00    1.14
   2 -16  -1   14.40    1.68
  -2 -16   1   14.34    1.84
  -2 -16   0  902.21   39.07
   2  16   0  950.08   41.70
   2 -16   0  920.23   40.05
  -2 -16   0  946.15   42.42
  -2 -16  -1   48.64    3.15
   2 -16   1   46.48    3.10
  -2 -16  -1   42.04    3.06
  -2  16  -2  127.31    6.56
   2 -16   2  140.76    7.22
  -2 -16  -2  124.24    6.81
   2  16   3   45.43    3.51
  -2  16  -3   45.80    3.51
  -2 -16  -3   46.69    3.87
   2  16   4   55.50    4.89
   2 -16   4   54.30   10.47
  -2 -16  -4   55.56    4.83
   2  16   5   67.80    5.76
  -2  16  -5   64.36    5.41
   2 -16   5   52.63    7.72
  -2 -16  -5   44.04    4.30
  -2 -17   5   59.56    4.64
   2 -17  -5   56.50    5.66
   2  17  -5   58.65    4.38
  -2 -17   5   56.74    4.39
   2 -17  -5   79.73    6.21
  -2 -17   4  257.83   14.43
   2 -17  -4  262.69   14.90
   2  17  -4  298.87   16.40
  -2 -17   4  267.62   15.05
   2 -17  -4  251.35   14.40
  -2 -17   3   24.80    2.12
   2 -17  -3   27.34    4.37
   2  17  -3   32.67    2.52
  -2 -17   3   38.98    3.30
   2 -17  -3   30.72    2.75
  -2 -17   2   55.65    3.75
   2 -17  -2   51.95    8.92
   2  17  -2   45.13    2.88
  -2 -17   2   44.85    3.48
   2 -17  -2   45.03    3.47
  -2 -17   1    8.76    1.18
   2  17  -1   12.46    1.00
  -2 -17   1   13.21    1.73
  -2 -17   0   39.31    2.68
   2  17   0   48.50    2.56
   2 -17   0   44.67    3.22
  -2 -17   0   40.29    3.04
  -2 -17  -1   37.23    2.79
   2 -17   1   35.55    2.90
  -2 -17  -1   37.77    3.22
  -2 -17  -2  147.80    9.20
  -2  17  -2  150.88    9.30
   2 -17   2  145.83    9.13
  -2 -17  -2  146.94    9.45
   2  17   3   42.05    6.27
  -2  17  -3   42.24    4.97
  -2 -17  -3   54.87    5.20
   2  17   4    6.81    2.73
  -2  17  -4   19.27    2.64
   2 -17   4   13.58    4.20
  -2 -17  -4   13.60    2.39
  -2 -18   5    8.02    1.73
   2 -18  -5    5.42    2.11
   2  18  -5    7.63    1.46
  -2 -18   5    5.27    1.28
   2 -18  -5    9.10    2.09
  -2 -18   4   32.57    4.44
   2 -18  -4   38.53    4.85
   2  18  -4   43.95    3.42
  -2 -18   4   41.60    3.76
   2 -18  -4   38.70    4.68
  -2 -18   3   34.19    2.63
   2 -18  -3   29.09    2.52
   2  18  -3   28.69    2.14
  -2 -18   3   25.59    2.39
   2 -18  -3   34.36    3.10
  -2 -18   2   52.41    3.85
   2 -18  -2   43.67    3.47
   2  18  -2   45.29    3.05
  -2 -18   2   50.89    3.94
   2 -18  -2   46.11    3.60
  -2 -18   1  378.91   22.05
   2  18  -1  375.44   21.46
   2 -18  -1  390.41   22.86
  -2 -18   1  365.74   21.57
  -2 -18   0   54.45    3.97
   2 -18   0   57.75    4.30
  -2 -18   0   54.23    4.15
  -2 -18  -1   23.20    2.09
  -2  18  -1   25.05    2.28
   2 -18   1   38.63    3.34
  -2 -18  -1   24.64    2.61
  -2 -18  -2  281.85   21.30
   2 -18   2  315.94   23.87
  -2 -18  -2  279.91   21.39
   2  18   3   57.68    4.75
  -2  18  -3   54.26    4.30
  -2 -18  -3   68.22    5.75
   2  18   4   64.55    5.25
  -2  18  -4   64.23    4.98
   2 -18   4   70.12    6.13
  -2 -18  -4   58.25    5.03
  -2 -19   4   79.30    6.30
   2 -19  -4   80.22    6.47
   2  19  -4   99.73    7.68
  -2 -19   4   84.58    6.78
   2 -19  -4  107.71    8.59
  -2 -19   3   16.70    2.54
   2 -19  -3   15.59    5.06
   2  19  -3   21.67    2.98
  -2 -19   3   22.25    3.41
   2 -19  -3   14.82    2.49
  -2 -19   2   73.15    5.99
   2 -19  -2   75.07    6.23
   2  19  -2   75.95    5.96
  -2 -19   2   82.78    6.90
   2 -19  -2   65.98    5.69
  -2 -19   1   14.96    1.67
   2 -19  -1   18.34    2.13
  -2 -19   1   15.36    2.01
  -2 -19   0  142.92    8.47
   2 -19   0  115.92    9.29
  -2 -19   0  142.53    8.85
  -2 -19  -1   36.84    4.54
  -2  19  -1   47.79    6.30
   2 -19   1   37.64    4.65
  -2 -19  -1   43.56    5.38
  -2 -19  -2   38.83    4.49
  -2  19  -2   41.27    3.43
   2 -19   2   53.28    4.50
  -2 -19  -2   50.92    4.54
  -2 -19  -3  114.89    9.09
  -2  19  -3  111.18    8.68
  -2 -19  -3  121.47    9.83
  -2 -20   3   11.84    1.94
   2 -20  -3   12.87    2.18
   2  20  -3   12.38    1.91
  -2 -20   3   11.21    2.20
   2 -20  -3   12.52    2.20
  -2 -20   2  146.04   10.11
   2 -20  -2  165.10   11.39
  -2 -20   1   39.93    3.31
   2 -20  -1   41.80    3.69
  -2 -20   1   43.97    4.20
  -2 -20   0  110.92    7.88
   2 -20   0  122.17    8.92
  -2 -20   0   97.42    7.39
  -2 -20  -1  101.35    7.14
  -2  20  -1   86.66    6.28
   2 -20   1   99.99    7.30
  -2 -20  -1  107.19    7.89
  -2 -20  -2   74.41    6.13
  -2  20  -2   65.61    5.43
   2 -20   2   77.00    6.35
  -2 -20  -2   70.64    6.23
  -2 -21   2   76.94    5.81
  -2 -21   2   87.39    6.71
   2 -21  -2   84.42    6.52
  -2 -21   1   15.07    2.49
   2 -21  -1   26.67    3.96
  -2 -21   1   13.33    2.43
  -2 -21   0    5.01    1.26
   2 -21   0    6.29    1.52
  -2 -21   0    4.31    1.79
  -2 -21  -1  262.78   17.80
  -2  21  -1  270.59   18.37
   2 -21   1  272.16   18.64
  -2 -21  -1  262.53   18.23
  -3   0   9   77.95    6.17
   3   0  -9   78.61    6.16
  -3   0   8  165.03    9.76
   3   0  -8  172.31   10.14
   3   0  -8  149.45    8.51
  -3   0   7   12.94    1.88
   3   0  -7   12.67    1.62
   3   0  -7    8.26    0.95
  -3   0   6   28.45    2.03
   3   0  -6   36.77    2.26
   3   0  -6   26.46    1.46
  -3   0   5   31.06    1.86
   3   0  -5   26.50    1.19
   3   0  -5   34.14    1.38
  -3   0   4  614.65   17.71
   3   0  -4  648.50   18.55
   3   0  -4  566.01   15.64
   3   0  -4  582.49   16.12
  -3   0   3   91.42    2.63
   3   0  -3  115.41    2.99
  -3   0   2   63.97    1.88
   3   0  -2   67.31    2.00
  -3   0   1  220.19    4.01
   3   0  -1  230.14    4.18
  -3   0   1  234.62    3.92
  -3   0   1  231.00    3.59
  -3   0   1  217.73    3.26
  -3   0   0  303.57    5.18
  -3   0   0  318.30    5.36
   3   0   0  314.55    5.58
  -3   0   0  297.45    4.70
  -3   0   0  305.36    4.76
   3   0   1   42.10    4.88
  -3   0  -1   27.69    1.06
   3   0   2 1826.12   32.59
  -3   0  -2 1674.64   29.34
  -3   0  -2 1792.38   30.87
   3   0   3   24.77    3.54
  -3   0  -3   21.22    1.18
   3   0   4   45.08    5.11
  -3   0  -4   42.77    1.74
   3   0   5  403.61   17.86
  -3   0  -5  437.09   18.70
   3   0   6  209.95   13.34
  -3   0  -6  212.98   12.45
   3   0   7    7.59    2.21
  -3   0  -7    7.46    1.20
  -3   0  -7   10.86    1.96
  -3  -1   9   48.69    4.31
  -3   1   9   37.51    3.69
   3   1  -9   49.46    4.24
   3  -1  -9   49.02    4.14
  -3   1   8  155.90    9.42
  -3  -1   8  169.53   10.05
   3  -1  -8  180.13   10.53
   3   1  -8  185.37   10.73
   3  -1  -8  137.84    7.91
   3   1  -8  182.29   10.24
  -3   1   7  115.54    6.21
  -3  -1   7  110.83    6.00
   3  -1  -7  104.45    5.63
   3   1  -7  118.11    6.14
   3  -1  -7   96.01    4.79
   3   1  -7  107.76    5.30
  -3   1   6  356.54   12.77
  -3  -1   6  322.71   11.72
   3  -1  -6  355.33   12.62
   3  -1  -6  316.37   10.83
   3   1  -6  324.64   11.07
  -3  -1   5  646.35   17.79
  -3   1   5  655.00   17.94
   3  -1  -5  695.31   18.91
   3   1  -5  704.18   19.04
   3  -1  -5  570.86   15.03
   3   1  -5  573.87   15.10
   3  -1  -5  642.16   16.91
   3   1  -5  637.10   16.72
  -3   1   4  328.23    9.89
  -3  -1   4  289.51    8.88
   3  -1  -4  320.62    9.70
   3   1  -4  358.45   10.65
   3  -1  -4  285.06    8.07
   3   1  -4  296.39    8.35
   3  -1  -4  276.36    7.84
   3   1  -4  291.12    8.19
  -3   1   3  211.09    4.69
  -3  -1   3  209.20    4.78
   3  -1  -3  208.55    4.65
   3   1  -3  227.43    4.90
  -3   1   2 3234.43   43.36
   3  -1  -2 3089.41   41.41
   3  -1  -2 3411.42   45.77
   3   1  -2 3357.60   44.82
  -3   1   1  145.86    2.90
  -3  -1   1  158.26    3.25
   3  -1  -1  142.50    2.79
   3  -1  -1  159.11    3.23
   3   1  -1  141.28    2.73
  -3   1   1  134.26    2.64
  -3  -1   1  161.40    2.87
  -3  -1   1  155.28    2.41
  -3   1   1  148.67    2.41
  -3  -1   1  151.31    2.46
  -3   1   0  434.64    6.97
  -3  -1   0  452.70    7.23
  -3   1   0  425.13    6.63
   3  -1   0  476.64    7.61
   3   1   0  437.15    6.64
  -3   1   0  425.24    6.51
  -3  -1   0  459.05    6.68
  -3  -1   0  444.52    6.53
  -3   1   0  436.59    6.71
  -3  -1   0  468.90    6.98
   3  -1   1  609.28   11.78
   3   1   1  619.86   12.97
  -3   1  -1  606.04   11.20
  -3   1  -1  553.55   10.24
  -3  -1  -1  558.14   10.08
   3  -1   1  637.81   11.78
   3  -1   2  247.01    5.41
   3   1   2  247.92    5.52
  -3  -1  -2  226.54    4.90
  -3  -1  -2  227.64    4.47
  -3   1  -2  238.80    4.87
   3  -1   2  248.02    5.35
   3   1   3  125.74    4.99
   3  -1   3  137.22    4.98
  -3  -1  -3  136.72    4.34
  -3   1  -3  138.15    4.53
   3  -1   4   20.68    3.23
   3   1   4   19.11    2.85
  -3  -1  -4   13.51    0.90
  -3   1  -4   16.90    1.11
   3  -1   5  245.38   12.10
   3   1   5  238.74   10.97
  -3  -1  -5  265.65   11.58
  -3   1  -5  252.39   11.07
   3   1   6   23.14    5.57
   3  -1   6   29.68    5.10
  -3  -1  -6   30.43    2.22
  -3   1  -6   36.44    2.63
  -3  -1  -6   33.59    2.86
   3   1   7   42.89    8.57
   3  -1   7   35.76    9.67
  -3  -1  -7   40.24    4.41
  -3   1  -7   50.67    3.75
  -3  -1  -7   45.05    3.87
  -3   2   9    8.77    1.75
  -3  -2   9    4.85    1.54
   3  -2  -9    8.13    1.61
   3   2  -9   15.64    1.99
  -3   2   8   32.04    2.91
  -3  -2   8   32.67    2.90
   3  -2  -8   29.12    2.62
   3   2  -8   32.31    2.65
   3  -2  -8   27.03    2.18
   3   2  -8   23.76    1.85
  -3   2   7  280.41   13.32
  -3  -2   7  264.94   12.69
   3  -2  -7  293.47   13.77
   3   2  -7  307.90   14.41
   3  -2  -7  281.86   12.93
  -3   2   6   27.79    1.95
  -3  -2   6   20.69    1.77
   3  -2  -6   29.28    2.09
   3   2  -6   24.82    1.84
   3  -2  -6   26.48    1.53
  -3   2   5  375.17   10.78
  -3  -2   5  371.41   10.80
   3  -2  -5  440.90   12.46
   3   2  -5  396.53   11.24
   3  -2  -5  327.31    9.11
   3   2  -5  311.66    8.49
   3  -2  -5  347.81    9.46
  -3   2   4  336.68   10.09
  -3  -2   4  333.03   10.09
   3   2  -4  384.11   11.30
   3  -2  -4  320.55    9.04
   3   2  -4  320.31    9.06
   3  -2  -4  331.96    9.42
  -3   2   3  228.39    4.92
  -3  -2   3  248.89    5.57
   3  -2  -3  248.58    5.39
   3   2  -3  231.65    4.96
  -3  -2   3  238.38    4.25
   3  -2  -3  239.97    4.28
   3  -2  -3  244.79    4.41
   3   2  -3  234.75    4.21
  -3   2   2  241.75    4.27
  -3  -2   2  262.53    4.93
   3  -2  -2  252.75    4.37
   3  -2  -2  257.86    4.72
   3   2  -2  269.64    4.60
  -3  -2   2  243.65    4.06
   3  -2  -2  255.59    3.60
  -3  -2   2  252.70    3.49
  -3   2   2  246.72    3.47
  -3   2   1  727.26   10.50
   3  -2  -1  636.44    9.23
   3  -2  -1  728.75   11.12
   3   2  -1  683.89    9.76
  -3  -2   1  659.10    9.21
  -3  -2   1  690.77    9.45
   3  -2  -1  687.33    9.54
  -3   2   1  641.11    8.95
  -3  -2   1  690.55    9.63
  -3   2   0  423.20    6.54
  -3   2   0  440.24    6.71
  -3  -2   0  435.66    7.09
   3  -2   0  465.40    7.53
   3   2   0  438.69    6.66
  -3   2   0  407.04    6.50
  -3  -2   0  460.91    6.59
  -3  -2   0  442.53    6.54
   3  -2   0  464.61    6.93
  -3   2   0  428.94    6.47
  -3  -2   0  452.00    6.83
   3   2   1  339.30    7.03
   3  -2   1  346.67    7.33
  -3   2  -1  332.40    6.45
  -3  -2  -1  313.06    5.83
  -3  -2  -1  344.96    6.28
   3  -2   1  330.61    6.51
  -3  -2  -1  335.14    6.67
   3   2   2  453.66   13.95
   3  -2   2  479.60    9.29
  -3  -2  -2  444.15    8.22
  -3  -2  -2  497.85   13.87
  -3   2  -2  439.83   12.60
   3  -2   2  485.72   14.12
  -3  -2  -2  499.84   14.51
   3   2   3    9.82    1.91
   3  -2   3   10.16    1.90
  -3  -2  -3    5.95    0.55
  -3  -2  -3    8.47    0.66
  -3   2  -3    6.31    0.65
   3  -2   3    9.18    2.17
  -3  -2  -3    8.04    0.92
   3   2   4  560.70   16.03
   3  -2   4  579.46   14.58
  -3  -2  -4  594.27   14.05
  -3   2  -4  574.39   13.86
  -3  -2  -4  590.68   14.93
   3   2   5  266.89   12.20
   3  -2   5  277.93   12.53
  -3  -2  -5  287.84   12.45
  -3   2  -5  284.52   12.54
  -3  -2  -5  288.16   13.09
   3   2   6   54.70    7.33
   3  -2   6   57.54    4.20
  -3  -2  -6   51.80    3.37
  -3   2  -6   57.44    3.82
  -3  -2  -6   54.14    4.03
   3   2   7  122.09    8.75
   3  -2   7  121.55    8.54
  -3   2  -7  112.26    7.56
  -3  -2  -7  104.67    7.65
  -3   3   9   85.87    6.66
  -3  -3   9   85.09    6.64
   3  -3  -9   95.53    7.16
   3   3  -9   94.67    7.16
  -3   3   8  114.53    9.21
  -3  -3   8  127.82   10.21
   3  -3  -8  129.17   10.32
   3   3  -8  143.37   11.19
   3  -3  -8  103.96    8.12
  -3   3   7  217.71   10.67
  -3  -3   7  223.02   10.86
   3  -3  -7  225.60   10.94
   3  -3  -7  199.58    9.37
  -3   3   6  215.90    9.06
  -3  -3   6  234.31    9.79
   3  -3  -6  223.52    9.22
   3   3  -6  219.81    8.92
   3  -3  -6  219.14    8.65
  -3   3   5   17.77    1.29
  -3  -3   5   19.06    1.61
   3  -3  -5   15.92    1.30
   3   3  -5   20.65    1.36
   3  -3  -5   14.40    1.30
   3   3  -5   15.60    0.93
   3  -3  -5   14.74    0.92
  -3   3   4  675.80   19.27
  -3  -3   4  679.89   19.57
   3  -3  -4  681.00   19.51
   3   3  -4  707.24   19.98
  -3  -3   4  687.63   19.03
   3  -3  -4  666.19   18.57
   3   3  -4  661.32   18.38
   3  -3  -4  708.21   19.71
  -3   3   3  349.29    6.95
  -3  -3   3  348.37    7.28
   3   3  -3  339.59    6.72
  -3  -3   3  353.54    6.33
   3  -3  -3  345.06    6.29
   3   3  -3  333.91    6.07
  -3   3   2  308.55    5.04
   3  -3  -2  292.34    4.82
  -3  -3   2  295.46    4.61
   3  -3  -2  299.69    4.37
  -3  -3   2  280.94    4.13
  -3   3   2  307.30    4.53
   3   3  -2  296.24    4.31
  -3   3   1  737.24   10.49
  -3  -3   1  707.65   10.77
   3  -3  -1  686.12   10.97
   3   3  -1  711.40   10.01
  -3  -3   1  714.33    9.91
   3  -3  -1  699.97    9.83
  -3   3   1  680.98    9.62
  -3  -3   1  704.23    9.98
  -3   3   0  501.18    7.48
  -3   3   0  503.43    7.41
  -3  -3   0  501.64    8.11
   3  -3   0  528.65    9.01
   3   3   0  526.63    7.60
  -3  -3   0  538.46    7.44
   3  -3   0  514.72    7.95
  -3  -3   0  504.35    7.67
   3   3   1  482.99    9.48
   3  -3   1  497.66    9.62
  -3   3  -1  455.06    8.42
  -3  -3  -1  485.28    8.47
   3  -3   1  480.46    9.14
  -3  -3  -1  504.67    9.64
   3   3   2  379.67   12.13
   3  -3   2  413.34   12.05
  -3  -3  -2  368.66   10.39
  -3  -3  -2  457.30   12.69
  -3   3  -2  393.72   11.45
   3  -3   2  433.57   12.60
  -3  -3  -2  421.37   12.42
   3   3   3   26.95    4.33
   3  -3   3   29.97    4.59
  -3  -3  -3   22.21    1.09
  -3  -3  -3   27.40    1.15
  -3   3  -3   27.44    1.46
   3  -3   3   26.97    1.88
  -3  -3  -3   21.26    1.52
   3   3   4  209.33    7.96
   3  -3   4  190.06    7.12
  -3  -3  -4  214.19    7.35
  -3   3  -4  209.45    7.59
   3  -3   4  193.11    7.72
  -3  -3  -4  219.66    8.29
   3   3   5   35.04    5.46
   3  -3   5   31.09    4.01
  -3  -3  -5   30.35    1.75
  -3   3  -5   29.26    2.17
  -3  -3  -5   32.79    2.52
   3   3   6  148.13    9.76
   3  -3   6  150.38    9.29
  -3  -3  -6  168.19    9.91
  -3   3  -6  144.05    8.65
  -3  -3  -6  148.02    9.35
   3   3   7  107.44    7.76
   3  -3   7   99.74    7.13
  -3   3  -7  105.96    7.23
  -3  -3  -7  106.25    7.83
  -3   4   9   21.82    2.71
  -3  -4   9   34.89    3.46
   3  -4  -9   36.13    3.27
   3   4  -9   39.50    3.63
  -3   4   8   38.14    4.69
  -3  -4   8   38.86    4.81
   3  -4  -8   37.56    4.64
   3  -4  -8   29.85    3.59
  -3   4   7  362.17   16.86
  -3  -4   7  358.08   16.77
   3  -4  -7  401.44   18.54
   3   4  -7  371.77   17.04
   3  -4  -7  374.47   17.01
  -3   4   6   31.79    2.11
  -3  -4   6   24.48    2.13
   3  -4  -6   20.19    1.72
   3   4  -6   15.36    1.26
   3  -4  -6   21.55    1.41
  -3   4   5   18.57    1.35
  -3  -4   5   17.25    1.48
   3  -4  -5   18.89    1.46
   3   4  -5   15.34    1.22
  -3  -4   5   17.99    1.80
   3   4  -5   14.01    0.97
   3  -4  -5   16.83    1.03
  -3   4   4  189.37    6.20
  -3  -4   4  168.90    5.81
   3  -4  -4  169.21    5.77
   3   4  -4  177.47    5.75
  -3  -4   4  170.39    5.23
   3   4  -4  168.49    5.26
   3  -4  -4  173.88    5.44
  -3   4   3  176.68    3.98
  -3  -4   3  175.64    4.36
   3  -4  -3  176.61    4.31
  -3  -4   3  167.64    3.74
   3  -4  -3  165.16    3.42
   3   4  -3  167.79    3.42
  -3   4   3  164.79    3.28
  -3   4   2  584.17   10.57
  -3  -4   2  606.21   11.64
   3  -4  -2  556.00   10.12
   3  -4  -2  569.25   10.97
   3   4  -2  607.71   10.98
  -3  -4   2  546.58    9.79
   3  -4  -2  575.81   10.22
  -3  -4   2  544.38    9.71
  -3   4   2  557.08    9.96
   3   4  -2  538.62    9.57
  -3   4   1   34.22    1.00
  -3  -4   1   32.22    1.65
   3  -4  -1   37.48    4.86
   3   4  -1   35.95    1.04
  -3  -4   1   32.46    0.83
   3  -4  -1   31.10    1.20
  -3   4   1   35.94    1.14
  -3  -4   1   31.24    1.12
   3   4  -1   34.47    1.04
  -3   4   0  871.34   12.13
  -3   4   0  885.60   12.25
   3  -4   0  914.69   13.56
   3   4   0  891.95   12.08
  -3  -4   0  843.83   11.25
   3  -4   0  959.73   13.85
  -3   4   0  861.09   12.36
  -3  -4   0  899.59   12.96
   3   4   1  320.84    6.87
   3  -4   1  304.36    6.12
  -3   4  -1  289.36    5.55
  -3  -4  -1  295.06    5.11
  -3  -4  -1  283.92    4.90
   3  -4   1  292.84    5.93
  -3  -4  -1  292.53    6.14
   3   4   2   68.36    2.96
   3  -4   2   55.01    2.34
  -3   4  -2   52.20    1.98
  -3  -4  -2   49.96    1.66
  -3  -4  -2   55.61    1.70
  -3   4  -2   65.76    2.54
   3  -4   2   61.88    2.51
  -3  -4  -2   55.62    2.43
   3   4   3  466.25   13.22
   3  -4   3  456.83   12.85
  -3  -4  -3  433.97   11.51
  -3  -4  -3  419.47   11.00
  -3   4  -3  459.40   12.62
   3  -4   3  421.80   12.03
  -3  -4  -3  462.57   13.09
   3   4   4  821.17   27.83
   3  -4   4  790.27   27.16
  -3  -4  -4  819.62   26.78
  -3   4  -4  831.90   27.63
   3  -4   4  776.50   27.60
  -3  -4  -4  847.84   28.62
   3   4   5  241.04   11.39
   3  -4   5  244.96   11.33
  -3  -4  -5  264.59   11.64
  -3   4  -5  254.46   11.50
   3  -4   5  265.72   12.26
  -3  -4  -5  252.12   11.85
   3   4   6   31.37    5.52
   3  -4   6   26.99    4.85
  -3   4  -6   26.36    2.08
  -3  -4  -6   33.32    2.87
   3   4   7  126.74   10.12
   3  -4   7  105.05    9.05
  -3   4  -7  124.83    9.37
  -3  -4  -7  112.38    8.93
  -3   5   8   62.86    5.43
  -3  -5   8   62.64    5.50
   3  -5  -8   55.04    4.99
   3   5  -8   64.42    5.37
   3  -5  -8   45.32    5.27
  -3   5   7  113.62    6.89
   3  -5  -7  110.39    6.69
   3   5  -7  104.01    6.24
   3  -5  -7   91.35    5.43
  -3   5   6  108.08    5.01
  -3  -5   6   93.86    4.63
   3  -5  -6   98.98    4.76
   3   5  -6  107.61    4.92
  -3  -5   6   87.27    3.80
   3  -5  -6   87.28    3.96
  -3   5   5  349.13    9.17
  -3  -5   5  333.11    9.06
   3  -5  -5  364.95    9.70
   3   5  -5  394.62   10.09
  -3  -5   5  341.84    8.69
   3  -5  -5  341.93    8.66
  -3   5   4  267.41    8.37
   3  -5  -4  299.77    9.51
   3   5  -4  303.52    9.36
  -3  -5   4  307.02    9.55
   3   5  -4  251.37    7.68
   3  -5  -4  281.79    8.58
  -3   5   3  649.52   18.30
  -3  -5   3  666.60   19.18
   3  -5  -3  647.16   18.61
   3   5  -3  643.94   18.10
  -3  -5   3  634.07   17.64
   3  -5  -3  649.89   18.19
   3   5  -3  652.68   18.25
  -3   5   3  573.94   16.02
  -3   5   2  258.03    5.04
  -3  -5   2  263.06    5.92
   3  -5  -2  258.25    5.05
   3   5  -2  289.97    5.62
  -3  -5   2  253.28    4.90
   3  -5  -2  265.60    5.18
  -3  -5   2  257.01    5.05
  -3   5   2  250.86    4.97
   3   5  -2  245.86    4.81
  -3   5   1 4189.88   70.84
  -3  -5   1 4295.05  117.56
   3  -5  -1 4465.06  121.75
  -3   5   1 4170.99   70.92
  -3  -5   1 4400.97  120.13
   3   5  -1 3984.90   67.63
  -3   5   0   15.79    1.63
  -3   5   0   15.74    0.64
  -3  -5   0   13.89    1.13
   3  -5   0   14.27    2.03
   3   5   0   15.57    0.79
  -3  -5   0   11.87    0.34
   3  -5   0   14.06    0.80
  -3   5   0   11.78    0.73
  -3  -5   0   10.96    0.92
   3   5   0   13.66    0.76
   3  -5   1  149.69    3.70
  -3   5  -1  145.45    3.01
   3  -5   1  151.30    3.61
  -3  -5  -1  129.96    3.37
   3   5   2  387.75   11.70
   3  -5   2  381.00   11.11
  -3   5  -2  342.94    9.86
  -3  -5  -2  348.97    9.61
  -3  -5  -2  374.99   10.28
  -3   5  -2  362.07   10.73
   3  -5   2  353.59   10.86
  -3  -5  -2  401.60   11.99
   3   5   3  335.55   10.41
   3  -5   3  357.20   10.32
  -3  -5  -3  316.13    8.42
  -3  -5  -3  335.76    8.82
  -3   5  -3  343.98    9.78
   3  -5   3  357.23   11.06
  -3  -5  -3  357.60   10.51
   3   5   4  319.43   12.66
   3  -5   4  324.51   11.59
  -3   5  -4  331.93   11.60
   3  -5   4  310.97   11.05
  -3  -5  -4  324.54   11.86
   3   5   5   54.55    8.16
   3  -5   5   58.89    3.36
  -3  -5  -5   54.26    2.69
  -3   5  -5   56.89    3.30
   3  -5   5   65.14    4.12
  -3  -5  -5   59.42    3.73
   3   5   6   57.22    8.71
   3  -5   6   53.97    4.02
  -3   5  -6   69.62    4.44
  -3  -5  -6   53.75    3.99
   3   5   7    3.20    1.14
   3  -5   7    2.20    1.41
  -3   5  -7    5.36    1.14
  -3  -5  -7    6.58    1.69
  -3   6   8   61.91    4.94
  -3  -6   8   50.25    4.18
   3  -6  -8   57.16    4.56
   3   6  -8   63.10    4.81
  -3   6   7   23.56    2.20
   3  -6  -7   22.91    2.08
   3   6  -7   21.59    2.03
  -3  -6   7   21.54    3.57
   3  -6  -7   19.72    1.76
  -3   6   6  173.39    8.19
  -3  -6   6  184.95    8.81
   3  -6  -6  184.73    8.72
   3   6  -6  164.73    7.71
  -3  -6   6  157.45    7.18
   3  -6  -6  154.29    7.16
  -3   6   5  341.37    8.99
  -3  -6   5  359.23    9.71
   3  -6  -5  379.51   10.07
   3   6  -5  400.66   10.25
  -3  -6   5  356.26    9.02
   3  -6  -5  355.36    9.08
  -3   6   4  250.40    7.88
  -3  -6   4  276.89    8.98
   3  -6  -4  280.27    9.03
   3   6  -4  257.31    8.06
  -3  -6   4  277.82    8.44
   3   6  -4  226.94    7.08
   3  -6  -4  268.43    8.32
  -3   6   3  619.06   17.43
  -3  -6   3  698.82   20.11
   3  -6  -3  656.58   18.96
   3   6  -3  698.65   19.63
  -3  -6   3  650.87   18.22
   3  -6  -3  676.55   19.04
   3   6  -3  612.20   17.26
  -3   6   3  584.65   16.43
  -3   6   2  153.21    3.20
   3  -6  -2  148.66    3.14
  -3  -6   2  163.78    4.23
   3  -6  -2  163.24    4.18
   3   6  -2  166.76    3.47
  -3  -6   2  142.43    3.00
   3  -6  -2  160.80    3.57
  -3  -6   2  158.85    3.52
  -3   6   2  168.28    3.71
   3   6  -2  158.98    3.50
  -3   6   1  249.78    4.63
  -3   6   1  251.80    4.61
  -3  -6   1  203.33    4.90
   3  -6  -1  241.73    5.47
   3   6  -1  270.57    5.04
  -3  -6   1  233.15    4.35
   3  -6  -1  244.24    5.03
  -3   6   1  219.92    4.71
  -3  -6   1  231.76    4.97
   3   6  -1  230.70    4.75
  -3   6   0  562.43    9.74
  -3   6   0  564.29    9.79
  -3  -6   0  590.68   11.52
   3  -6   0  594.09   11.89
   3  -6   0  548.66   10.86
  -3  -6   0  552.24   10.59
   3   6   1   11.84    1.60
   3  -6   1    5.51    0.85
  -3   6  -1    7.39    0.47
   3  -6   1    6.08    1.08
  -3  -6  -1    6.68    0.89
   3   6   2  917.28   27.21
   3  -6   2  882.51   25.51
  -3   6  -2  798.48   23.01
  -3   6  -2  818.87   24.05
   3  -6   2  861.47   25.98
  -3  -6  -2  815.15   24.12
   3  -6   3   15.52    2.67
  -3  -6  -3   12.34    0.65
  -3  -6  -3   15.28    0.62
  -3   6  -3   11.53    1.13
   3  -6   3   20.78    3.73
  -3  -6  -3   12.89    1.39
   3  -6   4  200.13    8.13
  -3  -6  -4  174.93    6.70
  -3   6  -4  176.21    7.29
   3  -6   4  190.21    7.98
  -3  -6  -4  189.32    8.13
   3   6   5  316.59   15.56
   3  -6   5  340.65   15.69
  -3   6  -5  323.18   14.80
   3  -6   5  326.92   15.21
  -3  -6  -5  331.71   15.64
   3   6   6  141.16    9.14
   3  -6   6  167.54    9.68
  -3   6  -6  157.73    9.07
   3  -6   6  164.44    9.62
   3  -6   7   16.90    4.21
  -3   6  -7   27.78    2.44
  -3  -6  -7   26.72    2.94
  -3   7   8   44.40    3.89
  -3  -7   8   51.69    4.41
   3  -7  -8   49.88    4.13
   3   7  -8   59.37    4.67
  -3   7   7   40.95    3.14
  -3  -7   7   47.09    3.86
   3  -7  -7   50.53    3.72
   3   7  -7   41.90    3.12
  -3  -7   7   52.41    3.48
   3  -7  -7   54.60    3.79
  -3   7   6   97.64    5.01
  -3  -7   6   96.69    5.16
   3  -7  -6   93.83    4.93
   3   7  -6  112.24    5.53
  -3  -7   6   81.15    4.99
   3  -7  -6   81.22    4.19
  -3   7   5  468.86   16.09
   3  -7  -5  454.75   15.85
   3   7  -5  412.07   14.11
  -3  -7   5  425.51   14.95
   3  -7  -5  480.72   16.35
  -3   7   4   24.31    1.45
  -3  -7   4   22.84    1.59
   3  -7  -4   26.50    1.82
   3   7  -4   20.89    1.23
  -3  -7   4   24.03    1.51
   3  -7  -4   20.80    1.30
  -3   7   3  571.63   16.73
   3  -7  -3  523.70   15.35
  -3  -7   3  611.95   18.39
   3  -7  -3  580.74   17.65
   3   7  -3  581.47   16.99
  -3  -7   3  590.49   17.29
   3  -7  -3  556.89   16.44
   3   7  -3  505.90   14.97
  -3   7   2  503.09   14.04
   3  -7  -2  502.07   14.03
  -3  -7   2  537.24   15.72
   3  -7  -2  516.62   15.30
   3   7  -2  544.95   15.28
  -3  -7   2  504.46   14.15
   3  -7  -2  498.45   14.23
  -3  -7   2  477.89   13.67
  -3   7   2  476.52   13.66
   3   7  -2  497.27   14.19
  -3   7   1  197.74    3.61
  -3   7   1  202.88    3.65
  -3  -7   1  199.21    4.87
   3  -7  -1  206.66    4.96
   3   7  -1  214.90    4.08
  -3  -7   1  201.61    3.84
   3  -7  -1  213.22    4.63
  -3  -7   1  222.74    4.95
  -3  -7   0  325.39    9.99
   3  -7   0  322.19    9.89
   3  -7   0  300.39    8.89
  -3  -7   0  317.42    9.57
   3   7   1  445.70   13.22
   3  -7   1  436.91   12.11
  -3   7  -1  436.18   12.09
   3  -7   1  441.56   12.99
  -3  -7  -1  410.50   12.22
   3   7   2  236.95    8.70
   3  -7   2  233.30    7.08
  -3   7  -2  216.91    6.56
  -3   7  -2  241.54    7.80
   3  -7   2  235.58    7.83
  -3  -7  -2  243.06    8.06
   3   7   3  190.22    6.87
   3  -7   3  207.56    5.71
  -3  -7  -3  173.92    4.07
  -3  -7  -3  195.85    4.56
  -3   7  -3  186.79    5.52
   3  -7   3  191.85    5.61
  -3  -7  -3  194.48    5.96
   3   7   4   89.93    4.50
   3  -7   4   92.18    4.18
  -3  -7  -4   85.59    3.41
  -3   7  -4  101.16    4.60
   3  -7   4   94.97    4.48
  -3  -7  -4   91.69    4.66
   3  -7   5   73.45    4.63
  -3   7  -5   71.22    4.50
   3  -7   5   86.22    5.39
  -3  -7  -5   74.54    4.98
   3   7   6    8.33    2.27
   3  -7   6   12.04    1.96
   3  -7   6    7.31    3.17
  -3  -7  -6   13.30    2.29
   3   7   7   28.16    8.11
   3  -7   7   31.60    2.92
  -3   7  -7   34.53    2.93
  -3  -7  -7   28.09    3.03
  -3   8   8   39.29    4.70
  -3  -8   8   32.22    4.03
   3  -8  -8   36.01    4.28
   3   8  -8   32.99    3.93
  -3   8   7   15.72    1.69
  -3  -8   7   11.68    1.80
   3  -8  -7    9.10    1.22
   3   8  -7   19.25    1.89
  -3  -8   7    7.45    2.86
   3  -8  -7   12.73    1.54
  -3   8   6   87.10    4.57
  -3  -8   6  108.35    5.79
   3  -8  -6  112.59    5.99
   3   8  -6  100.29    5.04
  -3  -8   6   94.39    5.53
   3  -8  -6  111.70    5.59
  -3   8   5   64.55    3.23
  -3  -8   5   69.85    3.95
   3  -8  -5   69.23    3.80
   3   8  -5   70.21    3.30
  -3  -8   5   62.79    3.00
   3  -8  -5   57.61    2.92
  -3   8   4  399.55   10.01
  -3  -8   4  412.26   10.81
   3  -8  -4  402.31   10.62
   3   8  -4  380.10    9.47
  -3  -8   4  413.40   10.16
   3  -8  -4  366.83    9.35
  -3   8   3   75.84    2.72
   3  -8  -3   61.65    2.29
  -3  -8   3   78.83    3.36
   3  -8  -3   69.20    2.97
   3   8  -3   76.36    2.76
  -3  -8   3   77.76    2.91
   3  -8  -3   69.36    2.77
  -3   8   2  172.44    5.05
   3  -8  -2  155.74    4.60
   3  -8  -2  131.73    5.40
   3   8  -2  161.93    4.83
  -3  -8   2  140.98    4.32
   3  -8  -2  149.83    4.84
  -3  -8   2  138.57    4.55
  -3  -8   1  401.24   11.99
   3  -8  -1  383.61   12.35
   3   8  -1  394.14   10.99
  -3  -8   1  396.83   11.11
   3  -8  -1  410.46   11.96
  -3  -8   1  382.07   11.29
  -3  -8   0  457.37   13.58
   3  -8   0  487.77   14.14
  -3  -8   0  491.01   14.43
   3   8   1  381.24   12.48
  -3   8  -1  392.83   11.21
  -3   8  -1  381.42   10.89
   3  -8   1  448.22   13.59
  -3  -8  -1  421.83   13.06
   3   8   2   24.94    3.65
   3  -8   2   26.52    1.11
  -3   8  -2   19.53    0.90
  -3   8  -2   20.29    1.52
   3  -8   2   30.99    1.95
  -3  -8  -2   26.19    1.76
   3   8   3  531.64   18.45
   3  -8   3  587.63   19.70
  -3   8  -3  589.65   20.02
   3  -8   3  611.41   21.84
  -3  -8  -3  536.57   18.61
   3   8   4   41.60    6.58
   3  -8   4   44.53    2.57
  -3   8  -4   48.26    3.05
   3  -8   4   40.83    2.55
  -3  -8  -4   39.42    2.75
   3   8   5   61.95    4.30
   3  -8   5   73.39    4.61
  -3   8  -5   68.27    4.36
   3  -8   5   66.39    4.56
  -3  -8  -5   66.80    4.59
   3   8   6  184.96   12.85
   3  -8   6  199.07   13.46
  -3   8  -6  184.97   12.57
   3  -8   6  193.83   13.21
  -3  -8  -6  170.66   12.02
  -3   9   8   20.52    3.07
  -3  -9   8   16.90    2.65
   3  -9  -8   21.49    3.17
   3   9  -8   26.44    3.85
  -3   9   7   99.89    6.30
  -3  -9   7   90.61    5.75
   3  -9  -7   90.52    5.87
   3   9  -7  100.72    6.15
  -3  -9   7   88.57    5.28
   3  -9  -7   83.05    5.21
  -3   9   6   66.66    3.86
  -3  -9   6   64.34    3.96
   3  -9  -6   54.53    3.42
   3   9  -6   61.37    3.42
  -3  -9   6   51.99    3.65
   3  -9  -6   56.31    3.33
  -3   9   5  335.58   13.10
  -3  -9   5  344.02   13.74
   3  -9  -5  344.34   13.74
   3   9  -5  345.32   13.36
  -3  -9   5  354.05   13.76
   3  -9  -5  336.04   13.24
  -3   9   4  222.84    5.99
  -3  -9   4  217.72    6.47
   3  -9  -4  205.83    6.98
   3   9  -4  238.42    6.29
  -3  -9   4  219.44    5.92
   3  -9  -4  221.09    6.16
  -3   9   3  523.40   13.94
   3  -9  -3  473.73   12.66
  -3  -9   3  528.47   14.85
   3  -9  -3  518.16   14.60
   3   9  -3  529.69   14.15
  -3  -9   3  499.33   13.61
   3  -9  -3  510.54   14.05
  -3   9   2  332.28    9.70
  -3  -9   2  343.00   10.89
   3  -9  -2  303.39    8.86
   3  -9  -2  327.86   10.49
   3   9  -2  317.14    9.40
   3  -9  -2  315.59    9.78
  -3  -9   2  318.62    9.88
  -3  -9   1  357.12   11.21
   3  -9  -1  367.10   11.70
   3   9  -1  418.03   12.10
   3  -9  -1  366.88   11.23
  -3  -9   1  365.96   11.32
   3  -9   0    2.43    0.98
   3  -9   0    2.19    0.49
  -3  -9   0    3.05    0.68
   3   9   1  205.70    6.55
   3  -9   1  176.34    6.07
  -3  -9  -1  207.88    6.63
   3   9   2  456.41   12.06
   3  -9   2  436.76   10.22
  -3   9  -2  426.62    9.97
  -3   9  -2  461.10   11.85
   3  -9   2  453.89   11.49
  -3  -9  -2  493.72   12.84
   3   9   3  539.04   20.90
   3  -9   3  522.78   19.75
  -3   9  -3  502.62   19.32
   3  -9   3  516.67   20.52
  -3  -9  -3  462.05   18.08
   3   9   4   42.59    6.97
   3  -9   4   32.09    2.39
  -3   9  -4   35.90    2.47
   3  -9   4   37.28    5.65
  -3  -9  -4   35.64    2.66
   3   9   5   18.47    4.40
   3  -9   5   16.42    1.55
  -3   9  -5   21.45    1.93
   3  -9   5   20.59    5.31
  -3  -9  -5   19.94    2.20
   3   9   6    5.01    1.58
   3  -9   6    3.85    1.22
  -3   9  -6    2.80    1.04
  -3  10   8    8.96    1.54
  -3 -10   8   12.42    1.87
   3 -10  -8    8.22    1.45
   3  10  -8   10.73    1.53
  -3  10   7    5.65    1.43
  -3 -10   7    8.08    1.77
   3 -10  -7    8.69    1.86
  -3 -10   7    4.45    1.95
   3 -10  -7    6.58    1.31
  -3  10   6   73.66    4.70
  -3 -10   6   82.83    5.33
   3 -10  -6   65.35    4.42
   3  10  -6   80.12    4.90
  -3 -10   6   82.00    5.26
   3 -10  -6   78.54    4.99
  -3  10   5   47.92    2.79
  -3 -10   5   49.19    3.14
   3 -10  -5   48.27    3.07
   3  10  -5   48.97    2.82
  -3 -10   5   45.58    2.83
   3 -10  -5   42.26    2.58
  -3  10   4   67.01    2.90
  -3 -10   4   71.85    3.49
   3 -10  -4   65.23    6.39
   3  10  -4   70.26    2.97
  -3 -10   4   61.13    2.73
   3 -10  -4   60.65    3.05
  -3  10   3   18.98    1.03
   3 -10  -3   19.82    1.04
  -3 -10   3   23.25    1.75
   3 -10  -3   23.62    4.09
   3  10  -3   22.53    1.20
  -3 -10   3   17.17    1.21
   3 -10  -3   20.08    1.41
  -3  10   2  276.50    7.40
  -3 -10   2  306.85    9.15
   3 -10  -2  268.29    7.12
   3 -10  -2  297.32    9.20
   3  10  -2  291.41    7.93
   3 -10  -2  269.96    7.98
  -3 -10   2  285.94    8.36
  -3 -10   1   31.66    1.98
   3 -10  -1   30.73    3.40
   3  10  -1   27.53    1.08
   3 -10  -1   31.69    1.77
  -3 -10   1   37.83    1.97
   3  10   0    0.01    0.08
   3  10   1 1274.24   30.21
   3 -10   1 1223.95   32.35
  -3 -10  -1 1233.65   32.91
   3  10   2   79.50    6.16
   3 -10   2   76.25    2.72
  -3  10  -2   67.49    3.21
   3 -10   2   83.24    4.21
  -3 -10  -2   69.51    3.48
   3  10   3  323.52   13.07
   3 -10   3  304.73   11.83
  -3  10  -3  296.74   11.90
   3 -10   3  364.00   14.35
  -3 -10  -3  347.69   14.05
   3  10   4   41.13    7.54
   3 -10   4   50.94    2.83
  -3  10  -4   50.28    3.12
   3 -10   4   51.77    4.37
  -3 -10  -4   55.69    3.87
   3  10   5    6.98    2.94
   3 -10   5    2.03    0.75
  -3  10  -5    5.08    1.41
   3 -10   5    3.85    1.72
  -3 -10  -5    5.36    1.22
   3  10   6   30.89    6.85
  -3  10  -6   36.65    4.22
   3 -10   6   36.75    4.89
  -3 -10  -6   25.41    3.42
  -3  11   7  148.96   10.36
  -3 -11   7  176.12   12.21
   3 -11  -7  176.76   12.28
   3  11  -7  178.96   12.12
  -3 -11   7  160.61   10.93
   3 -11  -7  156.08   10.82
  -3  11   6   88.58    5.71
  -3 -11   6   88.47    5.89
   3 -11  -6   93.45    6.18
   3  11  -6   94.14    5.97
  -3 -11   6   79.51    5.72
   3 -11  -6   91.60    5.98
  -3  11   5    3.10    1.03
  -3 -11   5    4.55    1.40
   3 -11  -5    4.34    1.48
   3  11  -5    3.60    0.84
  -3 -11   5    1.41    1.23
   3 -11  -5    4.55    0.95
  -3  11   4  729.30   27.32
  -3 -11   4  654.03   25.06
   3 -11  -4  650.73   25.00
   3  11  -4  656.77   24.68
  -3 -11   4  609.30   23.09
   3 -11  -4  635.31   24.20
  -3  11   3  306.28   10.38
  -3 -11   3  306.65   11.11
   3 -11  -3  292.60   10.72
   3  11  -3  286.72    9.81
  -3 -11   3  284.25   10.07
   3 -11  -3  308.06   10.97
  -3  11   2   44.55    1.35
  -3 -11   2   47.88    2.38
   3 -11  -2   40.63    1.19
   3 -11  -2   51.84    7.07
   3  11  -2   43.29    1.56
   3 -11  -2   37.24    1.85
  -3 -11   2   39.42    1.97
  -3 -11   1  130.73    4.64
   3  11  -1  110.65    3.32
   3 -11  -1  125.52    4.96
   3  11  -1  129.13    3.65
   3 -11  -1  138.46    4.67
  -3 -11   1  125.17    4.43
  -3 -11   0  317.76    8.67
   3  11   0  270.54    6.27
   3  11   0  324.86    7.45
   3 -11   0  302.38    8.17
  -3 -11   0  292.28    8.21
  -3 -11  -1  246.51    7.19
   3 -11   1  273.38    7.56
  -3 -11  -1  262.16    7.71
   3  11   2  488.55   17.10
  -3  11  -2  501.91   17.35
   3 -11   2  481.10   16.66
  -3 -11  -2  479.74   16.93
   3  11   3  428.47   19.95
  -3  11  -3  440.40   19.28
   3 -11   3  417.28   19.33
  -3 -11  -3  415.95   18.56
   3  11   4   71.99    5.51
  -3  11  -4   69.16    4.44
   3 -11   4   88.44    5.49
  -3 -11  -4   73.34    4.95
   3  11   5   33.52    7.22
  -3  11  -5   38.05    4.53
   3 -11   5   32.13    3.92
  -3 -11  -5   33.78    4.32
  -3  11  -6    7.06    1.65
   3 -11   6    4.68    1.43
  -3 -11  -6    6.55    1.60
  -3  12   7   23.58    2.99
  -3 -12   7   21.36    2.92
   3 -12  -7   21.15    2.93
   3  12  -7   16.04    2.27
  -3 -12   7   11.64    2.78
   3 -12  -7   14.14    2.09
  -3  12   6  180.11   10.27
  -3 -12   6  189.24   11.01
   3 -12  -6  172.04   10.10
   3  12  -6  179.09   10.15
  -3 -12   6  176.52    9.92
   3 -12  -6  185.31   10.70
  -3  12   5   19.90    1.66
  -3 -12   5   25.61    2.16
   3 -12  -5   17.93    3.89
   3  12  -5   20.87    1.56
  -3 -12   5   15.21    4.01
   3 -12  -5   16.70    1.64
  -3  12   4  170.06    7.69
  -3 -12   4  144.95    7.08
   3 -12  -4  143.98    7.38
   3  12  -4  159.66    7.29
  -3 -12   4  151.22    7.06
   3 -12  -4  140.72    6.80
  -3  12   3  255.89    9.78
  -3 -12   3  271.58   11.02
   3 -12  -3  274.48   11.24
   3  12  -3  267.33   10.33
  -3 -12   3  264.96   10.59
   3 -12  -3  268.28   10.82
  -3  12   2   54.33    1.90
  -3 -12   2   71.01    3.52
   3 -12  -2   70.52    3.47
   3  12  -2   55.30    2.24
   3 -12  -2   57.01    2.87
  -3 -12   2   71.69    3.34
  -3 -12   1   82.10    3.46
   3  12  -1   66.81    2.51
   3 -12  -1   87.08    3.42
   3  12  -1   84.93    2.35
   3 -12  -1   99.31    3.51
  -3 -12   1   92.35    3.62
  -3 -12   0  186.87    5.82
   3 -12   0  200.98    6.20
   3  12   0  208.54    4.89
   3 -12   0  181.95    5.52
  -3 -12   0  195.05    6.11
  -3 -12  -1  653.98   22.35
   3 -12   1  721.88   24.37
  -3 -12  -1  673.23   23.11
   3  12   2  130.22    5.95
  -3  12  -2  129.43    5.82
   3 -12   2  131.24    6.23
  -3 -12  -2  122.96    5.81
   3  12   3  230.92   11.29
  -3  12  -3  221.95   10.35
   3 -12   3  233.52   10.91
  -3 -12  -3  239.27   11.53
   3  12   4  119.54    8.01
  -3  12  -4  123.50    7.70
   3 -12   4  137.94    8.62
  -3 -12  -4  122.57    8.01
   3  12   5   71.53    6.22
  -3  12  -5   91.63    6.68
   3 -12   5   80.06    6.20
  -3 -12  -5   91.03    6.96
   3  12   6   25.97    7.90
  -3  12  -6   31.52    2.82
   3 -12   6   34.96    4.93
  -3 -12  -6   36.82    3.50
  -3  13   7    7.25    1.46
  -3 -13   7   16.71    2.86
   3 -13  -7    4.79    1.52
   3  13  -7   11.92    1.90
  -3 -13   7    6.22    3.30
   3 -13  -7   12.89    2.29
  -3  13   6   63.44    5.26
  -3 -13   6   71.05    6.13
   3 -13  -6   50.53    8.48
   3  13  -6   58.15    4.81
  -3 -13   6   65.23    5.61
   3 -13  -6   67.28    5.70
  -3  13   5  314.55   17.19
  -3 -13   5  304.88   17.01
   3 -13  -5  265.45   15.40
   3  13  -5  295.37   16.12
  -3 -13   5  298.50   16.39
   3 -13  -5  303.83   16.84
  -3  13   4  425.43   18.53
  -3 -13   4  474.40   21.13
   3 -13  -4  438.80   20.38
   3  13  -4  430.66   18.83
  -3 -13   4  447.41   19.75
   3 -13  -4  451.82   20.10
  -3  13   3   85.17    3.98
  -3 -13   3   84.46    4.52
   3 -13  -3   83.22    4.90
   3  13  -3   87.75    4.16
  -3 -13   3   85.10    4.40
   3 -13  -3   82.24    4.43
  -3 -13   2  350.69   13.96
   3 -13  -2  332.24   13.38
   3  13  -2  347.55   13.15
   3 -13  -2  319.78   12.74
  -3 -13   2  330.04   13.11
  -3 -13   1  147.00    6.00
   3 -13  -1  150.81    6.18
   3  13  -1  141.74    4.92
   3 -13  -1  151.46    6.03
  -3 -13   1  144.33    5.90
  -3 -13   0  577.47   22.26
   3  13   0  557.86   20.54
   3 -13   0  596.64   22.84
  -3 -13   0  545.62   21.16
  -3 -13  -1   43.66    2.69
   3 -13   1   39.04    2.36
  -3 -13  -1   48.15    3.20
   3  13   2  173.29    8.44
  -3  13  -2  147.16    7.23
   3 -13   2  165.59    7.96
  -3 -13  -2  159.10    8.08
   3  13   3   17.47    3.58
  -3  13  -3   12.98    1.58
   3 -13   3   12.46    2.21
  -3 -13  -3   13.99    1.88
   3  13   4    5.57    2.26
  -3  13  -4    7.19    1.20
   3 -13   4    5.91    1.47
  -3 -13  -4    5.11    1.33
   3  13   5   17.67    8.11
  -3  13  -5   22.79    3.01
   3 -13   5   13.07    5.41
  -3 -13  -5   24.14    3.34
  -3 -14   7    2.50    1.43
   3 -14  -7    4.43    1.68
   3  14  -7    3.04    1.12
  -3 -14   7    4.70    1.21
   3 -14  -7    6.02    1.56
  -3  14   6   97.45    6.91
  -3 -14   6   91.94    6.80
   3 -14  -6   93.70    6.96
   3  14  -6   92.58    6.55
  -3 -14   6   86.59    6.72
   3 -14  -6   96.50    7.01
  -3  14   5   23.43    1.97
  -3 -14   5   21.24    2.11
   3 -14  -5   21.35    4.88
   3  14  -5   24.19    2.03
  -3 -14   5   27.43    2.36
   3 -14  -5   21.18    2.19
  -3 -14   4    8.06    1.60
   3 -14  -4    7.52    1.72
   3  14  -4    5.91    0.89
  -3 -14   4    5.29    0.97
   3 -14  -4    4.45    1.05
  -3 -14   3   63.35    3.69
   3 -14  -3   61.26    3.69
   3  14  -3   59.84    3.09
  -3 -14   3   66.02    3.77
   3 -14  -3   76.67    4.40
  -3 -14   2   52.21    3.16
   3 -14  -2   40.28    2.99
   3  14  -2   49.82    2.52
   3 -14  -2   42.86    2.76
  -3 -14   2   44.34    2.96
  -3 -14   1   53.51    3.21
   3 -14  -1   53.81    5.28
   3  14  -1   49.23    2.35
   3 -14  -1   43.93    2.80
  -3 -14   1   52.25    3.32
  -3 -14   0   31.83    2.25
   3 -14   0   43.41    2.87
  -3 -14   0   38.88    2.68
  -3 -14  -1   22.65    2.09
   3 -14   1   27.97    2.12
  -3 -14  -1   25.95    2.18
   3  14   2  190.21    9.42
  -3  14  -2  192.64    9.45
   3 -14   2  192.04    9.41
  -3 -14  -2  195.40    9.84
   3  14   3  150.31   10.73
  -3  14  -3  170.93   10.42
   3 -14   3  146.03    9.02
  -3 -14  -3  154.13    9.77
   3  14   4   62.50    5.47
  -3  14  -4   67.32    5.60
   3 -14   4   54.35   10.73
  -3 -14  -4   57.27    5.16
   3  14   5  127.73   10.84
  -3  14  -5  133.43   10.17
   3 -14   5  136.16   10.41
  -3 -14  -5  135.17   10.66
  -3 -15   6   58.68    4.59
   3 -15  -6   47.25   10.97
   3  15  -6   52.86    3.95
  -3 -15   6   55.75    4.19
   3 -15  -6   56.19    4.52
  -3 -15   5  226.47   17.26
   3 -15  -5  227.03   17.95
   3  15  -5  282.90   21.15
  -3 -15   5  262.03   19.71
   3 -15  -5  227.15   17.36
  -3 -15   4   84.77    5.64
   3 -15  -4   83.23    5.62
   3  15  -4   91.57    5.66
  -3 -15   4   87.51    5.64
   3 -15  -4   82.27    5.59
  -3 -15   3  134.77    6.98
   3 -15  -3  155.91    8.45
   3  15  -3  159.87    7.53
  -3 -15   3  147.99    7.43
   3 -15  -3  151.74    7.67
  -3 -15   2  413.31   18.57
   3 -15  -2  351.19   17.25
   3  15  -2  397.45   17.22
   3 -15  -2  384.99   17.30
  -3 -15   2  384.15   17.32
  -3 -15   1   85.49    4.72
   3 -15  -1   83.09    4.67
   3  15  -1   72.77    3.39
   3 -15  -1   85.21    4.66
  -3 -15   1   85.05    4.75
  -3 -15   0   59.75    3.54
   3 -15   0   58.58    3.46
  -3 -15   0   38.24    2.75
  -3 -15  -1  128.25    6.70
   3 -15   1  141.53    7.21
  -3 -15  -1  120.79    6.54
  -3  15  -2    3.63    1.27
   3 -15   2    2.93    1.47
  -3 -15  -2    3.71    1.20
   3  15   3    5.36    2.35
  -3  15  -3    8.18    1.36
   3 -15   3    7.19    1.42
  -3 -15  -3   16.23    2.10
   3  15   4  133.52    9.93
  -3  15  -4  128.48    8.79
   3 -15   4  126.40    8.95
  -3 -15  -4  123.55    8.92
  -3 -16   6   76.54    5.97
   3 -16  -6   61.09    4.92
   3  16  -6   51.25    3.96
  -3 -16   6   53.76    4.19
   3 -16  -6   50.65    4.25
  -3 -16   5   21.78    3.21
   3 -16  -5   16.95    5.39
   3  16  -5   24.92    3.41
  -3 -16   5   19.58    2.93
   3 -16  -5   19.54    2.96
  -3 -16   4   43.29    3.28
   3 -16  -4   40.97    3.34
   3  16  -4   49.16    3.23
  -3 -16   4   43.64    3.13
   3 -16  -4   36.18    3.02
  -3 -16   3  122.83    7.75
   3 -16  -3  106.68    7.01
   3  16  -3  122.31    7.32
  -3 -16   3   97.69    6.32
   3 -16  -3  129.31    8.20
  -3 -16   2  137.19    8.16
   3 -16  -2  142.66    8.50
   3  16  -2  137.73    7.63
  -3 -16   2  136.52    8.11
   3 -16  -2  127.29    7.65
  -3 -16   1   53.96    3.44
   3 -16  -1   44.94    3.18
   3 -16  -1   57.57    3.75
  -3 -16   1   55.16    3.55
  -3 -16   0   56.25    3.90
   3 -16   0   62.34    4.27
  -3 -16   0   57.46    4.17
  -3 -16  -1   57.04    4.10
   3 -16   1   47.19    3.35
  -3 -16  -1   57.11    4.11
  -3 -16  -2  191.85   11.12
  -3  16  -2  207.62   11.84
   3 -16   2  197.11   11.33
  -3 -16  -2  185.33   10.96
   3  16   3   34.25   10.38
  -3  16  -3   44.88    3.70
   3 -16   3   40.86    7.89
  -3 -16  -3   39.33    3.60
   3  16   4   39.04    4.81
  -3  16  -4   52.58    4.55
   3 -16   4   46.73    4.13
  -3 -16  -4   50.28    4.72
  -3 -17   5    2.76    1.05
   3 -17  -5    1.56    1.00
   3  17  -5    2.38    0.82
   3 -17  -5    6.30    1.71
  -3 -17   4   22.72    3.32
   3 -17  -4   15.50    4.78
   3  17  -4   21.97    3.04
  -3 -17   4   21.05    3.09
   3 -17  -4   23.16    3.54
  -3 -17   3   16.40    1.99
   3 -17  -3   10.45    4.52
   3  17  -3   14.04    1.22
  -3 -17   3   17.33    1.84
   3 -17  -3   13.98    1.67
  -3 -17   2   63.62    4.60
   3 -17  -2   64.36    4.79
  -3 -17   2   57.77    4.33
   3 -17  -2   60.34    4.39
  -3 -17   1  142.06    8.86
   3 -17  -1  150.95    9.45
  -3 -17   1  145.64    9.19
  -3 -17   0   19.21    2.10
   3 -17   0   22.39    2.21
  -3 -17   0   20.77    2.48
  -3 -17  -1  180.21   10.50
   3 -17   1  208.95   12.07
  -3 -17  -1  175.74   10.41
  -3 -17  -2  125.40    9.98
   3 -17   2  118.16    9.39
  -3 -17  -2  126.47   10.40
   3  17   3    8.15    1.91
  -3  17  -3    6.25    1.44
  -3 -17  -3    8.60    1.59
   3  17   4   46.67    4.08
  -3  17  -4   43.31    3.86
   3 -17   4   33.44    9.97
  -3 -17  -4   38.35    3.90
  -3 -18   5   85.50    6.52
   3 -18  -5  103.69    7.67
   3  18  -5   91.02    6.50
  -3 -18   5   88.69    6.52
   3 -18  -5   99.72    7.54
  -3 -18   4   24.58    3.17
   3 -18  -4   13.47    6.41
   3  18  -4   19.61    2.42
  -3 -18   4   23.06    2.92
   3 -18  -4   22.24    3.08
  -3 -18   3   46.68    3.85
   3 -18  -3   33.32    8.76
  -3 -18   3   46.59    3.86
   3 -18  -3   42.25    3.66
  -3 -18   2   92.76    7.52
   3 -18  -2  105.00    8.49
   3 -18  -2   75.10    6.25
  -3 -18   2   91.94    7.57
  -3 -18   1   31.03    3.87
   3 -18  -1   22.64    3.11
  -3 -18   1   18.47    2.65
  -3 -18   0   32.08    4.05
   3 -18   0   25.99    3.32
  -3 -18   0   27.36    3.78
  -3 -18  -1  111.77    8.95
   3 -18   1  117.67    9.48
  -3 -18  -1  109.78    9.05
  -3 -18  -2   73.55    5.52
  -3  18  -2   62.81    4.85
   3 -18   2   78.89    5.80
  -3 -18  -2   82.33    6.42
  -3 -18  -3   68.63    5.71
   3 -18   3   73.94    5.72
  -3 -18  -3   56.06    4.87
  -3 -19   4   68.87    5.35
   3 -19  -4   57.68    7.67
  -3 -19   4   75.00    5.83
   3 -19  -4   70.92    5.58
  -3 -19   3   34.47    4.12
   3 -19  -3   23.13    7.57
  -3 -19   3   27.81    3.53
   3 -19  -3   35.33    4.32
   3 -19  -2   72.39    5.64
   3 -19  -2   59.84    4.70
  -3 -19   2   49.79    4.02
   3 -19  -1  112.96    8.26
  -3 -19   1  105.21    7.74
  -3 -19   0  157.36   10.98
   3 -19   0  168.74   11.75
  -3 -19   0  162.86   11.60
  -3 -19  -1   18.81    2.69
  -3  19  -1   19.16    2.63
   3 -19   1   15.35    2.31
  -3 -19  -1   10.83    2.01
  -3 -19  -2   21.98    3.29
   3 -19   2   23.75    3.49
  -3 -19  -2   30.19    3.27
  -3 -20   3   89.28    6.71
   3 -20  -3   85.17    7.79
  -3 -20   3   84.74    6.47
   3 -20  -3   78.12    6.19
  -3 -20   2   31.50    3.12
   3 -20  -2   24.28    3.57
  -3 -20   2   26.07    3.84
  -3 -20   1   50.41    4.40
   3 -20  -1   42.48    3.93
  -3 -20   1   41.12    4.04
  -3 -20   0   77.92    6.39
   3 -20   0   81.80    6.67
  -3 -20   0   85.09    7.07
  -3 -20  -1    0.16    0.88
  -3  20  -1    3.52    1.44
   3 -20   1    1.44    1.01
  -3 -20  -1    2.22    1.25
  -4   0   8  129.68    9.30
   4   0  -8  139.47    9.85
  -4   0   7   17.42    2.02
   4   0  -7   22.10    2.15
  -4   0   6  149.75    7.29
   4   0  -6  186.56    8.71
  -4   0   5   73.74    3.51
   4   0  -5   63.72    3.05
   4   0  -5   63.13    2.15
  -4   0   4  153.50    5.04
   4   0  -4  166.46    5.34
  -4   0   3  202.90    6.47
   4   0  -3  208.89    6.56
  -4   0   2  140.57    4.70
   4   0  -2  144.19    4.71
  -4   0   1  281.59    8.48
   4   0  -1  301.42    9.30
  -4   0   1  292.00    8.29
  -4   0   1  312.99    8.87
  -4   0   0  255.59    7.85
   4   0   0  247.37    7.55
  -4   0   0  224.36    6.59
   4   0   1  455.29   14.16
   4   0   2   21.41    3.54
  -4   0  -2   20.58    1.06
   4   0   3   85.58    3.80
  -4   0  -3   84.44    3.31
   4   0   4  528.68   24.09
  -4   0  -4  609.95   25.86
   4   0   5   55.64    3.99
  -4   0  -5   63.26    4.02
   4   0   6   47.84    3.98
  -4   0  -6   53.77    4.44
  -4   1   8    4.71    1.45
  -4  -1   8    5.28    1.49
   4  -1  -8    6.71    1.61
   4   1  -8    8.85    1.80
  -4   1   7  197.16   11.34
  -4  -1   7  191.22   11.12
   4   1  -7  204.38   11.65
  -4   1   6  278.02   12.61
  -4  -1   6  251.91   11.56
   4  -1  -6  260.91   11.83
   4   1  -6  306.70   13.76
  -4   1   4  463.66   12.94
  -4  -1   4  472.78   13.26
   4  -1  -4  462.39   12.92
   4   1  -4  496.95   13.73
  -4   1   3  345.76   10.31
  -4  -1   3  363.21   10.94
   4  -1  -3  370.99   11.06
   4   1  -3  364.76   10.76
  -4   1   2   58.02    2.33
  -4  -1   2   58.84    2.51
   4  -1  -2   65.61    2.62
   4   1  -2   58.34    2.32
  -4   1   1  284.06    8.50
  -4  -1   1  286.85    8.70
   4  -1  -1  279.78    8.50
   4   1  -1  293.96    8.82
  -4  -1   1  280.45    7.94
  -4   1   1  274.03    7.80
  -4  -1   1  278.83    7.96
  -4  -1   0  304.62    9.23
  -4   1   0  315.91    9.36
   4  -1   0  322.49    9.80
   4   1   0  322.44    9.98
  -4  -1   0  296.61    8.54
  -4  -1   0  288.46    8.42
  -4   1   0  297.62    8.99
  -4  -1   0  311.81    9.10
   4  -1   1    9.00    1.47
   4   1   1    9.47    1.71
  -4  -1  -1    9.30    0.67
  -4  -1  -1   13.28    0.96
   4  -1   2  126.70    4.76
   4   1   2  128.57    5.92
  -4  -1  -2  119.70    3.60
  -4   1  -2  116.40    3.66
   4  -1   3  335.97   13.19
   4   1   3  338.64   13.10
  -4  -1  -3  328.16   11.05
  -4   1  -3  333.78   11.40
   4  -1   4   42.61    2.70
   4   1   4   45.84    7.21
  -4  -1  -4   47.71    2.53
  -4   1  -4   46.02    2.46
   4   1   5   79.06   11.53
   4  -1   5   74.65    8.92
  -4  -1  -5   79.79    4.90
  -4   1  -5   75.19    4.71
  -4  -1  -5   83.49    5.65
   4  -1   6    9.95    3.12
   4   1   6    9.88    4.80
  -4   1  -6   12.08    1.78
  -4  -1  -6   13.04    2.32
  -4   2   8   25.92    3.77
  -4  -2   8   35.05    4.93
   4  -2  -8   17.31    2.72
   4   2  -8   40.41    3.50
  -4   2   7   71.50    4.66
  -4  -2   7   71.61    4.98
   4  -2  -7   77.23    4.96
   4   2  -7   81.79    5.19
  -4   2   6   64.47    3.69
  -4  -2   6   73.51    4.32
   4  -2  -6   62.59    3.55
   4   2  -6   66.46    3.80
  -4   2   5   66.43    3.17
  -4  -2   5   62.98    3.17
   4  -2  -5   57.70    2.83
   4   2  -5   69.89    3.30
   4  -2  -5   60.35    2.18
   4   2  -5   58.73    2.08
  -4   2   4   66.29    2.67
  -4  -2   4   66.56    2.95
   4  -2  -4   63.64    2.70
   4   2  -4   67.79    2.82
  -4   2   3  220.22    7.04
  -4  -2   3  203.57    6.76
   4  -2  -3  214.52    7.04
   4   2  -3  210.20    6.73
  -4   2   2   68.47    2.64
  -4  -2   2   71.49    3.03
   4  -2  -2   60.83    2.56
   4   2  -2   67.27    2.60
  -4  -2   2   62.81    1.82
  -4  -2   2   64.77    1.88
  -4   2   2   64.20    1.90
  -4   2   1  378.51   11.01
  -4  -2   1  359.60   10.76
   4  -2  -1  338.56   11.00
   4   2  -1  366.79   10.74
  -4  -2   1  363.25   10.33
   4  -2  -1  372.60   10.59
  -4  -2   1  327.01    9.20
  -4   2   1  372.41   10.52
  -4  -2   1  348.74    9.90
  -4   2   0  756.80   21.26
  -4  -2   0  741.23   21.12
   4  -2   0  690.15   19.75
   4   2   0  753.66   21.30
  -4  -2   0  770.20   21.34
   4  -2   0  810.73   22.65
  -4  -2   0  663.08   18.67
  -4   2   0  724.65   20.26
  -4  -2   0  765.19   21.43
   4   2   1    6.48    1.46
   4  -2   1    7.01    0.76
  -4  -2  -1    5.97    0.53
   4  -2   1    8.18    1.37
  -4  -2  -1    7.09    0.74
   4  -2   2  373.62   10.58
   4   2   2  342.40   10.60
  -4  -2  -2  295.44    8.07
  -4  -2  -2  338.79    9.08
  -4   2  -2  337.76    9.39
  -4  -2  -2  339.17    9.77
   4  -2   3  137.69    6.05
   4   2   3  144.76    6.67
  -4  -2  -3  140.69    4.98
  -4   2  -3  133.93    5.01
  -4  -2  -3  144.56    5.79
   4  -2   4   25.90    4.28
   4   2   4   19.99    3.13
  -4  -2  -4   21.86    1.34
  -4   2  -4   21.32    1.48
  -4  -2  -4   20.20    1.92
   4   2   5   78.37    5.34
   4  -2   5   78.53    5.98
  -4   2  -5   73.64    4.69
  -4  -2  -5   80.39    5.44
   4   2   6   80.47    6.00
   4  -2   6   72.46    5.36
  -4   2  -6   70.20    4.89
  -4  -2  -6   85.66    6.40
  -4   3   8   23.83    3.64
  -4  -3   8   24.02    3.58
   4  -3  -8   21.54    3.23
   4   3  -8   19.44    2.99
  -4   3   7   73.41    4.77
  -4  -3   7   74.61    4.94
   4  -3  -7   73.99    4.87
   4   3  -7   86.03    5.53
  -4   3   6  111.24    5.73
  -4  -3   6  107.94    5.63
   4  -3  -6  114.32    5.74
   4   3  -6  133.79    6.52
  -4   3   5  141.89    5.64
  -4  -3   5  137.31    5.62
   4  -3  -5  144.72    5.79
   4   3  -5  145.61    5.68
   4  -3  -5  129.21    4.47
   4   3  -5  134.80    4.57
  -4   3   4   62.43    2.64
  -4  -3   4   36.16    2.15
   4  -3  -4   43.03    2.15
   4   3  -4   49.95    2.25
   4  -3  -4   44.43    1.21
  -4   3   3  150.64    5.03
  -4  -3   3  154.24    5.45
   4  -3  -3  152.26    5.36
   4   3  -3  168.10    5.50
  -4   3   2  652.26   18.42
  -4  -3   2  677.76   19.51
   4  -3  -2  674.63   19.45
   4   3  -2  659.49   18.57
  -4  -3   2  612.54   16.83
   4  -3  -2  676.64   18.64
  -4  -3   2  637.82   17.58
  -4   3   2  679.66   18.74
  -4   3   1   96.67    3.43
  -4   3   1  109.18    3.60
  -4  -3   1  111.10    3.98
   4  -3  -1  110.57    5.00
   4   3  -1  104.64    3.53
  -4  -3   1  110.03    3.35
  -4  -3   1  106.19    3.22
   4  -3  -1  125.22    3.89
  -4   3   1  104.14    3.30
  -4  -3   1  122.04    3.82
  -4   3   0  514.68   14.68
  -4   3   0  566.77   16.03
  -4  -3   0  555.13   16.17
   4   3   0  568.67   15.99
   4  -3   0  598.05   17.88
  -4  -3   0  595.59   16.53
   4  -3   0  587.53   16.73
  -4  -3   0  576.15   16.37
   4   3   1   98.33    4.16
   4  -3   1  100.68    3.52
  -4  -3  -1   96.64    3.04
  -4  -3  -1   86.79    2.75
   4  -3   1   99.40    3.48
  -4  -3  -1  102.84    3.80
   4  -3   2  678.46   18.78
   4   3   2  708.63   19.57
  -4  -3  -2  580.77   15.19
  -4  -3  -2  637.21   16.55
  -4   3  -2  647.45   17.40
   4  -3   2  721.89   19.45
  -4  -3  -2  667.25   18.22
   4  -3   3  321.21   11.32
   4   3   3  321.47   12.76
  -4   3  -3  333.79   11.53
   4  -3   3  338.46   11.91
  -4  -3  -3  322.46   11.59
   4   3   4  124.45    6.60
   4  -3   4  126.88    6.27
  -4  -3  -4  117.86    5.33
  -4   3  -4  123.67    5.89
  -4  -3  -4  125.79    6.43
   4   3   5   50.57    3.80
   4  -3   5   56.52    4.22
  -4   3  -5   57.00    3.77
  -4  -3  -5   55.64    4.07
   4   3   6   28.77    8.97
   4  -3   6   23.38    7.24
  -4   3  -6   32.34    3.66
  -4  -3  -6   32.95    4.09
  -4  -4   8   10.83    2.18
   4  -4  -8   10.48    2.02
   4   4  -8    9.00    1.82
  -4   4   7   29.94    2.67
  -4  -4   7   33.53    2.90
   4  -4  -7   28.34    2.49
   4   4  -7   36.78    2.91
  -4   4   6   17.60    1.59
  -4  -4   6   14.28    1.69
   4  -4  -6   20.36    1.85
   4   4  -6   16.20    1.66
  -4   4   5   33.36    1.97
  -4  -4   5   42.96    2.72
   4   4  -5   42.49    2.27
   4  -4  -5   37.14    1.59
  -4   4   4  285.76    8.29
  -4  -4   4  316.10    9.43
   4  -4  -4  324.30    9.60
   4   4  -4  338.87    9.69
  -4  -4   4  293.00    7.70
   4  -4  -4  291.80    7.69
   4  -4  -4  291.95    7.73
   4   4  -4  298.40    7.85
  -4   4   3  119.35    4.14
  -4  -4   3  115.33    4.34
   4  -4  -3  128.27    4.69
   4   4  -3  118.80    4.13
  -4  -4   3  116.66    3.62
   4  -4  -3  114.20    3.46
   4   4  -3  115.67    3.45
  -4   4   3  116.33    3.50
  -4   4   2   60.01    2.24
  -4  -4   2   60.76    2.70
   4  -4  -2   64.08    3.09
   4   4  -2   64.50    2.32
   4  -4  -2   59.95    2.00
  -4  -4   2   65.01    2.14
  -4   4   2   56.16    1.91
  -4   4   1  217.53    6.44
  -4   4   1  259.75    7.64
  -4  -4   1  258.47    8.07
   4  -4  -1  267.02    8.29
   4   4  -1  247.29    7.27
  -4  -4   1  233.40    6.66
   4  -4  -1  250.72    7.29
  -4   4   1  241.30    7.11
  -4  -4   1  251.39    7.42
  -4   4   0  144.93    4.62
  -4   4   0  161.49    4.96
  -4  -4   0  149.71    5.15
   4   4   0  163.35    4.86
   4  -4   0  165.28    6.36
  -4  -4   0  162.61    4.66
  -4  -4   0  162.47    5.16
   4   4   1  602.35   18.18
  -4  -4  -1  610.02   17.41
  -4  -4  -1  580.49   16.57
   4  -4   1  598.98   17.92
  -4  -4  -1  567.85   17.00
   4   4   2   81.63    3.27
   4  -4   2   81.41    4.24
  -4  -4  -2   71.60    1.94
  -4  -4  -2   80.44    2.08
  -4   4  -2   74.36    2.70
   4  -4   2   73.67    2.88
  -4  -4  -2   77.59    3.02
   4   4   3  208.57    9.52
   4  -4   3  218.26    8.96
  -4  -4  -3  195.17    7.37
  -4   4  -3  225.63    9.01
   4  -4   3  210.38    8.60
  -4  -4  -3  223.45    9.30
   4   4   4  125.86    6.43
   4  -4   4  121.44    6.23
  -4   4  -4  119.85    5.76
   4  -4   4  135.43    6.67
  -4  -4  -4  122.90    6.34
   4   4   5  126.37    8.10
   4  -4   5  133.61    8.77
  -4   4  -5  137.82    8.32
  -4  -4  -5  128.03    8.19
   4   4   6   49.32   11.01
   4  -4   6   47.76    3.83
  -4   4  -6   52.09    3.91
  -4  -4  -6   46.74    3.98
  -4   5   8  135.30    9.39
  -4  -5   8  157.89   10.98
   4  -5  -8  140.51    9.65
   4   5  -8  156.12   10.53
  -4   5   7   68.88    4.93
  -4  -5   7   69.05    4.88
   4  -5  -7   65.97    4.59
   4   5  -7   71.84    4.89
  -4   5   6    7.43    1.28
  -4  -5   6    5.44    1.33
   4   5  -6    5.09    1.04
   4  -5  -6    4.81    0.65
  -4   5   5  268.71   10.74
  -4  -5   5  259.71   10.68
   4  -5  -5  275.44   11.21
   4   5  -5  292.43   11.54
  -4  -5   5  243.22    9.36
   4  -5  -5  244.00    9.35
  -4   5   4   24.02    1.35
  -4  -5   4   27.90    1.76
   4  -5  -4   28.01    1.88
   4   5  -4   24.80    1.40
  -4  -5   4   25.07    0.97
   4  -5  -4   28.26    1.10
   4   5  -4   22.08    0.93
  -4   5   3  678.38   18.04
  -4  -5   3  695.68   19.04
   4  -5  -3  671.35   20.15
   4   5  -3  749.24   19.87
   4  -5  -3  673.08   17.50
   4   5  -3  634.95   16.50
  -4   5   3  644.09   16.77
  -4   5   2  439.26   12.94
  -4  -5   2  466.39   14.35
   4  -5  -2  395.60   11.70
   4  -5  -2  463.52   14.23
   4   5  -2  448.65   13.22
   4  -5  -2  456.25   13.41
  -4  -5   2  453.46   13.27
  -4   5   2  443.82   13.01
   4   5  -2  410.83   11.96
  -4   5   1  130.14    4.18
  -4   5   1  143.11    4.52
  -4  -5   1  136.08    4.96
   4  -5  -1  133.53    5.76
   4   5  -1  142.17    4.42
  -4  -5   1  134.67    4.09
   4  -5  -1  135.45    4.39
  -4   5   1  137.26    4.52
  -4  -5   1  138.77    4.57
  -4   5   0  261.77    7.84
  -4   5   0  295.35    8.82
  -4  -5   0  289.36    9.32
   4   5   0  280.43    8.31
   4  -5   0  304.83    9.72
  -4  -5   0  288.92    8.30
   4  -5   0  295.31    9.19
  -4  -5   0  301.66    9.32
   4   5   1  300.51    8.96
  -4   5  -1  266.66    7.37
  -4   5  -1  282.07    7.81
   4  -5   1  271.33    8.31
  -4  -5  -1  291.55    8.53
   4   5   2  729.40   18.16
   4  -5   2  716.35   17.65
  -4  -5  -2  700.90   15.76
  -4   5  -2  727.29   17.58
   4  -5   2  711.94   17.48
  -4  -5  -2  665.13   16.49
   4   5   3   24.07    5.48
   4  -5   3   21.87    3.36
  -4   5  -3   21.39    1.51
   4  -5   3   28.43    4.68
  -4  -5  -3   17.94    1.60
   4   5   4   45.46    3.22
   4  -5   4   53.03    3.10
  -4   5  -4   42.67    2.56
   4  -5   4   38.54    2.75
  -4  -5  -4   50.26    3.35
   4   5   5   90.23    5.87
   4  -5   5   89.02    5.51
  -4   5  -5   88.96    5.33
  -4  -5  -5   82.03    5.36
   4   5   6   15.96    3.72
   4  -5   6   13.39    5.00
  -4   5  -6   22.70    2.76
  -4  -5  -6   17.79    2.75
  -4   6   8   12.44    2.05
  -4  -6   8   14.17    2.35
   4  -6  -8   18.44    2.71
   4   6  -8   18.19    2.49
  -4   6   7   23.42    2.25
  -4  -6   7   23.56    2.39
   4  -6  -7   20.57    2.02
   4   6  -7   19.10    1.97
  -4   6   6    8.03    1.12
  -4  -6   6    7.98    1.30
   4  -6  -6    5.37    0.98
   4   6  -6    7.33    1.06
   4  -6  -6    5.76    0.77
  -4   6   5   10.42    1.14
  -4  -6   5   12.76    1.59
   4  -6  -5    8.46    1.10
   4   6  -5   13.51    1.29
  -4  -6   5    8.88    0.65
   4  -6  -5    9.64    0.81
  -4   6   4   50.04    2.03
  -4  -6   4   45.33    2.31
   4  -6  -4   48.74    2.52
   4   6  -4   46.98    1.97
  -4  -6   4   46.88    1.64
   4  -6  -4   51.53    1.76
   4   6  -4   40.63    1.48
  -4   6   4   37.48    1.33
  -4   6   3   13.46    0.96
  -4  -6   3   10.99    1.31
   4  -6  -3   12.45    1.50
   4   6  -3   14.77    1.05
   4  -6  -3   12.14    0.75
  -4  -6   3   11.96    0.71
   4   6  -3    8.17    0.59
  -4   6   3    9.78    0.67
  -4   6   2  312.89    9.32
  -4  -6   2  304.91    9.82
   4  -6  -2  267.90    8.06
   4  -6  -2  313.92   10.05
   4   6  -2  319.43    9.57
   4  -6  -2  328.68    9.78
  -4  -6   2  303.31    9.15
  -4   6   2  287.63    8.72
   4   6  -2  297.03    8.86
  -4   6   1   29.49    1.25
  -4   6   1   33.09    1.32
  -4  -6   1   36.84    2.02
   4  -6  -1   32.16    4.98
   4   6  -1   37.78    1.45
  -4  -6   1   30.35    1.13
   4  -6  -1   29.96    1.37
  -4  -6   1   29.76    1.46
  -4   6   0  327.09    9.60
  -4   6   0  327.52    9.64
  -4  -6   0  315.92   10.13
   4  -6   0  316.26   10.84
  -4  -6   0  314.29    8.92
   4  -6   0  350.77   10.67
  -4  -6   0  333.65   10.35
   4   6   1   62.47    2.83
  -4   6  -1   63.49    2.10
  -4   6  -1   67.02    2.24
   4  -6   1   66.77    2.62
  -4  -6  -1   59.34    2.55
   4   6   2  618.07   21.44
   4  -6   2  614.45   20.55
  -4   6  -2  576.21   19.59
   4  -6   2  616.37   20.79
  -4  -6  -2  576.10   19.71
   4   6   3  192.04    8.46
   4  -6   3  199.43    8.10
  -4   6  -3  185.20    7.67
   4  -6   3  198.62    8.18
  -4  -6  -3  184.05    7.93
   4   6   4   68.54   10.76
   4  -6   4   71.43    3.84
  -4   6  -4   66.00    3.67
   4  -6   4   61.17    3.55
  -4  -6  -4   68.36    4.34
   4   6   5  166.60   10.09
   4  -6   5  154.38    9.83
  -4   6  -5  147.97    8.44
   4  -6   5  161.40    9.70
  -4  -6  -5  149.63    9.01
   4   6   6    8.23    3.49
   4  -6   6    8.48    2.57
  -4   6  -6   15.13    2.39
  -4  -6  -6   10.60    2.16
  -4   7   8   36.42    3.64
  -4  -7   8   30.32    3.20
   4  -7  -8   34.65    3.47
   4   7  -8   33.45    3.18
  -4   7   7   56.54    3.89
  -4  -7   7   63.11    4.44
   4  -7  -7   64.44    4.49
   4   7  -7   63.43    4.11
  -4   7   6  253.62   11.92
  -4  -7   6  246.54   11.85
   4  -7  -6  293.05   13.88
   4   7  -6  240.57   11.25
  -4   7   5  125.24    5.93
  -4  -7   5  129.94    6.47
   4  -7  -5  122.47    6.24
   4   7  -5  125.53    5.90
  -4  -7   5  127.75    5.71
   4  -7  -5  127.39    5.84
  -4   7   4  383.91   13.08
  -4  -7   4  390.08   13.82
   4  -7  -4  355.44   12.89
   4   7  -4  392.93   13.40
  -4  -7   4  407.13   13.70
   4  -7  -4  398.24   13.40
  -4   7   3  161.04    4.38
  -4  -7   3  141.06    4.72
   4   7  -3  154.60    4.32
  -4  -7   3  137.87    3.78
   4  -7  -3  145.04    3.98
  -4   7   3  130.22    3.64
   4   7  -3  133.84    3.67
  -4   7   2  381.81   10.19
  -4  -7   2  393.49   11.44
   4  -7  -2  364.59    9.76
   4  -7  -2  396.66   11.55
   4   7  -2  426.04   11.44
   4  -7  -2  382.48   10.39
  -4  -7   2  381.88   10.48
   4   7  -2  324.51    8.88
  -4   7   1  238.55    6.38
  -4   7   1  250.69    6.69
  -4  -7   1  256.21    7.87
   4  -7  -1  257.82    8.91
   4   7  -1  258.50    6.94
  -4  -7   1  262.82    6.99
   4  -7  -1  258.97    7.82
  -4  -7   1  252.79    7.37
  -4   7   0  329.25    8.67
  -4   7   0  344.09    9.06
  -4  -7   0  325.91    9.69
   4  -7   0  351.36   10.34
   4  -7   0  327.95   10.41
  -4  -7   0  335.79    9.62
  -4   7  -1  152.25    3.87
  -4   7  -1  160.06    4.09
   4  -7   1  168.85    6.09
  -4  -7  -1  178.84    5.32
   4   7   2   46.30    8.20
   4  -7   2   47.03    2.13
  -4   7  -2   35.13    2.10
   4  -7   2   44.08    6.12
  -4  -7  -2   38.78    2.44
   4   7   3   52.17    8.08
   4  -7   3   36.15    3.07
  -4   7  -3   49.35    2.88
   4  -7   3   50.14    2.91
  -4  -7  -3   51.08    3.32
   4   7   4  114.34    7.12
   4  -7   4  107.67    6.49
  -4   7  -4   91.42    5.49
   4  -7   4  107.79    6.60
  -4  -7  -4  113.57    7.14
   4   7   5   13.85    5.69
   4  -7   5   17.84    4.41
  -4   7  -5   22.14    2.79
   4  -7   5   23.18    3.62
  -4  -7  -5   20.63    2.90
   4   7   6   54.68    6.69
  -4   7  -6   70.37    5.31
   4  -7   6   66.19    5.21
  -4  -7  -6   72.47    5.82
  -4   8   8   19.91    2.44
  -4  -8   8   24.41    2.66
   4  -8  -8   17.50    2.15
   4   8  -8   22.67    2.28
  -4   8   7   22.45    2.91
   4  -8  -7   24.05    3.20
   4   8  -7   22.03    2.80
  -4   8   6  115.05    6.82
   4  -8  -6  109.23    6.71
   4   8  -6  121.20    7.07
  -4   8   5  410.66   17.80
  -4  -8   5  417.81   18.53
   4  -8  -5  411.08   18.19
   4   8  -5  398.98   17.26
  -4  -8   5  342.67   14.71
   4  -8  -5  356.37   15.40
  -4   8   4   26.49    1.65
  -4  -8   4   31.14    2.27
   4  -8  -4   30.50    4.79
   4   8  -4   32.38    1.94
  -4  -8   4   27.60    1.46
   4  -8  -4   31.57    1.76
  -4   8   3   68.17    2.24
  -4  -8   3   67.76    2.93
   4  -8  -3   59.92    2.14
   4  -8  -3   67.85    2.90
   4   8  -3   72.09    2.43
   4  -8  -3   73.79    2.52
  -4  -8   3   63.62    2.17
  -4   8   2  183.45    5.07
  -4  -8   2  205.65    6.66
   4  -8  -2  175.91    4.90
   4  -8  -2  186.75    6.18
   4   8  -2  208.28    5.88
   4  -8  -2  185.12    5.48
  -4  -8   2  187.74    5.66
  -4   8   1  203.61    5.35
  -4   8   1  209.68    5.51
  -4  -8   1  226.36    7.20
   4  -8  -1  241.26    7.56
   4   8  -1  212.88    5.75
  -4  -8   1  209.58    5.63
   4  -8  -1  238.93    6.91
  -4  -8   1  222.13    6.70
  -4   8   0   60.63    1.45
  -4   8   0   57.45    1.37
  -4  -8   0   60.68    2.93
   4  -8   0   62.78    2.80
   4  -8   0   68.45    2.79
  -4  -8   0   54.20    2.33
  -4   8  -1  191.62    4.65
   4  -8   1  208.36    6.47
  -4  -8  -1  201.79    6.05
   4  -8   2   10.77    2.41
  -4   8  -2   15.45    1.46
   4  -8   2   10.79    2.12
  -4  -8  -2   10.32    1.33
   4  -8   3   68.68    3.46
  -4   8  -3   73.43    4.15
   4  -8   3   69.99    3.97
  -4  -8  -3   82.75    4.64
   4   8   4   91.61    7.23
   4  -8   4   96.15    5.74
  -4   8  -4   95.70    5.77
   4  -8   4  104.34    6.30
  -4  -8  -4  103.39    6.58
   4   8   5   63.49    9.90
  -4   8  -5   72.84    5.46
  -4  -8  -5   68.44    5.46
   4   8   6    4.25    2.11
  -4   8  -6    6.70    1.27
   4  -8   6    8.02    1.57
  -4  -8  -6   13.88    1.99
  -4   9   8   33.46    3.03
  -4  -9   8   33.47    3.32
   4  -9  -8   27.62    2.77
   4   9  -8   34.66    3.15
  -4   9   7  127.12    8.90
  -4  -9   7  112.17    8.14
   4  -9  -7  147.26   10.42
   4   9  -7  128.03    8.88
  -4   9   6   43.74    3.12
  -4  -9   6   45.52    3.51
   4  -9  -6   51.86    4.01
   4   9  -6   57.47    3.89
  -4   9   5  148.46    7.06
   4  -9  -5  135.38    6.87
   4   9  -5  150.75    7.08
  -4  -9   5  134.85    6.25
   4  -9  -5  131.34    6.22
  -4   9   4  239.15    9.38
  -4  -9   4  272.61   11.19
   4  -9  -4  243.24   10.12
   4   9  -4  245.79    9.63
  -4  -9   4  253.89    9.84
   4  -9  -4  258.88   10.16
  -4  -9   3  387.75   13.78
   4  -9  -3  374.83   13.38
   4   9  -3  405.70   13.63
   4  -9  -3  388.26   13.22
  -4   9   2  114.90    2.91
  -4   9   2  137.04    3.44
  -4  -9   2  127.49    4.44
   4   9  -2  132.80    3.60
   4  -9  -2  132.55    3.97
  -4  -9   2  124.73    3.92
  -4  -9   1  800.25   19.73
   4  -9  -1  821.53   20.29
   4   9  -1  800.47   18.29
   4  -9  -1  847.45   20.09
  -4  -9   1  814.24   19.61
  -4  -9   0  239.72    7.05
   4  -9   0  295.11    8.25
   4  -9   0  309.15    8.29
  -4  -9   0  296.38    8.18
  -4  -9  -1  222.94    8.59
   4  -9   1  234.36    8.46
  -4  -9  -1  234.57    8.77
   4   9   2  101.52    5.39
  -4   9  -2   99.00    5.02
   4  -9   2  107.82    5.32
  -4  -9  -2  117.18    6.09
   4   9   3  233.79   11.38
  -4   9  -3  240.88   11.41
   4  -9   3  213.83   10.64
  -4  -9  -3  226.37   11.06
  -4   9  -4  163.18    9.88
   4  -9   4  157.07   11.03
  -4  -9  -4  163.71   10.25
  -4   9  -5   25.45    3.63
   4  -9   5   22.00    7.29
  -4  -9  -5   22.44    3.41
  -4  10   7  124.29    8.50
  -4 -10   7   99.88    7.55
   4 -10  -7   98.60    7.06
   4  10  -7  110.69    7.58
  -4 -10   6   32.98    2.97
   4 -10  -6   29.47    2.58
   4  10  -6   27.24    2.28
  -4  10   5   31.21    2.13
  -4 -10   5   30.73    2.48
   4 -10  -5   36.58    6.14
   4  10  -5   31.89    2.12
  -4 -10   5   29.62    1.79
   4 -10  -5   29.19    2.06
  -4  10   4   36.50    2.13
  -4 -10   4   35.15    2.64
   4 -10  -4   45.71    6.46
   4  10  -4   40.99    2.33
  -4 -10   4   36.19    2.06
   4 -10  -4   30.87    2.01
  -4  10   3   72.58    3.04
   4 -10  -3   64.43    3.52
   4  10  -3   73.87    3.22
   4 -10  -3   73.76    3.43
  -4 -10   3   62.06    2.96
  -4  10   2  117.81    3.94
   4 -10  -2  108.14    4.72
   4  10  -2  118.03    4.25
   4 -10  -2  110.33    4.42
  -4 -10   2  120.39    4.79
  -4 -10   1  883.02   29.70
   4  10  -1  834.03   27.07
   4 -10  -1  876.51   29.09
  -4 -10   1  823.47   27.52
  -4 -10   0  232.33    8.77
   4 -10   0  256.67    9.65
   4 -10   0  227.48    9.08
  -4 -10   0  247.89    9.16
  -4 -10  -1   55.54    3.21
   4 -10   1   43.95    2.47
  -4 -10  -1   38.84    2.44
   4  10   2   93.46    5.13
  -4  10  -2  101.41    5.17
   4 -10   2  100.90    6.76
  -4 -10  -2   89.92    4.85
   4  10   3   25.71    6.48
  -4  10  -3   20.78    1.76
   4 -10   3   15.43    4.74
  -4 -10  -3   26.36    2.25
   4  10   4   44.50    4.50
  -4  10  -4   40.66    2.96
   4 -10   4   52.59    3.63
  -4 -10  -4   38.93    3.22
   4  10   5   62.32    9.20
  -4  10  -5   55.20    4.22
   4 -10   5   63.95    5.17
  -4 -10  -5   67.38    5.35
  -4  11   7   13.78    2.31
  -4 -11   7   20.97    3.57
   4 -11  -7   13.01    2.23
   4  11  -7   10.74    1.70
  -4  11   6   46.66    3.18
  -4 -11   6   56.54    4.12
   4 -11  -6   55.32    8.26
   4  11  -6   57.53    3.75
  -4  11   5  146.12    8.26
  -4 -11   5  146.86    8.72
   4 -11  -5  145.83    8.73
   4  11  -5  161.96    9.18
  -4 -11   5  142.17    7.98
   4 -11  -5  141.55    8.16
  -4  11   4   25.05    1.57
  -4 -11   4   22.70    1.97
   4 -11  -4   29.96    5.19
   4  11  -4   26.66    1.73
  -4 -11   4   21.06    1.55
   4 -11  -4   19.06    1.55
  -4 -11   3  213.27    9.94
   4 -11  -3  220.92   10.51
   4  11  -3  227.55    9.96
   4 -11  -3  220.04    9.87
  -4 -11   3  211.72    9.49
  -4 -11   2  186.41    8.01
   4 -11  -2  161.71    7.37
   4  11  -2  182.62    7.04
   4 -11  -2  181.40    7.46
  -4 -11   2  174.06    7.28
   4 -11  -1  174.19    7.59
   4  11  -1  185.93    7.00
   4 -11  -1  180.06    7.42
  -4 -11   1  170.76    7.22
   4 -11   0  139.36    6.39
   4 -11   0  143.78    6.19
  -4 -11   0  135.07    6.04
   4 -11   1 1153.44   49.73
  -4 -11  -1 1091.35   46.46
   4  11   2    8.08    1.33
  -4  11  -2   10.21    1.34
   4 -11   2   19.13    3.53
  -4 -11  -2   13.40    1.70
   4  11   3  162.69    9.64
  -4  11  -3  158.94    9.18
   4 -11   3  172.74   11.45
  -4 -11  -3  163.85    9.71
   4  11   4   13.55    3.01
  -4  11  -4   13.22    1.98
   4 -11   4   14.45    5.26
  -4 -11  -4   19.71    2.85
   4  11   5  155.99   12.03
  -4  11  -5  129.88    9.86
   4 -11   5  138.67   10.59
  -4 -11  -5  109.72    8.85
  -4 -12   7   10.94    1.78
   4 -12  -7   12.03    3.75
   4  12  -7   10.05    1.44
  -4  12   6    3.34    0.88
  -4 -12   6    2.90    1.19
   4 -12  -6    1.89    0.84
   4  12  -6    1.10    0.83
  -4 -12   5   33.86    2.88
   4 -12  -5   33.79    6.11
   4  12  -5   32.24    2.41
  -4 -12   5   25.55    4.56
   4 -12  -5   38.31    2.91
  -4 -12   4    3.20    1.17
   4 -12  -4    8.74    2.29
   4  12  -4    3.78    0.87
  -4 -12   4    3.51    0.97
   4 -12  -4    3.47    0.85
  -4 -12   3   71.53    4.15
   4 -12  -3   78.31    4.43
   4  12  -3   75.31    3.69
   4 -12  -3   64.64    3.52
  -4 -12   3   72.44    3.85
  -4 -12   2   20.66    1.89
   4 -12  -2   23.68    4.80
   4  12  -2   21.32    1.25
   4 -12  -2   17.87    1.57
  -4 -12   2   19.09    1.57
  -4 -12   1  335.90   15.06
   4 -12  -1  334.14   15.63
   4 -12  -1  331.65   14.62
  -4 -12   1  323.99   14.39
  -4 -12   0   41.83    2.79
   4 -12   0   41.40    2.50
  -4 -12   0   43.77    3.01
  -4 -12  -1  243.82   11.45
   4 -12   1  241.88   11.65
  -4 -12  -1  249.92   11.79
   4  12   2   92.92    5.28
  -4  12  -2   95.92    5.32
   4 -12   2   88.07    5.23
  -4 -12  -2   94.01    5.37
  -4  12  -3    2.24    0.88
   4 -12   3    3.00    0.69
  -4 -12  -3    2.32    1.48
   4  12   4   93.76    7.07
  -4  12  -4   95.24    6.88
   4 -12   4   98.64    7.11
  -4 -12  -4  105.23    7.96
   4  12   5    9.92    3.85
  -4  12  -5   14.06    1.74
   4 -12   5   11.78    4.23
  -4 -12  -5   18.61    2.52
  -4 -13   6  127.45    8.84
   4 -13  -6  137.32   10.01
   4  13  -6  125.87    8.47
  -4 -13   5   21.95    2.08
   4 -13  -5   14.69    3.99
   4  13  -5   25.23    2.22
  -4 -13   5   20.63    1.72
   4 -13  -5   18.16    1.83
  -4 -13   4  171.24   10.04
   4 -13  -4  173.93   10.56
   4  13  -4  199.45   11.03
  -4 -13   4  161.84    9.15
   4 -13  -4  187.04   10.57
  -4 -13   3  135.73    7.10
   4 -13  -3  151.96    7.82
   4  13  -3  147.87    6.93
   4 -13  -3  146.59    7.22
  -4 -13   3  138.42    6.85
  -4 -13   2  196.99    9.55
   4 -13  -2  190.12    9.28
   4  13  -2  201.83    8.88
   4 -13  -2  178.15    8.42
  -4 -13   2  164.74    7.86
  -4 -13   1   20.37    1.98
   4 -13  -1   20.22    4.75
   4 -13  -1   21.24    1.66
  -4 -13   1   19.31    1.64
  -4 -13   0   28.18    2.22
   4 -13   0   23.84    1.83
  -4 -13   0   25.04    2.16
  -4 -13  -1  116.70    6.39
   4 -13   1   99.48    6.08
  -4 -13  -1   95.00    5.30
  -4  13  -2  104.92    6.75
   4 -13   2   97.84    6.56
  -4 -13  -2   91.51    6.17
   4  13   3   13.65    4.68
  -4  13  -3   20.17    2.73
   4 -13   3   16.03    4.63
  -4 -13  -3   15.92    2.43
   4  13   4   66.79    5.64
  -4  13  -4   58.36    4.49
   4 -13   4   52.39    4.49
  -4 -13  -4   54.99    4.58
  -4 -14   6   34.78    3.40
   4 -14  -6   26.87    6.88
   4  14  -6   42.62    3.65
  -4 -14   5   41.69    5.07
   4 -14  -5   44.68    9.89
   4  14  -5   45.07    5.18
  -4 -14   5   46.34    5.31
   4 -14  -5   39.48    4.71
  -4 -14   4   27.81    2.57
   4 -14  -4   26.32    3.84
   4  14  -4   28.53    2.10
  -4 -14   4   21.67    1.82
   4 -14  -4   27.34    2.31
  -4 -14   3   34.95    2.84
   4 -14  -3   22.81    3.21
   4  14  -3   26.17    1.84
   4 -14  -3   30.13    2.39
  -4 -14   3   25.00    2.07
  -4 -14   2  109.97    5.97
   4 -14  -2   96.42    5.56
   4 -14  -2  114.98    5.95
  -4 -14   2   96.95    5.19
  -4 -14   1   57.49    3.67
   4 -14  -1   59.32    7.87
   4 -14  -1   52.06    3.31
  -4 -14   1   55.76    3.55
  -4 -14   0   32.37    2.88
   4 -14   0   31.92    2.48
  -4 -14   0   35.65    3.06
  -4 -14  -1   59.96    4.28
   4 -14   1   54.33    9.27
  -4 -14  -1   46.30    3.46
  -4 -14  -2   36.55    2.97
  -4  14  -2   37.45    2.89
   4 -14   2   35.81    4.84
  -4 -14  -2   33.12    2.90
   4  14   3   75.78    6.01
  -4  14  -3   63.12    4.83
   4 -14   3   75.27    6.66
  -4 -14  -3   72.21    5.69
   4  14   4   23.00   10.12
  -4  14  -4   43.22    3.83
   4 -14   4   34.90    4.06
  -4 -14  -4   42.46    4.15
  -4 -15   6   49.87    4.25
   4 -15  -6   48.47    4.14
   4  15  -6   55.60    4.43
  -4 -15   5   26.26    3.30
   4 -15  -5   21.80    6.75
   4  15  -5   26.84    3.21
  -4 -15   5   18.37    2.28
   4 -15  -5   28.86    3.59
  -4 -15   4  122.95    9.81
   4 -15  -4  118.88    9.82
   4  15  -4  118.32    9.02
  -4 -15   4  119.95    9.38
   4 -15  -4  116.26    9.14
  -4 -15   3  153.35    9.61
   4 -15  -3  155.26   10.12
   4 -15  -3  136.19    8.44
  -4 -15   3  130.46    8.07
  -4 -15   2   22.41    2.44
   4 -15  -2   25.88    4.33
   4 -15  -2   24.74    2.19
  -4 -15   2   24.41    2.15
  -4 -15   1   85.96    5.52
   4 -15  -1   97.31    6.18
   4 -15  -1   83.96    5.30
  -4 -15   1   75.18    4.92
  -4 -15   0  185.11   11.35
   4 -15   0  191.34   11.59
  -4 -15   0  183.50   11.25
  -4 -15  -1   16.88    1.82
   4 -15   1   13.63    2.70
  -4 -15  -1   17.09    1.97
  -4 -15  -2   71.17    6.22
  -4  15  -2   69.72    5.88
   4 -15   2   77.55    6.41
  -4 -15  -2   74.21    6.33
   4  15   3  123.08    8.74
  -4  15  -3  114.62    7.94
   4 -15   3  126.55    8.70
  -4 -15  -3  115.18    8.42
  -4 -16   5   61.76    5.35
   4 -16  -5   75.99    6.35
   4  16  -5   58.28    4.64
  -4 -16   5   53.73    4.46
   4 -16  -5   51.25    4.40
  -4 -16   4   55.14    4.47
   4 -16  -4   56.35    5.04
  -4 -16   4   57.00    4.34
   4 -16  -4   61.60    4.83
  -4 -16   3   70.67    6.15
   4 -16  -3   69.83    6.03
   4 -16  -3   66.48    5.63
  -4 -16   3   63.28    5.32
  -4 -16   2   11.42    1.88
   4 -16  -2    7.00    2.12
   4 -16  -2    9.89    1.47
  -4 -16   2    8.30    1.27
  -4 -16   1   14.12    1.91
   4 -16  -1   13.09    1.72
   4 -16  -1   15.59    1.67
  -4 -16   1   11.84    1.53
  -4 -16   0  162.29    9.66
   4 -16   0  191.67   11.02
  -4 -16   0  187.07   11.04
  -4 -16  -1   93.19    7.66
   4 -16   1   84.97    6.91
  -4 -16  -1   82.69    7.01
  -4 -16  -2   13.30    2.16
  -4  16  -2   10.17    1.86
   4 -16   2    5.79    1.86
  -4 -16  -2   10.20    1.90
  -4  16  -3   87.97    6.58
   4 -16   3   95.96    8.32
  -4 -16  -3   96.88    7.46
  -4 -17   4   90.86    7.29
   4 -17  -4   97.67    8.10
  -4 -17   4   81.10    6.40
   4 -17  -4   98.68    7.71
  -4 -17   3   16.59    2.70
   4 -17  -3   10.64    6.48
   4 -17  -3   12.44    2.04
  -4 -17   3   15.89    2.54
  -4 -17   2   53.44    4.44
   4 -17  -2   46.67    4.63
   4 -17  -2   48.47    3.89
  -4 -17   2   46.37    3.88
  -4 -17   1   46.06    5.53
   4 -17  -1   50.78    4.46
  -4 -17   1   42.22    5.22
  -4 -17   0  215.99   14.77
   4 -17   0  233.69   15.84
  -4 -17   0  243.98   16.61
  -4 -17  -1   26.53    3.39
   4 -17   1   24.58    5.10
  -4 -17  -1   22.90    3.08
  -4 -17  -2  217.46   16.28
  -4  17  -2  241.12   17.93
   4 -17   2  257.33   17.50
  -4 -17  -2  271.73   18.70
  -4 -18   4   29.60    2.90
   4 -18  -4   25.25    3.01
  -4 -18   4   25.03    2.60
   4 -18  -4   22.52    2.33
  -4 -18   3   87.78    7.09
   4 -18  -3   80.78    6.68
   4 -18  -3   81.19    6.63
  -4 -18   3   93.62    7.40
  -4 -18   2   28.42    3.55
   4 -18  -2   25.93    3.43
   4 -18  -2   33.20    4.04
  -4 -18   2   21.93    2.85
  -4 -18   1   14.56    2.23
   4 -18  -1   19.50    2.71
  -4 -18   1   25.02    3.43
  -4 -18   0   10.06    1.84
   4 -18   0   11.73    2.11
  -4 -18   0    7.54    1.63
  -4 -18  -1    9.49    1.89
   4 -18   1   10.71    1.97
  -4 -18  -1   15.36    2.65
  -4 -19   2  175.46   12.35
   4 -19  -2  182.29   12.83
   4 -19  -2  221.60   15.25
  -4 -19   2  179.59   12.52
  -4 -19   1   68.99    5.48
   4 -19  -1   61.94    4.89
  -4 -19   1   67.21    5.42
  -4 -19   0   43.24    3.98
   4 -19   0   53.00    4.48
  -4 -19   0   35.13    3.35
  -5   0   8   25.17    3.91
   5   0  -8   16.42    2.60
  -5   0   7  182.04   10.63
   5   0  -7  187.29   10.82
  -5   0   6    0.79    0.99
   5   0  -6    1.06    0.71
  -5   0   5    4.58    1.04
   5   0  -5    7.09    1.08
  -5   0   4    6.04    1.14
   5   0  -4    2.68    0.75
  -5   0   3   11.56    1.13
   5   0  -3   10.56    1.15
  -5   0   2  117.09    3.90
   5   0  -2  110.76    4.37
  -5   0   1  260.81    7.12
   5   0  -1  243.90    6.95
  -5   0   1  242.91    5.99
  -5   0   1  242.97    6.04
  -5   0   0    6.30    0.82
   5   0   0    5.88    1.11
  -5   0   0    6.53    0.69
  -5   0  -1    0.27    0.64
  -5   0  -1    1.81    0.81
   5   0   2  105.58    4.84
  -5   0  -2   87.53    3.74
   5   0   3   23.54    6.61
  -5   0  -3   19.43    1.37
   5   0   4    2.55    1.07
  -5   0  -4    6.67    1.20
   5   0   5   43.43    5.79
  -5   0  -5   44.64    3.79
  -5   1   8  125.13    9.81
  -5  -1   8  114.21    9.01
   5  -1  -8  123.74    9.60
   5   1  -8  109.44    8.56
  -5   1   7   80.36    5.59
  -5  -1   7   77.71    5.16
   5  -1  -7   84.04    5.43
   5   1  -7   74.86    4.92
  -5   1   6   37.69    2.84
  -5  -1   6   36.71    2.88
   5   1  -6   39.72    2.93
   5  -1  -6   36.62    2.82
  -5   1   5   92.03    4.80
  -5  -1   5   92.76    4.90
   5  -1  -5   93.72    4.84
   5   1  -5   86.08    4.46
  -5   1   4   76.31    3.47
  -5  -1   4   75.28    3.54
   5  -1  -4   78.48    3.61
   5   1  -4   95.67    4.02
  -5   1   3   29.71    1.60
  -5  -1   3   36.68    2.07
   5  -1  -3   33.82    1.77
   5   1  -3   29.73    1.64
  -5  -1   2 1587.08   37.01
  -5   1   2 1636.38   53.56
   5  -1  -2 1619.65   53.42
   5   1  -2 1558.12   37.28
  -5  -1   1  286.08    7.80
  -5   1   1  306.78    8.07
   5  -1  -1  283.58    7.72
   5   1  -1  299.54    7.91
  -5  -1   1  249.42    6.22
  -5   1   1  277.75    6.82
  -5  -1   1  279.68    6.90
  -5   1   1  292.13    7.11
  -5  -1   0   99.44    3.48
  -5   1   0  103.78    3.40
   5  -1   0  106.72    3.73
   5   1   0  109.09    3.72
  -5  -1   0  101.96    3.12
  -5  -1  -1  539.15   18.47
  -5   1  -1  539.69   18.35
  -5  -1  -1  537.69   18.18
   5   1   2  105.38    5.25
   5  -1   2  100.77    5.03
  -5  -1  -2   82.94    3.84
  -5   1  -2   91.64    4.34
  -5  -1  -2   95.77    4.85
   5  -1   3   16.38    3.82
   5   1   3   14.49    2.98
  -5  -1  -3   14.48    1.00
  -5   1  -3   12.03    1.06
  -5  -1  -3   18.35    1.82
   5  -1   4  153.58    9.47
   5   1   4  126.67    8.32
  -5   1  -4  116.73    6.99
  -5  -1  -4  127.48    8.04
   5   1   5    7.27    2.03
  -5   2   8    6.18    1.54
  -5  -2   8    7.02    1.83
   5  -2  -8    8.30    1.88
   5   2  -8    6.68    1.59
  -5   2   7    1.80    1.32
  -5  -2   7    2.34    1.05
   5  -2  -7    1.00    0.83
   5   2  -7    1.81    1.00
  -5   2   6   46.51    3.40
  -5  -2   6   47.27    3.53
   5  -2  -6   42.80    3.16
   5   2  -6   52.64    3.62
  -5   2   5  188.24    8.79
  -5  -2   5  178.76    8.47
   5  -2  -5  187.42    8.77
   5   2  -5  190.27    8.79
  -5   2   4  127.63    5.53
  -5  -2   4  134.35    6.00
   5  -2  -4  129.43    5.74
   5   2  -4  146.00    6.21
  -5   2   3   11.87    1.06
  -5  -2   3   20.22    1.77
   5  -2  -3   16.43    2.32
   5   2  -3   13.23    1.07
  -5   2   2   87.66    3.00
  -5  -2   2   86.95    3.32
   5  -2  -2   97.85    3.45
   5   2  -2   85.67    2.97
  -5  -2   2   85.22    2.08
  -5  -2   2   83.49    2.08
  -5   2   2   81.59    2.07
  -5   2   2   84.22    2.09
  -5   2   1  199.42    5.56
  -5  -2   1  179.94    5.44
   5  -2  -1  189.02    5.46
   5   2  -1  187.31    5.25
  -5  -2   1  167.96    4.33
  -5   2   1  176.82    4.59
  -5  -2   1  178.65    4.66
  -5  -2   0   82.65    3.18
  -5   2   0   82.46    2.86
   5   2   0   84.31    2.91
   5  -2   0   96.09    3.50
  -5  -2   0   71.98    2.46
  -5  -2  -1   59.35    3.08
  -5   2  -1   70.46    3.16
  -5  -2  -1   60.68    2.40
  -5  -2  -1   67.30    3.02
   5   2   2    9.08    2.22
   5  -2   2   10.13    2.13
  -5  -2  -2    8.78    0.68
  -5   2  -2    8.68    0.90
  -5  -2  -2    9.97    1.11
   5   2   3   49.97    3.70
   5  -2   3   51.83    3.59
  -5   2  -3   52.29    2.89
  -5  -2  -3   60.65    3.62
   5   2   4  127.79    8.39
   5  -2   4  131.48    8.61
  -5   2  -4  135.92    7.71
  -5  -2  -4  136.01    8.24
   5  -2   5   16.47    6.40
   5   2   5   11.83    5.17
  -5  -2  -5   24.72    3.15
  -5   3   8   17.45    3.07
  -5  -3   8   16.04    2.78
   5   3  -8   23.02    3.43
  -5   3   7   15.89    2.47
  -5  -3   7   13.84    2.22
   5  -3  -7   15.00    2.24
   5   3  -7   10.98    1.88
  -5   3   6  103.28    6.32
  -5  -3   6  113.18    7.22
   5  -3  -6   79.67    5.08
   5   3  -6   81.11    5.11
  -5   3   5   21.62    1.70
  -5  -3   5   18.72    1.95
   5  -3  -5   20.10    1.80
   5   3  -5   17.09    1.51
  -5   3   4  451.75   17.37
  -5  -3   4  490.53   19.04
   5  -3  -4  447.78   17.45
   5   3  -4  483.18   18.50
  -5   3   3    8.57    0.95
  -5  -3   3    2.16    0.89
   5  -3  -3   10.05    1.77
   5   3  -3    7.47    0.81
  -5   3   2  211.50    5.78
  -5  -3   2  233.30    6.80
   5  -3  -2  240.60    6.79
   5   3  -2  214.72    5.76
  -5  -3   2  197.23    4.74
  -5  -3   2  212.44    5.11
  -5   3   2  193.37    4.71
  -5   3   1  301.44    7.81
  -5  -3   1  290.32    8.04
   5  -3  -1  293.97    8.18
   5   3  -1  295.93    8.01
  -5  -3   1  237.94    5.83
  -5   3   1  235.94    5.97
  -5  -3   1  283.77    7.12
  -5   3   0 1344.04   31.21
  -5  -3   0 1322.67   31.30
   5   3   0 1322.62   30.34
   5  -3   0 1313.60   31.52
  -5  -3   0 1195.26   27.32
  -5  -3   0 1346.58   31.25
  -5   3  -1  545.36   18.37
  -5  -3  -1  537.44   18.52
  -5  -3  -1  509.80   17.34
   5   3   2  248.08   11.31
   5  -3   2  244.71   11.07
  -5   3  -2  234.15   10.41
  -5  -3  -2  242.00   10.97
   5   3   3   42.64    3.26
   5  -3   3   37.70    2.47
  -5   3  -3   44.92    2.62
  -5  -3  -3   46.44    3.17
   5   3   4   60.73    4.21
   5  -3   4   51.35    4.70
  -5   3  -4   55.03    3.51
  -5  -3  -4   54.28    3.87
   5  -3   5    4.26    2.52
   5   3   5    7.75    2.69
  -5   3  -5   10.55    1.53
  -5  -3  -5    7.90    1.58
  -5   4   8   54.46    4.79
  -5  -4   8   57.06    5.33
   5  -4  -8   54.43    4.80
   5   4  -8   53.01    4.75
  -5   4   7    0.15    0.90
  -5  -4   7    4.54    1.77
   5  -4  -7    1.01    0.88
   5   4  -7    1.26    0.87
  -5   4   6   34.29    2.83
  -5  -4   6   27.77    2.66
   5  -4  -6   29.84    2.59
   5   4  -6   29.04    2.36
  -5   4   5   33.09    2.28
  -5  -4   5   31.74    2.44
   5  -4  -5   37.84    2.65
   5   4  -5   32.10    2.17
  -5   4   4   44.37    2.44
  -5  -4   4   46.80    2.78
   5  -4  -4   50.53    3.28
   5   4  -4   46.51    2.48
  -5   4   3    1.80    0.62
  -5  -4   3    0.48    0.94
   5  -4  -3    1.91    0.98
   5   4  -3    2.31    0.63
  -5   4   2   49.85    1.99
  -5  -4   2   48.37    2.40
   5  -4  -2   47.45    2.31
   5   4  -2   42.48    1.78
   5  -4  -2   45.29    1.44
  -5  -4   2   40.43    1.45
  -5  -4   2   46.08    1.50
  -5   4   2   42.22    1.42
  -5   4   1  271.02    7.00
  -5  -4   1  249.39    7.19
   5  -4  -1  260.74    7.66
   5   4  -1  242.01    6.81
  -5  -4   1  213.05    5.24
   5  -4  -1  268.47    6.66
  -5  -4   1  222.51    5.54
  -5  -4   1  249.84    6.43
  -5  -4   0  389.06   13.75
   5  -4   0  416.88   14.72
   5  -4   0  398.97   13.96
  -5  -4   0  380.83   13.04
  -5   4  -1  231.61    9.15
  -5  -4  -1  244.11   10.11
  -5  -4  -1  239.15    8.95
   5  -4   1  249.07    9.78
  -5  -4  -1  250.53   10.06
   5  -4   2   83.57    5.30
   5   4   2   76.79    4.21
  -5   4  -2   78.06    3.98
   5  -4   2   82.81    4.21
  -5  -4  -2   72.56    3.96
   5  -4   3   45.35    3.08
   5   4   3   37.82    7.77
  -5   4  -3   36.05    2.49
  -5  -4  -3   42.01    3.08
   5   4   4   31.63    8.20
   5  -4   4   31.37    3.30
  -5   4  -4   36.44    2.57
  -5  -4  -4   35.33    3.02
   5   4   5    1.82    0.70
   5  -4   5    2.83    1.26
  -5   4  -5    2.77    0.86
  -5  -4  -5    3.34    1.09
  -5   5   8    2.09    0.95
  -5  -5   8    1.81    1.09
   5  -5  -8    2.74    1.27
   5   5  -8    3.10    1.03
  -5   5   7  115.05    8.16
  -5  -5   7  116.38    8.49
   5  -5  -7  107.34    7.80
   5   5  -7  128.26    9.02
  -5   5   6  121.13    7.54
  -5  -5   6  120.40    7.68
   5  -5  -6  131.33    8.33
   5   5  -6  132.96    8.21
  -5   5   5   98.37    5.01
  -5  -5   5   89.11    4.85
   5  -5  -5   89.28    4.85
   5   5  -5  100.57    5.10
  -5   5   4  264.47   10.45
  -5  -5   4  271.56   11.14
   5  -5  -4  262.64   10.78
   5   5  -4  260.86   10.36
  -5   5   3  625.68   20.87
  -5  -5   3  638.16   21.86
   5  -5  -3  614.28   22.35
   5   5  -3  624.72   20.88
   5  -5  -3  583.05   18.92
  -5  -5   3  601.70   19.51
  -5   5   2  338.25   11.52
  -5  -5   2  331.40   11.94
   5  -5  -2  336.78   12.07
   5   5  -2  352.32   11.96
   5  -5  -2  308.57   10.37
  -5  -5   2  307.51   10.33
  -5   5   1  313.04   10.68
  -5  -5   1  295.78   10.82
   5  -5  -1  267.08   10.53
   5   5  -1  281.64    9.87
   5  -5  -1  286.49    9.83
  -5  -5   1  271.46    9.42
  -5   5   0    8.45    0.75
  -5  -5   0   12.65    1.50
   5  -5   0   11.85    2.31
   5  -5   0    9.24    1.70
  -5  -5   0   12.07    0.99
  -5   5  -1  321.36   12.34
  -5  -5  -1  325.30   13.10
   5  -5   1  325.35   13.48
  -5  -5  -1  347.57   13.64
   5   5   2  234.85   11.00
   5  -5   2  222.34   10.01
  -5   5  -2  223.70   10.25
   5  -5   2  220.62   10.34
  -5  -5  -2  235.09   10.91
   5  -5   3  278.87   15.95
   5   5   3  279.86   16.02
  -5   5  -3  272.09   14.95
   5  -5   3  276.91   15.32
  -5  -5  -3  286.14   16.02
   5   5   4   15.32    4.00
   5  -5   4   15.42    5.02
  -5   5  -4   20.13    2.54
  -5  -5  -4   15.65    2.27
   5   5   5   45.19    7.87
  -5   5  -5   70.31    5.49
  -5  -5  -5   62.23    5.29
  -5   6   8   27.39    2.74
  -5  -6   8   22.99    2.45
   5  -6  -8   33.30    3.44
   5   6  -8   23.94    2.51
  -5   6   7   60.14    4.66
  -5  -6   7   55.05    4.54
   5  -6  -7   51.70    4.36
   5   6  -7   56.89    4.50
  -5   6   6   17.22    1.86
  -5  -6   6   16.30    2.06
   5   6  -6   12.87    1.53
  -5   6   5   36.46    2.43
  -5  -6   5   24.15    2.25
   5  -6  -5   30.09    2.30
   5   6  -5   33.82    2.42
  -5   6   4   79.91    4.02
  -5  -6   4   82.42    4.52
   5  -6  -4   75.79    4.36
   5   6  -4   89.46    4.47
  -5   6   3   56.08    2.72
  -5  -6   3   58.79    3.69
   5  -6  -3   56.99    5.61
   5   6  -3   46.50    2.34
   5  -6  -3   46.26    2.35
  -5  -6   3   44.24    1.89
  -5   6   2  171.76    6.09
  -5  -6   2  195.90    7.59
   5  -6  -2  185.46    7.29
   5   6  -2  184.04    6.49
   5  -6  -2  189.57    6.60
  -5  -6   2  180.83    6.35
  -5   6   1  114.96    4.20
  -5  -6   1  122.92    5.16
   5  -6  -1  126.04    6.32
   5   6  -1  115.74    4.21
   5  -6  -1  117.89    4.62
  -5  -6   1  113.50    4.37
  -5  -6   0  315.56   12.73
   5  -6   0  354.91   14.02
   5  -6   0  331.30   13.00
  -5  -6   0  331.23   12.92
  -5   6  -1   36.28    1.99
  -5  -6  -1   36.29    2.53
   5  -6   1   39.57    2.44
  -5  -6  -1   43.76    2.64
   5   6   2   18.20    1.90
  -5   6  -2   16.10    1.43
   5  -6   2   17.39    2.41
  -5  -6  -2   16.78    1.58
   5  -6   3  307.90   17.02
   5   6   3  323.38   18.03
  -5   6  -3  318.59   17.44
   5  -6   3  313.77   17.32
  -5  -6  -3  287.76   16.12
   5   6   4   12.86    4.55
  -5   6  -4   20.70    2.62
   5  -6   4   24.02    3.24
  -5  -6  -4   18.90    2.66
  -5   6  -5   32.60    2.91
  -5  -6  -5   27.20    3.96
  -5   7   7   54.82    4.21
  -5  -7   7   64.66    5.14
   5  -7  -7   51.07    4.16
   5   7  -7   54.98    4.34
  -5   7   6   84.69    5.24
  -5  -7   6   76.34    5.13
   5  -7  -6   89.86    5.84
   5   7  -6   88.20    5.48
  -5   7   5  312.31   14.35
  -5  -7   5  350.64   16.48
   5  -7  -5  338.93   16.05
   5   7  -5  372.00   16.99
  -5   7   4   78.26    3.88
  -5  -7   4   97.92    5.24
   5  -7  -4   76.28    4.19
   5   7  -4   89.85    4.46
  -5   7   3   89.29    3.81
  -5  -7   3  108.91    5.32
   5  -7  -3  106.12    5.34
   5   7  -3  102.91    4.40
   5  -7  -3   97.40    4.01
  -5  -7   3  102.92    4.13
  -5   7   2  299.32   11.37
  -5  -7   2  278.52   11.43
   5  -7  -2  256.59   12.05
   5   7  -2  301.94   11.51
   5  -7  -2  278.80   10.90
  -5  -7   2  266.79   10.31
  -5   7   1   31.96    1.52
  -5  -7   1   29.92    2.19
   5  -7  -1   38.91    6.44
   5   7  -1   27.08    1.68
   5  -7  -1   38.10    1.98
  -5  -7   1   38.07    2.08
  -5   7   0    9.24    0.68
  -5  -7   0   11.09    1.45
   5  -7   0   13.12    1.61
   5  -7   0   10.33    2.28
  -5  -7   0   10.77    1.15
  -5   7  -1  153.27    6.77
  -5  -7  -1  149.31    7.43
   5  -7   1  157.43    7.23
  -5  -7  -1  145.89    7.00
   5   7   2   59.44    3.81
  -5   7  -2   54.48    3.30
   5  -7   2   74.11    4.09
  -5  -7  -2   62.93    3.84
   5   7   3   44.26    7.32
  -5   7  -3   35.67    2.69
   5  -7   3   33.69    7.46
  -5  -7  -3   44.86    3.50
   5   7   4   12.81    4.25
  -5   7  -4   15.45    2.30
   5  -7   4   16.20    5.93
  -5  -7  -4   12.23    2.05
   5   7   5   33.84    3.27
  -5   7  -5   35.49    3.03
  -5  -7  -5   27.31    2.85
  -5   8   7  126.33    8.60
  -5  -8   7  127.71    8.98
   5  -8  -7  119.04    8.38
   5   8  -7  123.33    8.53
  -5   8   6   11.19    1.31
  -5  -8   6   13.99    2.15
   5  -8  -6   16.04    2.16
   5   8  -6   17.57    1.87
  -5   8   5   78.38    4.79
  -5  -8   5   85.94    5.52
   5   8  -5   89.40    5.39
  -5   8   4   47.77    2.66
  -5  -8   4   61.50    3.74
   5  -8  -4   48.97    7.35
   5   8  -4   54.81    3.00
  -5   8   3  279.04   12.03
  -5  -8   3  286.31   13.05
   5  -8  -3  284.38   12.97
   5   8  -3  301.02   13.04
   5  -8  -3  278.07   11.93
  -5  -8   3  276.83   11.91
  -5   8   2   16.25    0.93
  -5  -8   2   22.72    2.08
   5  -8  -2   19.47    3.85
   5   8  -2   17.89    1.12
   5  -8  -2   19.61    2.80
  -5  -8   2   15.36    1.15
  -5  -8   1   22.51    1.85
   5  -8  -1   20.32    4.77
   5  -8  -1   17.12    3.37
  -5  -8   1   21.76    1.52
  -5  -8   0  114.46    5.93
   5  -8   0  101.87    5.24
   5  -8   0  108.48    5.91
  -5  -8   0  101.52    5.04
  -5  -8  -1  104.07    5.56
   5  -8   1   92.94    5.34
  -5  -8  -1   86.76    4.62
   5   8   2   69.68    4.69
  -5   8  -2   81.60    5.08
   5  -8   2   72.97    5.12
  -5  -8  -2   71.09    4.61
   5   8   3  104.44    6.62
  -5   8  -3   93.88    5.85
   5  -8   3  100.17    6.78
  -5  -8  -3   99.05    6.30
   5   8   4    6.34    3.91
  -5   8  -4    9.80    1.91
   5  -8   4    9.69    2.13
  -5  -8  -4    8.35    1.73
  -5   9   7   16.08    2.51
  -5  -9   7   18.41    3.03
   5  -9  -7   18.41    2.94
   5   9  -7   16.60    2.53
  -5   9   6   18.07    2.37
  -5  -9   6   21.43    2.99
   5  -9  -6   12.54    3.35
   5   9  -6   17.13    2.21
  -5   9   5  134.29    8.09
  -5  -9   5  137.61    8.69
   5  -9  -5  111.18   13.15
   5   9  -5  129.84    7.87
  -5   9   4  257.05   11.70
  -5  -9   4  279.56   13.37
   5   9  -4  273.69   12.57
  -5  -9   3  599.43   26.56
   5  -9  -3  517.05   24.16
   5   9  -3  597.88   25.78
   5  -9  -3  551.86   23.78
  -5  -9   3  504.18   21.78
  -5  -9   2  414.62   18.39
   5  -9  -2  382.58   18.84
   5   9  -2  343.97   14.64
   5  -9  -2  381.32   16.64
  -5  -9   2  376.59   16.30
  -5  -9   1  160.16    7.83
   5  -9  -1  143.79    7.46
   5  -9  -1  140.90    6.52
  -5  -9   1  128.97    6.16
  -5  -9   0   13.88    1.70
   5  -9   0   13.87    1.53
   5  -9   0   11.22    2.22
  -5  -9   0    8.57    1.05
  -5  -9  -1  199.34    9.86
   5  -9   1  185.37    9.05
  -5  -9  -1  198.35    9.67
   5   9   2  179.58   10.54
  -5   9  -2  141.17    8.24
   5  -9   2  161.48    9.37
  -5  -9  -2  166.53    9.74
   5   9   3    8.82    3.52
  -5   9  -3   10.94    1.36
   5  -9   3    7.70    1.47
  -5  -9  -3    8.38    1.42
   5   9   4   61.57    4.89
  -5   9  -4   64.02    4.70
   5  -9   4   68.92    5.45
  -5  -9  -4   68.59    5.30
  -5 -10   7   18.55    2.59
   5 -10  -7    9.39    3.03
   5  10  -7   16.15    1.86
  -5 -10   6   19.58    3.08
   5 -10  -6   18.45    3.99
   5  10  -6   15.25    2.38
  -5 -10   5   12.79    1.68
   5 -10  -5    8.12    2.75
   5  10  -5   15.27    1.43
  -5 -10   4   62.52    4.26
   5  10  -4   61.57    3.78
  -5 -10   3   21.52    2.39
   5 -10  -3   27.18    5.86
   5  10  -3   25.49    1.65
   5 -10  -3   26.29    1.70
  -5 -10   3   23.83    1.56
  -5 -10   2   56.53    3.53
   5 -10  -2   54.60    3.43
   5 -10  -2   49.91    2.76
  -5 -10   2   48.88    2.84
  -5 -10   1   69.77    4.12
   5 -10  -1   72.80    4.23
   5 -10  -1   69.85    3.77
  -5 -10   1   69.26    3.81
  -5 -10   0   34.78    2.61
   5 -10   0   44.54    2.97
   5 -10   0   45.17    4.20
  -5 -10   0   43.97    2.85
  -5 -10  -1   47.51    3.51
   5 -10   1   52.90    3.54
  -5 -10  -1   63.91    4.26
  -5 -10  -2   84.08    5.76
  -5  10  -2   92.92    6.07
   5 -10   2   87.04    5.58
  -5 -10  -2   86.20    5.80
   5  10   3   21.88    5.55
  -5  10  -3   26.33    3.33
   5 -10   3   20.51    4.51
  -5 -10  -3   19.92    2.83
   5  10   4  199.97   15.68
  -5  10  -4  206.50   15.23
   5 -10   4  192.57   15.24
  -5 -10  -4  201.54   15.21
   5 -11  -6  155.31   11.26
   5  11  -6  170.63   11.24
   5 -11  -5   93.07    7.71
   5  11  -5   91.47    7.16
  -5 -11   4   43.39    3.42
   5 -11  -4   40.94    3.38
   5  11  -4   48.12    3.27
   5  11  -3  343.74   18.48
   5 -11  -3  329.45   17.85
  -5 -11   3  309.30   16.78
  -5 -11   2   92.82    5.20
   5 -11  -2   79.74    5.94
   5 -11  -2   91.50    4.61
  -5 -11   2   80.61    4.36
  -5 -11   1  495.17   27.06
   5 -11  -1  517.65   28.21
   5 -11  -1  481.49   21.72
  -5 -11   1  462.88   21.02
  -5 -11   0   33.71    2.57
   5 -11   0   36.99    4.99
  -5 -11   0   32.75    2.37
  -5 -11  -1   35.09    2.99
  -5 -11  -1   36.74    3.01
  -5 -11  -2  137.58    8.38
  -5  11  -2  142.11    8.48
   5 -11   2  142.08    8.39
  -5 -11  -2  141.29    8.51
   5  11   3   83.07    6.38
  -5  11  -3   65.36    4.95
   5 -11   3   79.81    6.17
  -5 -11  -3   79.19    6.22
  -5  11  -4   20.44    2.14
   5 -11   4   14.97    4.43
  -5 -11  -4   21.12    2.60
  -5 -12   6   30.63    3.27
   5 -12  -6   15.69    5.71
   5  12  -6   18.90    2.71
  -5 -12   5  158.72   11.13
   5 -12  -5  133.05   11.00
   5  12  -5  162.56   10.95
  -5 -12   4   90.09    5.87
   5 -12  -4   64.79    4.55
   5  12  -4   86.94    5.13
   5 -12  -3   88.18    5.97
   5 -12  -3   85.26    5.37
  -5 -12   3   77.42    4.92
  -5 -12   2   19.89    2.17
   5 -12  -2   27.15    4.91
   5 -12  -2   21.56    1.77
  -5 -12   2   26.13    2.29
   5 -12  -1  109.28    6.88
   5 -12  -1   95.73    5.67
  -5 -12   1  105.13    6.29
  -5 -12   0  145.85    8.76
   5 -12   0  139.68    8.36
  -5 -12   0  127.15    7.59
  -5 -12  -1    6.79    1.37
   5 -12   1   12.15    2.86
  -5 -12  -1    9.28    1.40
  -5 -12  -2   21.10    3.03
  -5  12  -2   32.06    3.97
   5 -12   2   18.16    5.62
  -5 -12  -2   29.50    3.83
   5  12   3    1.70    1.10
  -5  12  -3    3.07    0.96
   5 -12   3    1.61    0.77
  -5 -12  -3    3.62    1.51
  -5 -13   6   41.20    3.76
   5 -13  -6   37.63    7.24
   5  13  -6   44.55    3.62
  -5 -13   5  124.37    8.78
   5 -13  -5  112.07    8.22
   5  13  -5  130.12    8.65
  -5 -13   4   21.08    2.98
   5 -13  -4   17.61    5.53
  -5 -13   3   37.37    3.06
   5 -13  -3   36.65    8.14
   5 -13  -3   32.89    2.45
  -5 -13   3   37.80    2.66
  -5 -13   2  109.39    7.23
   5 -13  -2  111.35    7.28
   5 -13  -2  115.82    7.17
  -5 -13   2  119.14    7.44
   5 -13  -1   21.37    5.20
   5 -13  -1   23.75    4.91
  -5 -13   1   30.38    2.47
  -5 -13   0   80.56    5.44
  -5 -13  -1   35.38    4.41
   5 -13   1   43.09    7.83
  -5 -13  -1   40.13    4.94
  -5 -13  -2   39.06    4.68
   5 -13   2   29.35    7.66
  -5 -13  -2   32.49    4.60
   5  13   3   56.71    5.24
  -5  13  -3   46.80    4.09
   5 -13   3   49.95    4.25
  -5 -13  -3   48.78    4.45
  -5 -14   5   81.39    6.69
   5 -14  -5   91.78    7.66
  -5 -14   4   71.10    5.58
   5 -14  -4   80.03    6.19
  -5 -14   3   56.22    4.99
   5 -14  -3   50.36    5.12
   5 -14  -3   51.27    4.34
  -5 -14   3   49.51    4.18
  -5 -14   2   12.91    1.59
   5 -14  -2   14.28    5.42
   5 -14  -2   18.21    1.86
  -5 -14   2   17.40    1.85
  -5 -14   1   38.60    3.14
   5 -14  -1   33.55    2.61
  -5 -14   1   44.06    3.30
  -5 -14   0   64.18    5.63
   5 -14   0   66.25    5.63
  -5 -14   0   60.45    5.20
  -5 -14  -1    6.85    1.63
  -5 -14  -1    4.70    1.27
   5 -14   2  150.50   10.14
  -5 -14  -2  141.26    9.84
  -5 -15   5  171.64   12.18
   5 -15  -5  179.29   12.69
  -5 -15   4    7.46    1.71
   5 -15  -4    4.65    2.82
  -5 -15   3   16.01    2.69
   5 -15  -3   15.15    6.43
   5 -15  -3   16.39    2.49
  -5 -15   2   96.16    7.16
   5 -15  -2   92.55    7.15
   5 -15  -2  111.26    7.82
  -5 -15   2   87.50    6.32
  -5 -15   1  135.82    9.69
   5 -15  -1  147.83   10.48
   5 -15  -1  135.57    9.41
  -5 -15   0   35.80    4.48
   5 -15   0   32.97    7.64
  -5 -15   0   36.50    4.32
  -5 -15  -1  131.81    9.22
   5 -15   1  114.45    9.50
  -5 -15  -1  130.63    9.17
  -5 -15  -2    2.65    1.31
  -5  15  -2    4.34    1.47
   5 -15   2    1.60    0.54
  -5 -15  -2    2.67    1.40
  -5 -16   4   20.38    2.43
   5 -16  -4    8.13    4.60
  -5 -16   3   13.56    2.47
   5 -16  -3    7.10    3.36
  -5 -16   2   33.34    4.15
   5 -16  -2   21.01    7.93
   5 -16  -2   22.42    2.81
  -5 -16   2   25.35    3.24
  -5 -16   1   84.25    6.27
   5 -16  -1   85.51    6.18
  -5 -16   1   78.02    5.76
  -5 -16   0   29.12    2.93
   5 -16   0   23.08    6.45
  -5 -16   0   39.21    3.81
  -5 -16  -1    3.45    1.53
   5 -16   1    1.81    0.56
  -5 -17   3   82.67    6.56
   5 -17  -3   87.87    6.78
  -5 -17   2   15.38    2.13
   5 -17  -2   13.72    4.44
   5 -17  -2   23.71    2.42
  -5 -17   2   22.60    2.43
  -5 -17   1   16.94    2.19
   5 -17  -1   15.93    1.87
  -5 -17   1   19.91    2.33
  -5 -17   0  120.50    8.91
   5 -17   0  100.50    7.63
  -5 -17   0   96.19    7.29
  -6   0   7    4.25    1.48
   6   0  -7    2.49    0.96
  -6   0   6   16.81    2.54
   6   0  -6   14.70    2.13
  -6   0   5   88.85    5.53
   6   0  -5   94.26    5.82
  -6   0   4  241.40   11.49
   6   0  -4  240.25   11.38
  -6   0   3  287.72   13.10
   6   0  -3  284.56   13.16
  -6   0   2  661.32   28.36
   6   0  -2  597.49   25.82
  -6   0   1   42.97    2.68
   6   0  -1   40.82    3.03
  -6   0   1   38.65    2.01
  -6   0   0   13.62    1.31
  -6   0   0   14.55    1.22
  -6   0  -1   22.31    1.74
  -6   0  -1   25.04    1.87
  -6   0  -2   10.85    1.42
  -6   0  -2    7.76    1.08
   6   0   3    2.23    1.10
  -6   0  -3    1.24    0.88
   6   0   4    0.72    0.92
  -6   0  -4    2.36    0.91
  -6   1   7    4.01    1.50
   6   1  -7    3.25    1.18
   6  -1  -7    2.86    1.31
  -6  -1   6   99.45    8.05
  -6   1   6  105.43    8.43
   6  -1  -6   91.25    7.48
   6   1  -6   91.03    7.39
  -6   1   5    6.72    1.22
  -6  -1   5   10.48    1.63
   6   1  -5   11.69    1.44
   6  -1  -5   18.25    2.00
  -6   1   4   99.00    5.20
  -6  -1   4   93.29    5.09
   6   1  -4   76.67    4.27
   6  -1  -4   89.42    4.83
  -6   1   3  252.37   11.54
  -6  -1   3  253.35   11.66
   6  -1  -3  258.20   12.07
   6   1  -3  263.18   12.26
  -6  -1   2   11.72    1.38
  -6   1   2   16.99    1.47
   6   1  -2   14.23    2.38
   6  -1  -2   11.51    2.63
  -6   1   1  161.95    7.55
  -6  -1   1  171.51    8.12
   6   1  -1  159.82    7.36
   6  -1  -1  159.57    8.50
  -6  -1   1  139.84    6.22
  -6   1   1  146.45    6.48
  -6   1   0   90.15    4.64
  -6  -1   0   95.17    4.91
   6  -1   0  109.33    5.33
  -6  -1   0   94.47    4.58
  -6   1   0  103.29    4.96
  -6  -1  -1   51.26    3.24
  -6   1  -1   38.12    2.50
  -6  -1  -1   45.17    2.42
  -6  -1  -1   49.36    2.88
  -6   1  -1   48.88    2.86
  -6  -1  -2   56.16    4.07
  -6   1  -2   67.58    4.58
  -6   1  -2   65.29    4.11
  -6  -1  -2   67.67    4.57
  -6   1  -2   75.71    4.95
   6  -1   3  133.10   10.39
   6   1   3  132.58   10.39
  -6  -1  -3  136.74   10.69
  -6   1  -3  134.04   10.49
   6   1   4   67.08    7.33
   6  -1   4   65.52    5.45
  -6  -1  -4   59.87    5.12
  -6   1  -4   83.47    6.77
  -6   2   7   33.00    3.15
  -6  -2   7   27.64    2.73
   6  -2  -7   42.33    3.92
   6   2  -7   26.96    3.77
  -6   2   6   47.71    6.34
  -6  -2   6   47.81    6.40
   6  -2  -6   39.68    4.88
   6   2  -6   44.92    5.25
  -6   2   5   23.22    2.05
  -6  -2   5   23.17    2.17
   6  -2  -5   31.43    3.00
   6   2  -5   28.41    2.35
  -6   2   4   58.23    3.35
  -6  -2   4   65.05    3.86
   6  -2  -4   60.69    8.73
   6   2  -4   65.20    3.73
  -6   2   3  155.34    7.39
  -6  -2   3  159.86    7.80
   6  -2  -3  156.26    7.89
   6   2  -3  161.19    7.63
  -6   2   2  157.06    7.32
  -6  -2   2  168.05    8.04
   6  -2  -2  153.37    7.29
   6   2  -2  160.36    7.49
  -6   2   1  112.43    5.46
  -6  -2   1  106.97    5.48
   6   2  -1   92.71    6.29
   6  -2  -1  102.92    5.37
  -6  -2   1   98.45    4.59
  -6   2   1  101.60    4.63
  -6   2   0   35.30    2.27
  -6  -2   0   35.69    2.59
   6  -2   0   34.82    2.19
  -6  -2   0   30.11    1.89
  -6   2  -1    9.32    1.12
  -6  -2  -1    9.38    1.24
  -6  -2  -1    8.94    1.15
  -6  -2  -2   59.58    4.27
  -6   2  -2   60.93    3.96
  -6  -2  -2   59.85    4.14
   6   2   3    2.32    1.27
   6  -2   3    0.98    0.94
  -6  -2  -3    0.43    0.84
   6  -2   4    2.45    2.30
   6   2   4    4.52    2.28
  -6  -2  -4    6.65    1.44
  -6   3   7   42.75    3.92
  -6  -3   7   48.30    4.59
   6  -3  -7   37.52    3.57
   6   3  -7   48.13    4.20
  -6   3   6   59.95    5.06
  -6  -3   6   63.33    5.58
   6  -3  -6   48.35    6.57
   6   3  -6   61.38    5.15
  -6   3   5   16.59    1.64
  -6  -3   5   19.79    2.01
   6  -3  -5   19.30    2.07
   6   3  -5   20.64    2.09
  -6   3   4  116.02    5.92
  -6  -3   4  135.76    7.03
   6  -3  -4  129.14    6.75
   6   3  -4  130.68    6.57
  -6   3   3   44.24    2.62
  -6  -3   3   42.20    2.99
   6  -3  -3   42.86    7.99
   6   3  -3   39.13    2.40
  -6   3   2  470.92   20.64
  -6  -3   2  486.86   21.65
   6  -3  -2  475.32   21.12
   6   3  -2  450.52   20.24
  -6   3   1  279.05   12.53
  -6  -3   1  273.50   12.58
   6   3  -1  265.45   12.22
   6  -3  -1  274.81   12.57
  -6   3   0  121.09    5.95
  -6  -3   0  134.02    6.93
   6  -3   0  131.56    6.60
  -6  -3   0  139.23    6.71
  -6   3  -1   32.09    2.39
  -6  -3  -1   30.34    2.55
  -6  -3  -1   26.48    2.18
  -6  -3  -2  137.88    8.68
  -6   3  -2  163.66    9.83
  -6   3  -2  156.66    9.34
  -6  -3  -2  170.37   10.32
   6   3   3    5.34    2.34
   6  -3   3   10.97    2.02
  -6   3  -3    7.21    1.27
  -6  -3  -3   10.20    1.86
   6   3   4   -0.27    0.85
  -6  -3  -4    5.96    1.46
  -6   4   7    9.29    1.87
   6  -4  -7    2.70    1.48
   6   4  -7    9.33    1.75
  -6  -4   6    5.06    1.38
   6  -4  -6    7.73    1.52
   6   4  -6    3.79    1.03
  -6   4   5   14.80    1.64
  -6  -4   5   12.20    1.51
   6  -4  -5   11.42    1.51
   6   4  -5   14.67    1.77
  -6   4   4   98.51    5.84
  -6  -4   4   95.46    5.95
   6  -4  -4   98.59    6.13
   6   4  -4   95.21    5.67
  -6   4   3  106.79    5.35
  -6  -4   3  103.27    5.58
   6  -4  -3  104.37   10.68
   6   4  -3  103.49    5.19
  -6   4   2   83.73    4.23
  -6  -4   2   86.11    4.75
   6  -4  -2   85.79    4.58
   6   4  -2   73.38    5.19
  -6   4   1  197.30    9.04
  -6  -4   1  193.45    9.30
   6   4  -1  163.54    7.68
   6  -4  -1  191.67    9.06
  -6  -4   1  162.75    7.39
  -6   4   0   20.22    1.52
  -6  -4   0   17.16    2.08
   6  -4   0   29.20    2.10
  -6  -4   0   20.85    1.59
  -6   4  -1   23.27    1.88
  -6  -4  -1   22.75    2.12
  -6  -4  -1   16.52    1.53
  -6   4  -2    3.63    1.14
  -6  -4  -2    7.18    1.53
  -6   4  -2    6.38    0.92
  -6  -4  -2    2.05    1.05
  -6   4  -3    6.52    1.25
  -6  -4  -3   11.80    2.02
   6   4   4   28.66    2.78
  -6  -4  -4   27.59    2.69
  -6   5   7    9.22    1.95
  -6  -5   7   11.91    2.16
   6  -5  -7    6.25    1.56
   6   5  -7    3.19    0.98
  -6   5   6   20.91    3.06
  -6  -5   6   18.20    2.84
   6  -5  -6   14.80    2.48
   6   5  -6   16.08    2.41
  -6   5   5  216.18   12.80
  -6  -5   5  214.45   12.98
   6  -5  -5  215.10   13.03
   6   5  -5  208.53   12.40
  -6   5   4  178.03   10.04
  -6  -5   4  190.37   11.03
   6  -5  -4  171.76   10.10
   6   5  -4  172.53    9.69
  -6   5   3  233.48   10.82
  -6  -5   3  245.24   11.81
   6  -5  -3  219.18   11.66
   6   5  -3  240.92   11.14
  -6   5   2   70.00    3.68
  -6  -5   2   68.74    4.08
   6  -5  -2   77.27    4.35
   6   5  -2   60.53    3.43
  -6   5   1   10.42    1.10
  -6  -5   1   10.91    1.53
   6  -5  -1    6.84    2.46
  -6  -5   1    8.86    0.99
  -6   5   0  135.06    6.46
  -6  -5   0  118.80    6.27
   6  -5   0  124.03    6.37
  -6  -5   0  116.79    5.85
  -6  -5  -1  211.31   12.13
  -6  -5  -1  229.18   12.80
  -6  -5  -2   48.32    3.79
  -6   5  -2   56.62    3.71
  -6  -5  -2   54.79    3.73
   6   5   3   20.54    3.18
  -6   5  -3   16.39    2.42
  -6  -5  -3   16.01    2.53
   6   5   4   18.13    8.33
  -6  -5  -4   29.25    2.88
  -6   6   7   50.90    4.07
  -6  -6   7   52.74    4.51
   6  -6  -7   46.90    4.28
   6   6  -7   52.20    4.21
  -6   6   6  216.98   14.57
  -6  -6   6  250.70   17.04
   6  -6  -6  216.40   14.83
   6   6  -6  239.34   16.07
  -6   6   5  101.50    6.06
  -6  -6   5   98.38    6.22
   6  -6  -5  105.52    6.69
   6   6  -5  116.28    6.88
  -6   6   4   14.99    1.40
  -6  -6   4   24.98    2.33
   6  -6  -4   24.38    4.72
   6   6  -4   19.35    1.68
  -6   6   3   84.34    4.26
  -6  -6   3   81.72    4.71
   6  -6  -3   85.96    4.82
  -6   6   2    9.48    0.91
  -6  -6   2    9.64    1.45
   6  -6  -2   11.56    2.50
   6   6  -2    5.66    1.27
  -6  -6   1   69.36    4.17
   6  -6  -1   62.84    3.73
   6  -6  -1   57.96    2.95
  -6  -6   1   60.17    3.20
  -6  -6   0   63.18    4.30
   6  -6   0   78.53    5.09
   6  -6   0   70.23    4.20
  -6  -6   0   65.47    4.12
  -6  -6  -1   62.20    4.42
   6  -6   1   65.09    4.20
  -6  -6  -1   70.06    4.66
  -6  -6  -2    1.92    1.41
  -6   6  -2    3.83    1.20
   6  -6   2    1.40    0.72
  -6  -6  -2    1.74    0.82
   6   6   3   17.59    2.72
  -6   6  -3   15.28    2.01
  -6  -6  -3   13.30    2.09
  -6   7   6   70.52    5.07
  -6  -7   6   69.82    5.43
   6  -7  -6   74.75    6.17
   6   7  -6   95.87    6.75
  -6   7   5    2.09    0.96
  -6  -7   5    1.33    1.14
   6  -7  -5    1.14    0.65
   6   7  -5    1.84    0.74
  -6  -7   4   72.33    5.06
   6  -7  -4   69.41    4.92
   6   7  -4   67.92    4.40
  -6  -7   3   11.91    1.62
   6  -7  -3   11.85    2.06
   6   7  -3   11.84    1.14
  -6  -7   2   73.06    4.84
   6  -7  -2   76.99    6.65
  -6  -7   1   17.73    1.96
   6  -7  -1   15.70    4.14
   6  -7  -1   15.05    3.00
  -6  -7   1   16.24    1.42
  -6  -7   0  210.33   12.11
   6  -7   0  212.23   11.68
  -6  -7   0  235.43   13.08
  -6  -7  -1   35.34    3.27
   6  -7   1   40.34    2.84
  -6  -7  -2    1.25    1.03
  -6   7  -2    4.70    1.33
   6  -7   2    1.23    0.84
  -6  -7  -2    1.95    1.05
   6   7   3   68.84    6.02
  -6   7  -3   54.93    4.51
   6  -7   3   57.34    4.72
  -6  -7  -3   54.99    4.71
  -6  -8   6    5.16    1.62
   6   8  -6    4.99    1.19
  -6  -8   5  281.34   21.43
   6  -8  -5  265.06   20.28
   6   8  -5  270.50   20.28
  -6  -8   4   26.34    2.48
   6  -8  -4   23.95    5.68
   6   8  -4   31.05    2.28
  -6  -8   3    5.27    1.22
   6  -8  -3    4.89    1.66
  -6  -8   2   59.69    4.28
   6  -8  -2   53.77    5.64
  -6  -8   1   25.54    2.36
   6  -8  -1   21.65    6.07
   6  -8  -1   16.45    3.41
  -6  -8   0   13.21    1.65
   6  -8   0   13.65    3.12
  -6  -8   0   14.72    1.58
  -6  -8  -1   23.90    2.60
   6  -8   1   20.11    1.93
  -6  -8  -1   18.21    1.82
  -6   8  -2   16.48    2.49
   6  -8   2   13.85    3.68
  -6  -8  -2   15.13    2.42
   6   8   3    4.81    1.34
   6  -8   3    1.16    0.54
  -6  -8  -3    0.60    0.91
  -6  -9   6   11.76    2.15
   6  -9  -6   11.01    3.15
   6   9  -6   17.99    2.67
  -6  -9   5  119.15    8.62
   6  -9  -5  114.18    8.35
   6   9  -5  118.32    8.17
  -6  -9   4   81.34    6.81
   6  -9  -4   71.65    6.06
  -6  -9   3   26.71    2.48
   6  -9  -3   32.77    2.84
  -6  -9   2   55.03    4.09
   6  -9  -2   56.32    4.16
  -6  -9   1  101.39    6.79
   6  -9  -1  107.55    7.27
  -6  -9   0   25.61    2.43
   6  -9   0   25.61    5.81
  -6  -9   0   29.12    2.27
  -6  -9  -1   94.43    7.82
   6  -9   1   90.68    7.12
  -6  -9  -1   76.21    6.33
  -6  -9  -2   73.96    5.67
  -6   9  -2   74.19    5.40
   6  -9   2   77.65    5.47
  -6  -9  -2   71.46    5.40
  -6   9  -3  100.36    7.23
   6  -9   3  110.22    7.90
  -6  -9  -3  102.85    7.68
  -6 -10   6   56.19    4.71
   6  10  -6   65.69    5.07
  -6 -10   5    1.44    1.14
   6 -10  -5    0.30    1.10
   6  10  -5    2.32    0.89
  -6 -10   4   50.87    4.80
   6 -10  -4   46.27    5.58
  -6 -10   3   61.56    4.37
   6 -10  -3   48.73    3.57
  -6 -10   2   32.17    2.77
   6 -10  -2   46.01    3.54
  -6 -10   1   15.85    1.90
   6 -10  -1    9.53    4.85
   6 -10  -1   12.10    2.84
   6 -10   0    4.77    0.94
  -6 -10   0    8.30    1.40
  -6 -10  -1   23.80    3.55
   6 -10   1   12.69    2.77
  -6 -10  -1   19.39    2.84
  -6 -10  -2  140.24   10.89
  -6  10  -2  157.05   11.84
   6 -10   2  129.72   10.14
  -6 -10  -2  142.52   10.95
  -6 -11   5   74.81    6.29
   6 -11  -5   57.82    5.22
  -6 -11   4   25.43    3.79
   6 -11  -4   28.20    8.44
  -6 -11   3   89.48    7.45
   6 -11  -3   83.17    6.98
  -6 -11   2   29.69    3.92
   6 -11  -2   28.31    8.25
  -6 -11   1  224.27   17.32
   6 -11  -1  205.17   16.86
  -6 -11   0   22.27    3.37
   6 -11   0   22.11    5.47
  -6 -11   0   24.69    3.49
  -6 -11  -1  176.94   12.08
  -6 -11  -1  177.83   11.96
  -6 -11  -2    3.03    1.56
  -6  11  -2    2.11    1.31
   6 -11   2    1.06    0.77
  -6 -11  -2    3.02    1.46
  -6 -12   5   18.38    2.63
   6 -12  -5    7.07    3.44
  -6 -12   4  109.86    7.87
   6 -12  -4   98.36    7.22
  -6 -12   3    7.72    1.83
   6 -12  -3    5.31    2.23
  -6 -12   2   12.00    2.40
   6 -12  -2   12.21    4.30
  -6 -12   1   19.42    3.07
   6 -12  -1   22.74    3.40
  -6 -12   0   14.29    2.31
   6 -12   0    7.75    3.42
  -6 -12   0   19.88    2.75
  -6 -12  -1  110.25    8.78
   6 -12   1   95.49    7.30
  -6 -12  -1   99.88    7.90
  -6 -13   4   15.95    2.27
  -6 -13   3   46.23    4.04
   6 -13  -3   44.33    3.99
  -6 -13   2   39.55    4.82
   6 -13  -2   49.42    4.46
  -6 -13   1   17.84    2.63
   6 -13  -1   17.92    2.62
  -6 -13   0  174.81   13.31
   6 -13   0  158.72   11.76
  -6 -13   0  132.74   10.15
  -6 -13  -1   36.29    3.47
   6 -13   1   21.28    5.59
  -6 -13  -1   37.68    3.45
   6 -14  -3   66.85    5.43
  -6 -14   2   27.14    4.17
  -6 -14   1   14.15    2.60
   6 -14  -1   14.62    2.53
  -6 -14   0   12.91    2.38
   6 -14   0   10.16    3.25
  -6 -14   0   11.93    1.81
  -7   0   6  120.00    8.69
   7   0  -6  135.15    9.64
  -7   0   5    2.07    0.95
   7   0  -5    1.43    0.92
  -7   0   4  157.76   12.19
   7   0  -4  132.25   10.74
  -7   0   3    0.61    0.84
   7   0  -3    1.66    0.96
  -7   0   2    3.49    1.25
   7   0  -2    0.95    1.02
  -7   0   1    9.40    1.35
   7   0  -1    4.49    2.10
  -7   0  -1   54.79    4.29
  -7   0  -2    2.32    1.07
  -7   0  -2    0.83    0.71
  -7   1   6   31.20    2.97
  -7  -1   6   22.78    2.60
   7  -1  -6   26.31    2.69
   7   1  -6   22.86    2.34
  -7   1   5  140.88    9.55
  -7  -1   5  148.48   10.12
   7  -1  -5  143.62   10.18
   7   1  -5  136.25    9.26
  -7   1   4   42.55    4.98
  -7  -1   4   50.62    4.43
   7  -1  -4   38.59    8.59
   7   1  -4   40.35    5.01
  -7   1   3   15.91    1.72
  -7  -1   3   13.90    1.63
   7   1  -3   13.94    3.66
   7  -1  -3   13.98    3.53
  -7   1   2   24.33    2.06
  -7  -1   2   27.19    2.42
   7   1  -2   23.93    2.13
   7  -1  -2   10.11    4.53
  -7  -1   1   18.39    2.02
  -7   1   1   23.41    2.02
   7  -1  -1   18.25    4.06
  -7   1   0   57.75    4.82
  -7  -1   0   53.69    4.60
  -7  -1  -1   66.18    5.11
  -7   1  -1   73.49    5.47
  -7  -1  -2   48.64    4.26
  -7   1  -2   56.99    4.74
  -7   2   6    8.43    1.56
  -7  -2   6   10.88    1.75
   7  -2  -6    4.59    1.19
  -7   2   5   19.57    2.56
  -7  -2   5   15.65    2.27
   7  -2  -5   10.70    4.72
   7   2  -5   16.60    2.25
  -7   2   4    5.24    1.23
  -7  -2   4    4.59    1.35
   7  -2  -4    3.17    1.34
   7   2  -4    7.23    1.78
  -7   2   3  102.58    6.25
  -7  -2   3  115.94    7.11
   7  -2  -3  103.13    6.30
   7   2  -3   99.13    5.93
  -7   2   2    2.32    0.74
  -7  -2   2    2.06    0.93
   7  -2  -2    0.52    0.78
   7   2  -2    1.10    0.72
  -7   2   1   18.19    1.80
  -7  -2   1   13.74    1.61
   7  -2  -1   16.25    2.36
  -7   2   0   19.09    2.50
  -7  -2   0   20.73    2.75
  -7   2  -1   29.83    4.08
  -7  -2  -1   40.91    3.66
  -7  -2  -2   11.46    1.98
  -7  -2  -2    7.19    1.39
  -7   3   6   52.66    4.21
  -7  -3   6   54.23    4.49
   7  -3  -6   57.04    4.91
   7   3  -6   56.68    4.49
  -7   3   5   76.95    5.60
  -7  -3   5   81.86    6.06
   7  -3  -5   80.87    5.91
   7   3  -5   76.79    5.57
  -7   3   4   24.22    3.36
  -7  -3   4   23.44    3.40
   7  -3  -4   19.75    5.49
   7   3  -4   12.17    5.51
  -7   3   3  136.83   10.56
  -7  -3   3  134.21   10.54
   7  -3  -3  133.42   10.43
   7   3  -3  123.27    9.53
  -7   3   2  138.58    7.99
  -7  -3   2  146.56    8.72
   7  -3  -2  136.36    8.22
  -7   3   1   95.27    7.48
  -7  -3   1   84.76    6.93
   7  -3  -1   98.34    7.78
  -7  -3   0   53.42    4.71
  -7  -3  -1    1.17    0.86
  -7  -3  -2   34.44    3.27
  -7   4   6    4.85    1.13
  -7  -4   6    6.03    1.60
   7  -4  -6    4.18    2.05
   7   4  -6    7.43    1.33
  -7   4   5   56.60    4.32
  -7  -4   5   60.95    4.72
   7  -4  -5   54.02    5.32
   7   4  -5   46.58    3.60
  -7   4   4   70.23    5.16
  -7  -4   4   63.03    4.95
   7  -4  -4   56.24    9.97
   7   4  -4   47.91    8.87
  -7   4   3   72.54    5.82
  -7  -4   3   83.05    6.85
   7  -4  -3   76.08    6.62
  -7  -4   2   96.45    7.97
   7  -4  -2   85.98    6.97
  -7  -4   1   10.45    1.80
   7  -4  -1    7.69    2.36
  -7  -4   0   17.83    2.78
  -7  -4  -1   23.50    3.09
  -7  -4  -2   13.88    1.82
  -7  -5   5   25.56    3.81
   7  -5  -5   13.00    5.08
   7   5  -5   20.92    3.03
  -7  -5   4    3.36    1.16
   7  -5  -4    7.82    1.63
  -7  -5   3   54.13    4.74
   7  -5  -3   66.19    5.71
  -7  -5   2   80.13    6.67
   7  -5  -2   79.12    6.53
  -7  -5   1   95.86    7.85
   7  -5  -1  111.67    8.85
  -7  -5   0   33.56    4.66
  -7  -5  -1   92.88    6.74
  -7  -5  -2   28.39    3.02
  -7  -6   5    6.39    1.55
   7  -6  -5    3.77    1.42
   7   6  -5    4.69    1.13
  -7  -6   4   28.66    3.59
   7  -6  -4   23.70    5.94
  -7  -6   3   23.11    3.48
   7  -6  -3   21.02    6.08
  -7  -6   2   36.60    4.36
   7  -6  -2   28.81    5.67
  -7  -6   1   31.11    4.42
   7  -6  -1   19.76    7.10
  -7  -6   0   28.71    3.60
   7  -7  -5    4.48    1.66
  -7  -7   4   78.82    5.92
   7  -7  -4   68.20    5.55
  -7  -7   3   26.03    3.93
   7  -7  -3   19.44    4.66
  -7  -7   2   98.14    7.25
   7  -7  -2  104.65    7.91
  -7  -7   1   52.73    4.37
  -7  -7   0    4.29    1.24
  -7  -7  -1  110.40    8.73
  -7  -8   4   46.05    4.35
   7  -8  -4   47.25    4.30
  -7  -8   3    6.96    1.43
   7  -8  -3    5.43    3.14
  -7  -8   2    8.90    2.06
   7  -8  -2    0.56    0.68
  -7  -8   1   24.82    3.30
   7  -8  -1   27.66    3.59
  -7  -8   0   50.34    4.52
  -7  -8  -1   38.01    3.54
  -7  -9   4    8.14    1.61
   7  -9  -4    7.16    1.74
  -7  -9   3    3.10    1.23
   7  -9  -3    2.48    1.33
  -7  -9   2   26.01    3.84
   7  -9  -2   25.83    5.57
  -7  -9   1   43.07    4.07
   7  -9  -1   40.23    3.80
  -7  -9   0  168.17   11.96
  -7 -10   3   52.22    4.77
   7 -10  -3   44.35    3.97
  -7 -10   2   20.35    3.39
   7 -10  -2   10.10    6.11
  -7 -10   1   37.99    3.58
   7 -10  -1   31.47    3.22
  -7 -10   0   11.85    1.81
  -7 -11   2   34.36    3.77
   7 -11  -2   18.95    7.21
  -8   0   3   27.10    2.66
  -8   0   2    8.94    1.55
  -8  -1   3   19.84    2.16
  -8   1   3   24.75    2.51
  -8  -1   2   26.43    2.77
  -8  -2   2   70.66    5.61
   0   0   0    0.00    0.00

_computing_structure_solution     'SHELXT 2014/5 (Sheldrick, 2014)'
;
_shelx_hkl_checksum              46793
_olex2_submission_special_instructions 'No special instructions were received'
loop_
_space_group_symop_operation_xyz
'x, y, z'
'-x, y+1/2, -z'
loop_
_atom_site_label
_atom_site_type_symbol
_atom_site_fract_x
_atom_site_fract_y
_atom_site_fract_z
_atom_site_U_iso_or_equiv
_atom_site_adp_type
_atom_site_occupancy
_atom_site_site_symmetry_order
_atom_site_calc_flag
_atom_site_refinement_flags_posn
Cl1 Cl 0.04193(10) 0.18000(3) -0.01000(8) 0.03407(16) Uani 1 1 d .
O1 O 0.4728(2) 0.55461(9) 0.2958(2) 0.0252(3) Uani 1 1 d .
C1 C 0.5346(4) 0.37299(13) 0.2121(3) 0.0227(4) Uani 1 1 d .
C2 C 0.6036(4) 0.29567(13) 0.2146(3) 0.0262(4) Uani 1 1 d .
H2 H 0.756074 0.283596 0.263593 0.031 Uiso 1 1 calc R
O2 O 0.6017(3) 0.53542(9) 0.6290(2) 0.0269(3) Uani 1 1 d .
O3 O 0.8333(3) 0.46742(11) 0.8470(2) 0.0376(4) Uani 1 1 d .
C3 C 0.4545(4) 0.23625(13) 0.1472(3) 0.0284(5) Uani 1 1 d .
H3 H 0.504569 0.184210 0.148799 0.034 Uiso 1 1 calc R
O4 O 0.8466(3) 0.77223(10) 0.4056(3) 0.0389(4) Uani 1 1 d .
C4 C 0.2314(4) 0.25385(13) 0.0774(3) 0.0257(4) Uani 1 1 d .
O5 O 0.4867(3) 0.73906(10) 0.3472(2) 0.0321(4) Uani 1 1 d .
C5 C 0.1570(4) 0.32928(14) 0.0720(3) 0.0278(5) Uani 1 1 d .
H5 H 0.003975 0.340703 0.023570 0.033 Uiso 1 1 calc R
C6 C 0.3079(4) 0.38846(13) 0.1380(3) 0.0249(4) Uani 1 1 d .
H6 H 0.256668 0.440433 0.132897 0.030 Uiso 1 1 calc R
C7 C 0.6940(4) 0.43696(13) 0.2821(3) 0.0233(4) Uani 1 1 d .
C8 C 0.8849(4) 0.42401(14) 0.4104(3) 0.0279(5) Uani 1 1 d .
H8 H 0.911902 0.372340 0.455406 0.033 Uiso 1 1 calc R
C9 C 1.0625(4) 0.48286(15) 0.4916(4) 0.0333(5) Uani 1 1 d .
H9A H 1.097188 0.512233 0.383594 0.040 Uiso 1 1 calc R
H9B H 1.198928 0.454924 0.557184 0.040 Uiso 1 1 calc R
C10 C 1.0003(4) 0.54237(14) 0.6382(3) 0.0289(5) Uani 1 1 d .
H10 H 1.132075 0.546899 0.749541 0.035 Uiso 1 1 calc R
C11 C 0.9525(4) 0.62129(14) 0.5535(3) 0.0270(4) Uani 1 1 d .
H11 H 1.072456 0.655577 0.553720 0.032 Uiso 1 1 calc R
C12 C 0.7472(4) 0.64453(13) 0.4783(3) 0.0235(4) Uani 1 1 d .
C13 C 0.5544(3) 0.59121(13) 0.4725(3) 0.0227(4) Uani 1 1 d .
H13 H 0.430871 0.624435 0.495021 0.027 Uiso 1 1 calc R
C14 C 0.6293(4) 0.51689(13) 0.2034(3) 0.0254(4) Uani 1 1 d .
H14A H 0.764564 0.549208 0.221000 0.030 Uiso 1 1 calc R
H14B H 0.562545 0.513016 0.063638 0.030 Uiso 1 1 calc R
C15 C 0.8098(4) 0.51213(13) 0.7151(3) 0.0269(4) Uani 1 1 d .
C16 C 0.7041(4) 0.72536(13) 0.4066(3) 0.0265(5) Uani 1 1 d .
C17 C 0.4243(5) 0.81799(14) 0.2919(4) 0.0385(6) Uani 1 1 d .
H17A H 0.483859 0.832445 0.181512 0.058 Uiso 1 1 calc GR
H17B H 0.484724 0.852722 0.399858 0.058 Uiso 1 1 calc GR
H17C H 0.262043 0.822287 0.256753 0.058 Uiso 1 1 calc GR
loop_
_atom_site_aniso_label
_atom_site_aniso_U_11
_atom_site_aniso_U_22
_atom_site_aniso_U_33
_atom_site_aniso_U_23
_atom_site_aniso_U_13
_atom_site_aniso_U_12
Cl1 0.0432(3) 0.0257(3) 0.0323(3) -0.0037(2) 0.0069(2) -0.0098(2)
O1 0.0225(7) 0.0230(8) 0.0290(8) -0.0035(6) 0.0036(6) 0.0004(6)
C1 0.0268(11) 0.0233(10) 0.0195(9) -0.0007(7) 0.0085(8) 0.0008(9)
C2 0.0284(11) 0.0235(10) 0.0273(10) 0.0013(8) 0.0075(8) 0.0032(9)
O2 0.0259(8) 0.0280(8) 0.0285(8) 0.0031(6) 0.0096(6) -0.0022(7)
O3 0.0530(11) 0.0282(9) 0.0299(8) 0.0037(7) 0.0066(8) 0.0043(8)
C3 0.0378(12) 0.0207(10) 0.0272(10) 0.0015(8) 0.0088(9) 0.0018(10)
O4 0.0482(11) 0.0245(9) 0.0454(10) -0.0031(7) 0.0139(8) -0.0119(8)
C4 0.0342(12) 0.0229(10) 0.0201(9) -0.0017(8) 0.0070(8) -0.0060(9)
O5 0.0385(9) 0.0230(8) 0.0319(8) 0.0019(6) 0.0021(7) 0.0050(7)
C5 0.0277(11) 0.0277(12) 0.0259(10) -0.0035(9) 0.0021(8) 0.0011(10)
C6 0.0298(12) 0.0209(10) 0.0235(9) -0.0017(8) 0.0053(8) 0.0018(9)
C7 0.0260(11) 0.0222(10) 0.0241(9) -0.0031(8) 0.0109(8) 0.0001(9)
C8 0.0239(11) 0.0259(11) 0.0358(11) -0.0051(9) 0.0109(9) 0.0009(9)
C9 0.0211(11) 0.0300(12) 0.0490(15) -0.0101(10) 0.0088(10) 0.0015(9)
C10 0.0208(10) 0.0282(12) 0.0347(11) -0.0049(9) 0.0008(8) 0.0014(9)
C11 0.0227(10) 0.0259(11) 0.0336(10) -0.0065(9) 0.0092(8) -0.0048(9)
C12 0.0256(10) 0.0214(10) 0.0247(10) -0.0029(8) 0.0083(8) -0.0018(9)
C13 0.0219(10) 0.0208(10) 0.0262(10) -0.0014(8) 0.0072(8) 0.0002(8)
C14 0.0296(11) 0.0230(10) 0.0252(10) -0.0005(8) 0.0097(8) -0.0007(9)
C15 0.0334(12) 0.0213(10) 0.0253(10) -0.0042(8) 0.0055(8) 0.0006(9)
C16 0.0358(12) 0.0227(11) 0.0219(9) -0.0049(9) 0.0084(8) -0.0025(10)
C17 0.0610(17) 0.0241(12) 0.0273(11) 0.0029(9) 0.0043(11) 0.0117(12)
loop_
_atom_type_symbol
_atom_type_description
_atom_type_scat_dispersion_real
_atom_type_scat_dispersion_imag
_atom_type_scat_source
C C 0.0033 0.0016 'International Tables Vol C Tables 4.2.6.8 and 6.1.1.4'
H H 0.0000 0.0000 'International Tables Vol C Tables 4.2.6.8 and 6.1.1.4'
Cl Cl 0.1484 0.1585 'International Tables Vol C Tables 4.2.6.8 and 6.1.1.4'
O O 0.0106 0.0060 'International Tables Vol C Tables 4.2.6.8 and 6.1.1.4'
loop_
_geom_angle_atom_site_label_1
_geom_angle_atom_site_label_2
_geom_angle_atom_site_label_3
_geom_angle
C13 O1 C14 118.53(16)
C2 C1 C6 117.5(2)
C2 C1 C7 121.8(2)
C6 C1 C7 120.7(2)
C1 C2 H2 119.2
C3 C2 C1 121.6(2)
C3 C2 H2 119.2
C15 O2 C13 123.00(17)
C2 C3 H3 120.4
C4 C3 C2 119.2(2)
C4 C3 H3 120.4
C3 C4 Cl1 119.81(17)
C5 C4 Cl1 119.19(18)
C5 C4 C3 121.0(2)
C16 O5 C17 116.0(2)
C4 C5 H5 120.3
C4 C5 C6 119.4(2)
C6 C5 H5 120.3
C1 C6 H6 119.3
C5 C6 C1 121.4(2)
C5 C6 H6 119.3
C1 C7 C14 117.19(18)
C8 C7 C1 121.2(2)
C8 C7 C14 121.6(2)
C7 C8 H8 116.6
C7 C8 C9 126.8(2)
C9 C8 H8 116.6
C8 C9 H9A 108.5
C8 C9 H9B 108.5
C8 C9 C10 115.04(19)
H9A C9 H9B 107.5
C10 C9 H9A 108.5
C10 C9 H9B 108.5
C9 C10 H10 107.4
C11 C10 C9 112.4(2)
C11 C10 H10 107.4
C11 C10 C15 111.53(19)
C15 C10 C9 110.60(19)
C15 C10 H10 107.4
C10 C11 H11 119.3
C12 C11 C10 121.5(2)
C12 C11 H11 119.3
C11 C12 C13 120.5(2)
C11 C12 C16 120.1(2)
C16 C12 C13 119.3(2)
O1 C13 O2 111.19(17)
O1 C13 C12 114.68(17)
O1 C13 H13 106.2
O2 C13 C12 111.81(17)
O2 C13 H13 106.2
C12 C13 H13 106.2
O1 C14 C7 112.80(17)
O1 C14 H14A 109.0
O1 C14 H14B 109.0
C7 C14 H14A 109.0
C7 C14 H14B 109.0
H14A C14 H14B 107.8
O2 C15 C10 118.36(19)
O3 C15 O2 118.3(2)
O3 C15 C10 123.3(2)
O4 C16 O5 124.6(2)
O4 C16 C12 124.2(2)
O5 C16 C12 111.2(2)
O5 C17 H17A 109.5
O5 C17 H17B 109.5
O5 C17 H17C 109.5
H17A C17 H17B 109.5
H17A C17 H17C 109.5
H17B C17 H17C 109.5
loop_
_geom_bond_atom_site_label_1
_geom_bond_atom_site_label_2
_geom_bond_distance
Cl1 C4 1.746(2)
O1 C13 1.398(3)
O1 C14 1.451(3)
C1 C2 1.401(3)
C1 C6 1.405(3)
C1 C7 1.488(3)
C2 H2 0.9500
C2 C3 1.389(3)
O2 C13 1.454(3)
O2 C15 1.352(3)
O3 C15 1.201(3)
C3 H3 0.9500
C3 C4 1.388(3)
O4 C16 1.199(3)
C4 C5 1.380(3)
O5 C16 1.334(3)
O5 C17 1.446(3)
C5 H5 0.9500
C5 C6 1.391(3)
C6 H6 0.9500
C7 C8 1.334(3)
C7 C14 1.509(3)
C8 H8 0.9500
C8 C9 1.510(3)
C9 H9A 0.9900
C9 H9B 0.9900
C9 C10 1.580(3)
C10 H10 1.0000
C10 C11 1.492(3)
C10 C15 1.509(3)
C11 H11 0.9500
C11 C12 1.322(3)
C12 C13 1.501(3)
C12 C16 1.489(3)
C13 H13 1.0000
C14 H14A 0.9900
C14 H14B 0.9900
C17 H17A 0.9800
C17 H17B 0.9800
C17 H17C 0.9800
loop_
_geom_torsion_atom_site_label_1
_geom_torsion_atom_site_label_2
_geom_torsion_atom_site_label_3
_geom_torsion_atom_site_label_4
_geom_torsion
Cl1 C4 C5 C6 -178.78(17)
C1 C2 C3 C4 -0.6(3)
C1 C7 C8 C9 179.1(2)
C1 C7 C14 O1 79.3(2)
C2 C1 C6 C5 0.8(3)
C2 C1 C7 C8 -24.8(3)
C2 C1 C7 C14 155.76(19)
C2 C3 C4 Cl1 179.41(17)
C2 C3 C4 C5 0.8(3)
C3 C4 C5 C6 -0.2(3)
C4 C5 C6 C1 -0.7(3)
C6 C1 C2 C3 -0.2(3)
C6 C1 C7 C8 156.0(2)
C6 C1 C7 C14 -23.4(3)
C7 C1 C2 C3 -179.3(2)
C7 C1 C6 C5 180.00(19)
C7 C8 C9 C10 72.2(3)
C8 C7 C14 O1 -100.1(2)
C8 C9 C10 C11 -106.7(2)
C8 C9 C10 C15 18.6(3)
C9 C10 C11 C12 96.6(3)
C9 C10 C15 O2 -95.6(2)
C9 C10 C15 O3 83.2(3)
C10 C11 C12 C13 -1.1(3)
C10 C11 C12 C16 176.0(2)
C11 C10 C15 O2 30.2(3)
C11 C10 C15 O3 -151.0(2)
C11 C12 C13 O1 -99.3(2)
C11 C12 C13 O2 28.4(3)
C11 C12 C16 O4 2.7(3)
C11 C12 C16 O5 -176.1(2)
C13 O1 C14 C7 81.7(2)
C13 O2 C15 O3 177.9(2)
C13 O2 C15 C10 -3.3(3)
C13 C12 C16 O4 179.8(2)
C13 C12 C16 O5 1.0(3)
C14 O1 C13 O2 -79.2(2)
C14 O1 C13 C12 48.9(3)
C14 C7 C8 C9 -1.5(3)
C15 O2 C13 O1 103.5(2)
C15 O2 C13 C12 -26.1(3)
C15 C10 C11 C12 -28.2(3)
C16 C12 C13 O1 83.5(2)
C16 C12 C13 O2 -148.69(18)
C17 O5 C16 O4 -4.6(3)
C17 O5 C16 C12 174.20(18)
