#------------------------------------------------------------------------------
#$Date: 2019-10-28 05:52:19 +0200 (Mon, 28 Oct 2019) $
#$Revision: 219785 $
#$URL: file:///home/coder/svn-repositories/cod/cif/4/51/46/4514600.cif $
#------------------------------------------------------------------------------
#
# This file is available in the Crystallography Open Database (COD),
# http://www.crystallography.net/
#
# All data on this site have been placed in the public domain by the
# contributors.
#
data_4514600
loop_
_publ_author_name
'Carden, Will G.'
'Thorman, Rachel M.'
'Unlu, Ilyas'
'Abboud, Khalil A.'
'Fairbrother, D. Howard'
'McElwee-White, Lisa'
_publ_section_title
;
 Design, Synthesis, and Evaluation of CF<sub>3</sub>AuCNR Precursors for
 Focused Electron Beam-Induced Deposition of Gold.
;
_journal_issue                   12
_journal_name_full               'ACS applied materials &amp; interfaces'
_journal_page_first              11976
_journal_page_last               11987
_journal_paper_doi               10.1021/acsami.8b18368
_journal_volume                  11
_journal_year                    2019
_chemical_formula_sum            'C3 H3 Au F3 N'
_chemical_formula_weight         307.03
_space_group_crystal_system      monoclinic
_space_group_IT_number           12
_space_group_name_Hall           '-C 2y'
_space_group_name_H-M_alt        'C 1 2/m 1'
_symmetry_space_group_name_Hall  '-C 2y'
_symmetry_space_group_name_H-M   'C 1 2/m 1'
_atom_sites_solution_hydrogens   geom
_atom_sites_solution_primary     direct
_atom_sites_solution_secondary   difmap
_audit_creation_method           SHELXL-2014/7
_audit_update_record
; 
2018-09-14 # Formatted by publCIF 
  
;
_cell_angle_alpha                90
_cell_angle_beta                 98.9460(10)
_cell_angle_gamma                90
_cell_formula_units_Z            4
_cell_length_a                   17.1992(12)
_cell_length_b                   5.8322(4)
_cell_length_c                   5.6685(4)
_cell_measurement_reflns_used    9960
_cell_measurement_temperature    100(2)
_cell_measurement_theta_max      33.96
_cell_measurement_theta_min      2.40
_cell_volume                     561.69(7)
_computing_cell_refinement       'Bruker APEX3 (Bruker, 2014)'
_computing_data_collection       'Bruker APEX3 (Bruker, 2014)'
_computing_data_reduction        'Bruker Apex3 SAINT (Bruker, 2014)'
_computing_molecular_graphics    'XP in SHELXTL-plus, Bruker 2014'
_computing_publication_material  'SHELXL2014/7, Sheldrick, G. M. 2014'
_computing_structure_refinement  'SHELXL2014/7, Sheldrick G. M. 2014'
_computing_structure_solution    'SHELXL2014/7, Sheldrick G. M. 2014'
_diffrn_ambient_temperature      100(2)
_diffrn_measured_fraction_theta_full 1.000
_diffrn_measured_fraction_theta_max 0.944
_diffrn_measurement_device_type  'Bruker APEX-II DUO'
_diffrn_measurement_method       'phi and omega scans'
_diffrn_radiation_type           MoK\a
_diffrn_radiation_wavelength     0.71073
_diffrn_reflns_av_R_equivalents  0.0198
_diffrn_reflns_av_unetI/netI     0.0092
_diffrn_reflns_Laue_measured_fraction_full 1.000
_diffrn_reflns_Laue_measured_fraction_max 0.944
_diffrn_reflns_limit_h_max       26
_diffrn_reflns_limit_h_min       -25
_diffrn_reflns_limit_k_max       9
_diffrn_reflns_limit_k_min       -9
_diffrn_reflns_limit_l_max       8
_diffrn_reflns_limit_l_min       -8
_diffrn_reflns_number            12460
_diffrn_reflns_point_group_measured_fraction_full 1.000
_diffrn_reflns_point_group_measured_fraction_max 0.944
_diffrn_reflns_theta_full        25.000
_diffrn_reflns_theta_max         33.965
_diffrn_reflns_theta_min         2.398
_diffrn_source                   'fine-focus sealed tube'
_exptl_absorpt_coefficient_mu    26.143
_exptl_absorpt_correction_T_max  0.2279
_exptl_absorpt_correction_T_min  0.0710
_exptl_absorpt_correction_type   integration
_exptl_absorpt_process_details
'Sheldrick, G. M., sadabs (2014). Acta Cryst. C71, 3--8.'
_exptl_crystal_colour            colourless
_exptl_crystal_density_diffrn    3.631
_exptl_crystal_description       needle
_exptl_crystal_F_000             536
_exptl_crystal_size_max          0.226
_exptl_crystal_size_mid          0.108
_exptl_crystal_size_min          0.093
_refine_diff_density_max         1.095
_refine_diff_density_min         -0.974
_refine_diff_density_rms         0.124
_refine_ls_extinction_method     none
_refine_ls_goodness_of_fit_ref   1.256
_refine_ls_hydrogen_treatment    constr
_refine_ls_matrix_type           full
_refine_ls_number_parameters     48
_refine_ls_number_reflns         1167
_refine_ls_number_restraints     0
_refine_ls_restrained_S_all      1.256
_refine_ls_R_factor_all          0.0108
_refine_ls_R_factor_gt           0.0105
_refine_ls_shift/su_max          0.002
_refine_ls_shift/su_mean         0.000
_refine_ls_structure_factor_coef Fsqd
_refine_ls_weighting_details
'w=1/[\s^2^(Fo^2^)+(0.0111P)^2^+1.2787P] where P=(Fo^2^+2Fc^2^)/3'
_refine_ls_weighting_scheme      calc
_refine_ls_wR_factor_gt          0.0265
_refine_ls_wR_factor_ref         0.0265
_reflns_Friedel_coverage         0.000
_reflns_number_gt                1149
_reflns_number_total             1167
_reflns_threshold_expression     'I > 2\s(I)'
_cod_data_source_file            am8b18368_si_002.cif
_cod_data_source_block           will7
_cod_database_code               4514600
_shelx_shelxl_version_number     2014/7
_shelx_space_group_comment
; 
The symmetry employed for this shelxl refinement is uniquely defined 
by the following loop, which should always be used as a source of 
symmetry information in preference to the above space-group names. 
They are only intended as comments. 
;
_shelx_estimated_absorpt_t_min   0.067
_shelx_estimated_absorpt_t_max   0.195
_shelx_res_file
; 
  
    will7.res created by SHELXL-2014/7 
  
  
TITL 2_a.res in C2/m 
REM Old TITL c2 in C2 
  
REM SHELXT solution in C2/m 
REM R1 0.051,  Rweak 0.011,  Alpha 0.017,  Orientation as input 
REM Formula found by SHELXT:  C2 N2 F3 Au 
  
CELL  0.71073  17.1992   5.8322   5.6685   90.000   98.946   90.000 
ZERR    4.000   0.0012   0.0004   0.0004    0.000    0.001    0.000 
LATT  7 
SYMM -X, Y, -Z 
SFAC C H N F Au 
UNIT 12 12 4 12 4 
TEMP -173.120 
SIZE 0.093 0.108 0.226 
  
L.S. 8 
BOND $H 
LIST 4 
acta 50 
FMAP 2 
PLAN 5 
htab 
  
EQIV $1 x-1/2, y-1/2, z-1 
HTAB C3 F2_$1 
EQIV $2 -x+1/2, y-1/2, -z 
HTAB C3 F2_$2 
EQIV $3 x-1/2, -y+3/2, z-1 
HTAB C3 F2_$3 
  
WGHT    0.011100    1.278700 
FVAR       0.28896   0.50000 
AU1   5    0.296029    0.500000    0.440064    10.50000    0.01115    0.01405 = 
         0.01305    0.00000    0.00109    0.00000 
F1    4    0.372519    0.500000    0.937133    10.50000    0.02661    0.01975 = 
         0.01307    0.00000    0.00404    0.00000 
F2    4    0.438889    0.685553    0.706689    11.00000    0.02012    0.03069 = 
         0.02424    0.00471   -0.00160   -0.01155 
C1    1    0.390114    0.500000    0.710089    10.50000    0.01444    0.01767 = 
         0.01450    0.00000    0.00070    0.00000 
C2    1    0.210330    0.500000    0.160722    10.50000    0.01581    0.01353 = 
         0.02041    0.00000    0.00346    0.00000 
N1    3    0.162706    0.500000   -0.004512    10.50000    0.01512    0.01413 = 
         0.01886    0.00000    0.00170    0.00000 
C3    1    0.099780    0.500000   -0.202997    10.50000    0.01859    0.02092 = 
         0.01751    0.00000   -0.00399    0.00000 
AFIX 137 
PART  -1 
H3A   2    0.056432    0.404991   -0.164689    10.50000   -1.50000 
H3B   2    0.118799    0.437717   -0.344134    10.50000   -1.50000 
H3C   2    0.081127    0.657292   -0.235744    10.50000   -1.50000 
PART   0 
  
AFIX   0 
HKLF 4 
  
REM  2_a.res in C2/m 
REM R1 =  0.0105 for    1149 Fo > 4sig(Fo)  and  0.0108 for all    1167 data 
REM     48 parameters refined using      0 restraints 
  
END 
  
WGHT      0.0111      1.2787 
  
REM Instructions for potential hydrogen bonds 
HTAB C3 F2_$1 
HTAB C3 F2_$2 
HTAB C3 F2_$3 
  
REM Highest difference peak  1.095,  deepest hole -0.974,  1-sigma level  0.124 
Q1    1   0.2703  0.5000  0.5310  10.50000  0.05    1.10 
Q2    1   0.2959  0.3677  0.4332  11.00000  0.05    0.86 
Q3    1   0.3435  0.5000  0.4210  10.50000  0.05    0.80 
Q4    1   0.3098  0.5000  0.3000  10.50000  0.05    0.72 
Q5    1   0.5245  0.5000  0.8007  10.50000  0.05    0.61 
;
_shelx_res_checksum              13300
_shelx_hkl_file
; 
  -2   0   0 3785.12   85.49 
  -2   0   0 3903.61   85.69 
   2   0   0 3659.63   86.59 
  -2   0   0 4030.10   85.69 
   2   0   0 3938.21   85.99 
   2   0   0 3515.55   87.49 
   2   0   0 4014.80   86.49 
  -2   0   0 3932.71   85.59 
  -2   0   0 4212.28   85.79 
  -2   0   0 3938.91   85.89 
  -2   0   0 3810.12   85.69 
   2   0   0 3745.73   86.59 
   2   0   0 3585.54   86.79 
   4   0   0  211.88    5.20 
   4   0   0  192.78    5.20 
  -4   0   0  204.68    4.80 
   4   0   0  197.98    5.80 
   4   0   0  201.68    4.80 
  -4   0   0  193.58    4.90 
   4   0   0  184.38    6.10 
  -4   0   0  190.18    4.80 
   4   0   0  195.98    5.50 
   4   0   0  203.28    4.90 
  -4   0   0  195.08    4.90 
  -4   0   0  201.18    4.80 
  -4   0   0  208.28    4.80 
  -4   0   0  198.58    4.90 
   6   0   0   12.40    1.30 
  -6   0   0   10.90    1.10 
  -6   0   0   11.60    1.10 
  -6   0   0    8.60    0.90 
  -6   0   0   12.60    1.10 
   6   0   0   14.40    2.10 
   6   0   0   14.10    1.70 
  -6   0   0   10.50    1.10 
  -6   0   0   10.90    1.10 
   6   0   0   12.90    1.10 
   6   0   0    9.20    1.50 
  -6   0   0    8.80    0.90 
   6   0   0   11.50    1.80 
  -8   0   0 2933.81   64.09 
   8   0   0 2842.52   65.49 
   8   0   0 2945.41   64.09 
   8   0   0 2960.70   64.59 
   8   0   0 2796.82   66.19 
  -8   0   0 2877.91   64.19 
  -8   0   0 2914.91   64.09 
  -8   0   0 2860.01   64.09 
  -8   0   0 2893.21   64.19 
  -8   0   0 2857.31   64.29 
   8   0   0 2845.92   65.29 
  -8   0   0 2872.71   64.29 
   8   0   0 2924.81   64.79 
 -10   0   0 3168.98   72.19 
  10   0   0 3355.56   72.59 
  10   0   0 3257.27   71.89 
 -10   0   0 3250.87   71.99 
 -10   0   0 3203.28   72.29 
 -10   0   0 3223.38   71.99 
 -10   0   0 3205.28   71.99 
  10   0   0 3337.37   72.79 
  10   0   0 3219.88   74.59 
  10   0   0 3224.58   73.39 
 -10   0   0 3264.47   72.09 
  10   0   0 3197.58   73.69 
 -10   0   0 3158.48   71.89 
 -12   0   0 3320.57   75.59 
  12   0   0 3514.05   77.19 
 -12   0   0 3373.16   75.29 
 -12   0   0 3359.66   75.69 
  12   0   0 3514.25   76.09 
  12   0   0 3430.86   76.19 
  12   0   0 3338.17   75.29 
 -12   0   0 3203.18   75.19 
  12   0   0 3421.16   78.49 
 -12   0   0 3399.56   75.39 
  12   0   0 3330.27   77.19 
 -12   0   0 3349.17   75.29 
 -14   0   0 1179.68   27.40 
  14   0   0 1244.08   29.50 
 -14   0   0 1175.88   27.80 
  14   0   0 1144.09   27.20 
  14   0   0 1210.58   30.80 
  14   0   0 1147.59   29.40 
  14   0   0 1216.28   28.00 
 -14   0   0 1152.18   27.20 
  14   0   0 1181.98   28.10 
 -14   0   0 1136.49   27.20 
 -14   0   0 1137.09   27.50 
 -16   0   0    2.00    1.60 
  16   0   0    1.00    2.50 
  16   0   0    6.20    3.00 
 -16   0   0    5.90    1.80 
  16   0   0    2.40    1.90 
 -16   0   0    6.60    2.10 
  16   0   0    4.30    1.90 
  16   0   0    7.30    3.50 
 -16   0   0    2.00    1.70 
 -18   0   0  170.38    6.20 
  18   0   0  172.68    7.10 
 -18   0   0  175.18    6.90 
  18   0   0  167.08    9.70 
  18   0   0  186.38    8.70 
 -18   0   0  169.68    6.50 
  18   0   0  176.88    8.60 
  18   0   0  179.28    6.70 
 -20   0   0 1044.80   26.20 
  20   0   0 1063.89   26.80 
 -20   0   0 1032.80   25.80 
  20   0   0 1076.19   28.90 
  20   0   0 1037.50   26.40 
  20   0   0 1086.29   30.20 
  20   0   0 1170.58   28.90 
 -20   0   0 1064.69   26.60 
 -22   0   0 1193.88   29.10 
 -22   0   0 1187.18   29.50 
  22   0   0 1193.88   30.10 
  22   0   0 1186.18   32.10 
  22   0   0 1239.78   33.90 
 -22   0   0 1227.18   30.00 
 -24   0   0  440.06   12.90 
 -24   0   0  443.16   16.00 
  24   0   0  441.06   18.90 
  24   0   0  443.06   16.20 
 -24   0   0  455.45   14.00 
  26   0   0   96.19   12.20 
  -1  -1   0 1048.20   23.10 
  -1  -1   0 1018.70   23.10 
   1  -1   0 1014.20   23.40 
  -1   1   0 1008.50   23.80 
  -1   1   0 1047.10   23.20 
   1   1   0 1022.40   23.20 
  -1   1   0 1047.40   23.80 
   1   1   0 1030.20   23.40 
   1   1   0 1042.90   23.10 
  -1   1   0 1033.40   23.50 
   1   1   0 1086.79   23.50 
  -1   1   0 1007.90   23.60 
   1   1   0 1034.00   23.20 
   1   1   0 1074.59   23.60 
  -1   1   0 1088.89   23.20 
   1   1   0 1013.40   23.90 
  -1   1   0 1050.29   23.10 
   1   1   0 1034.80   23.10 
  -3  -1   0 3169.88   72.59 
   3  -1   0 3192.28   73.29 
  -3  -1   0 3249.97   73.09 
  -3  -1   0 3269.27   73.39 
   3  -1   0 3318.27   72.89 
   3  -1   0 3068.19   74.79 
  -3  -1   0 3290.27   74.09 
   3  -1   0 3225.18   74.09 
  -3  -1   0 3251.07   72.99 
   3  -1   0 3244.98   73.19 
  -3  -1   0 3154.88   72.89 
  -3   1   0 3276.77   73.09 
   3   1   0 3245.18   74.59 
  -3   1   0 3348.57   74.69 
   3   1   0 3357.36   73.79 
   3   1   0 3330.67   74.19 
   3   1   0 3588.84   72.89 
   3   1   0 3238.88   73.49 
  -3   1   0 3270.67   72.99 
   3   1   0 3433.96   74.49 
  -3   1   0 3278.67   72.69 
  -3   1   0 3250.97   72.79 
  -3   1   0 3252.57   73.79 
   5  -1   0 4224.78   90.59 
   5  -1   0 4196.18   90.39 
  -5  -1   0 3939.41   90.19 
  -5  -1   0 4206.58   91.59 
  -5  -1   0 3995.60   90.69 
  -5  -1   0 4000.60   90.09 
   5  -1   0 3949.80   91.79 
   5  -1   0 3933.51   91.69 
  -5  -1   0 4144.09   90.69 
   5  -1   0 3822.12   90.79 
  -5  -1   0 4067.09   91.29 
   5  -1   0 3932.61   90.39 
   5  -1   0 4003.40   91.79 
   5  -1   0 4095.19   91.39 
  -5   1   0 4033.00   90.49 
  -5   1   0 4197.18   90.39 
   5   1   0 4300.67   92.29 
  -5   1   0 4193.98   90.79 
   5   1   0 3665.33   90.29 
  -5   1   0 4135.59   90.49 
   5   1   0 4092.89   93.29 
   5   1   0 4191.48   92.79 
  -5   1   0 4013.50   91.49 
   7  -1   0 3522.55   79.59 
  -7  -1   0 3495.55   79.49 
   7  -1   0 3593.84   79.49 
   7  -1   0 3501.45   80.89 
  -7  -1   0 3676.53   80.79 
  -7  -1   0 3582.84   80.19 
   7  -1   0 3543.25   80.59 
  -7  -1   0 3666.53   79.89 
  -7  -1   0 3473.25   79.19 
   7  -1   0 3527.85   79.99 
   7  -1   0 3524.85   79.79 
  -7  -1   0 3505.55   79.39 
   7  -1   0 3515.65   80.49 
   7   1   0 3763.62   79.69 
  -7   1   0 3641.84   79.29 
   7   1   0 3814.22   80.19 
   7   1   0 3694.33   80.89 
  -7   1   0 3620.54   79.79 
  -7   1   0 3580.34   79.49 
   7   1   0 3440.76   80.19 
  -7   1   0 3543.85   79.89 
  -7   1   0 3436.66   79.79 
   7   1   0 3647.93   80.29 
  -9  -1   0 1116.69   25.80 
   9  -1   0 1099.59   28.20 
  -9  -1   0 1170.18   26.10 
   9  -1   0 1109.49   27.50 
   9  -1   0 1095.49   26.20 
   9  -1   0 1086.39   26.80 
   9  -1   0 1120.39   26.00 
  -9  -1   0 1130.89   26.10 
  -9  -1   0 1143.09   25.80 
   9  -1   0 1112.39   26.50 
   9  -1   0 1144.79   26.00 
  -9  -1   0 1127.99   25.80 
   9  -1   0 1157.78   26.00 
  -9  -1   0 1132.29   26.00 
  -9   1   0 1104.89   25.90 
  -9   1   0 1174.38   25.70 
   9   1   0 1132.19   28.10 
   9   1   0 1162.18   26.50 
   9   1   0 1117.29   27.20 
   9   1   0 1162.88   26.40 
  -9   1   0 1155.78   26.00 
   9   1   0 1091.99   27.30 
  -9   1   0 1128.99   25.90 
  -9   1   0 1159.28   25.90 
  11  -1   0   17.70    2.10 
  11  -1   0   25.60    2.50 
  11  -1   0   18.80    3.20 
 -11  -1   0   21.80    2.20 
 -11  -1   0   21.80    1.80 
 -11  -1   0   25.10    2.10 
  11  -1   0   19.20    2.00 
  11  -1   0   23.00    3.00 
 -11  -1   0   20.20    1.90 
 -11  -1   0   24.70    2.20 
  11  -1   0   22.70    2.00 
  11  -1   0   19.70    2.80 
  11  -1   0   28.00    2.10 
  11   1   0   30.80    3.70 
 -11   1   0   19.90    1.80 
 -11   1   0   21.90    2.30 
  11   1   0   25.70    2.60 
 -11   1   0   20.30    2.00 
  11   1   0   18.90    3.00 
  11   1   0   18.30    3.20 
  11   1   0   24.60    2.70 
 -11   1   0   24.50    2.10 
  13  -1   0 1178.38   28.00 
 -13  -1   0 1173.78   27.50 
 -13  -1   0 1175.48   27.80 
  13  -1   0 1163.08   27.60 
  13  -1   0 1168.48   28.30 
 -13  -1   0 1185.38   27.50 
  13  -1   0 1198.78   29.30 
  13  -1   0 1161.78   30.70 
 -13  -1   0 1174.28   27.50 
 -13  -1   0 1178.08   27.90 
  13  -1   0 1176.18   29.60 
  13  -1   0 1188.58   27.80 
 -13   1   0 1189.08   27.70 
  13   1   0 1192.78   30.00 
 -13   1   0 1226.68   27.50 
  13   1   0 1233.88   28.50 
 -13   1   0 1163.88   27.80 
  13   1   0 1183.18   29.70 
 -13   1   0 1188.58   27.80 
 -13   1   0 1213.58   27.60 
  13   1   0 1153.78   30.90 
  13   1   0 1260.17   28.40 
  15  -1   0 2416.56   54.59 
 -15  -1   0 2349.86   54.09 
  15  -1   0 2309.37   56.29 
 -15  -1   0 2379.86   54.09 
 -15  -1   0 2330.97   54.39 
  15  -1   0 2366.86   57.59 
  15  -1   0 2351.76   54.29 
 -15  -1   0 2346.87   54.59 
  15  -1   0 2385.66   56.09 
  15  -1   0 2402.46   54.99 
 -15  -1   0 2361.86   54.09 
 -15  -1   0 2325.87   54.29 
  15   1   0 2429.96   55.19 
 -15   1   0 2431.46   54.29 
 -15   1   0 2388.96   54.49 
  15   1   0 2407.96   56.69 
 -15   1   0 2394.96   54.59 
  15   1   0 2482.15   55.09 
 -15   1   0 2375.06   54.39 
  15   1   0 2543.25   57.09 
  15   1   0 2462.95   58.39 
  17  -1   0 1362.56   31.30 
 -17  -1   0 1282.77   31.00 
 -17  -1   0 1242.68   30.90 
  17  -1   0 1317.27   33.00 
  17  -1   0 1305.87   31.60 
  17  -1   0 1267.47   34.40 
  17  -1   0 1268.87   33.00 
 -17  -1   0 1299.07   30.70 
 -17  -1   0 1268.97   30.60 
 -17  -1   0 1301.77   31.40 
  17   1   0 1431.56   34.00 
  17   1   0 1290.47   33.50 
  17   1   0 1363.56   35.40 
 -17   1   0 1320.37   31.30 
 -17   1   0 1321.27   31.20 
  17   1   0 1321.27   31.60 
  17   1   0 1336.07   31.90 
 -17   1   0 1334.57   30.90 
  19  -1   0  571.14   17.50 
  19  -1   0  586.64   19.20 
 -19  -1   0  559.44   15.70 
 -19  -1   0  573.84   15.40 
 -19  -1   0  559.44   14.90 
  19  -1   0  590.24   17.60 
  19  -1   0  561.34   15.70 
  19   1   0  571.14   15.90 
 -19   1   0  594.44   15.80 
 -19   1   0  584.64   15.20 
  19   1   0  585.74   18.10 
  19   1   0  587.04   19.80 
 -19   1   0  571.44   15.50 
  19   1   0  580.74   16.30 
  19   1   0  634.74   18.40 
 -21  -1   0   40.50    4.20 
  21  -1   0   38.70    5.20 
  21  -1   0   44.90    5.00 
  21  -1   0   40.20    6.10 
  21  -1   0   46.30    5.50 
 -21  -1   0   43.10    3.90 
 -21  -1   0   45.10    4.20 
 -21   1   0   49.20    5.20 
 -21   1   0   41.70    3.70 
  21   1   0   47.40    5.70 
  21   1   0   40.30    5.70 
  21   1   0   43.90    6.70 
  21   1   0   40.90    5.00 
 -21   1   0   42.30    4.00 
 -23  -1   0  122.89    7.20 
 -23  -1   0  135.39    6.20 
 -23  -1   0  129.09    6.70 
  23  -1   0  132.79    9.30 
 -23   1   0  131.79    6.80 
  23   1   0  124.09    7.50 
 -23   1   0  129.59    7.30 
 -23   1   0  133.19    6.50 
  23   1   0  130.99    9.70 
  25  -1   0  418.76   15.70 
 -25  -1   0  395.76   12.00 
 -25  -1   0  402.66   13.30 
  25   1   0  405.56   16.00 
  25   1   0  405.76   13.60 
 -25   1   0  388.16   14.40 
   0   2   0 8788.32  193.58 
   0   2   0 8913.81  194.98 
   0   2   0 8902.11  192.38 
   0   2   0 8399.96  196.08 
   0   2   0 8491.05  194.98 
   0   2   0 8713.03  193.18 
   0   2   0 8748.32  193.98 
   0   2   0 8505.85  194.78 
  -2  -2   0 5741.33  127.99 
  -2  -2   0 5606.94  129.39 
  -2  -2   0 5508.85  126.99 
   2  -2   0 5591.44  127.69 
  -2   2   0 5484.85  130.19 
  -2   2   0 5559.64  128.99 
  -2   2   0 5733.03  129.69 
   2   2   0 5670.33  128.39 
   2   2   0 5729.53  128.79 
  -2   2   0 5740.63  129.59 
  -2   2   0 5902.71  127.39 
  -2   2   0 5679.03  127.29 
   2   2   0 5984.60  129.39 
   2   2   0 5777.12  128.89 
   2   2   0 5828.52  128.69 
  -2   2   0 5755.62  127.89 
   2   2   0 5856.91  128.09 
   2   2   0 5647.44  129.99 
   2   2   0 5809.52  126.99 
   4  -2   0  212.48    5.30 
   4  -2   0  213.18    5.50 
   4  -2   0  214.08    6.10 
   4  -2   0  227.88    5.30 
  -4  -2   0  224.98    6.00 
  -4  -2   0  226.58    5.30 
  -4  -2   0  216.28    5.50 
  -4  -2   0  221.98    5.60 
  -4  -2   0  212.98    5.70 
  -4  -2   0  213.28    5.50 
   4   2   0  215.08    5.30 
   4   2   0  218.78    5.70 
  -4   2   0  229.48    5.50 
   4   2   0  217.78    5.80 
  -4   2   0  217.68    6.10 
  -4   2   0  228.18    5.50 
   4   2   0  222.98    6.00 
   4   2   0  226.28    6.00 
  -4   2   0  224.18    5.30 
   4   2   0  222.48    6.30 
   4   2   0  224.98    5.70 
   6  -2   0  310.17    9.00 
  -6  -2   0  313.07    8.00 
  -6  -2   0  305.67    7.80 
   6  -2   0  325.87    7.60 
   6  -2   0  311.57    8.70 
  -6  -2   0  315.97    8.30 
  -6  -2   0  313.77    7.70 
  -6  -2   0  310.17    7.70 
  -6  -2   0  318.27    7.60 
   6  -2   0  310.37    8.10 
   6  -2   0  315.37    7.70 
  -6   2   0  318.17    8.20 
  -6   2   0  311.97    7.70 
   6   2   0  325.87    8.50 
   6   2   0  325.37    8.90 
  -6   2   0  313.77    7.70 
   6   2   0  326.67    8.10 
   6   2   0  308.37    8.30 
  -6   2   0  329.07    7.70 
  -6   2   0  315.87    8.50 
   6   2   0  327.07    8.20 
  -8  -2   0  850.91   19.50 
  -8  -2   0  813.42   19.50 
  -8  -2   0  816.32   19.70 
   8  -2   0  826.62   21.00 
   8  -2   0  856.61   19.70 
   8  -2   0  819.82   20.20 
   8  -2   0  851.81   21.50 
   8  -2   0  809.32   20.00 
  -8  -2   0  837.82   19.50 
   8  -2   0  872.51   19.50 
  -8  -2   0  849.81   19.90 
  -8  -2   0  861.81   20.20 
   8  -2   0  830.92   20.50 
   8   2   0  872.21   21.30 
   8   2   0  832.92   20.50 
  -8   2   0  872.01   19.60 
  -8   2   0  895.01   19.60 
  -8   2   0  840.12   20.10 
   8   2   0  900.11   20.30 
   8   2   0  866.21   20.70 
  -8   2   0  805.42   19.50 
   8   2   0  883.41   20.20 
  -8   2   0  874.31   19.30 
 -10  -2   0 3866.71   85.59 
 -10  -2   0 3774.02   85.09 
  10  -2   0 3719.33   85.69 
  10  -2   0 3819.82   85.09 
  10  -2   0 3812.72   87.39 
  10  -2   0 3740.23   85.39 
 -10  -2   0 3793.82   84.89 
 -10  -2   0 3824.72   84.79 
  10  -2   0 3730.63   86.69 
 -10  -2   0 3749.12   84.89 
  10  -2   0 3802.02   86.09 
 -10  -2   0 3755.22   85.39 
  10   2   0 4022.40   85.79 
 -10   2   0 3865.51   84.99 
  10   2   0 3926.91   86.59 
 -10   2   0 3786.02   85.39 
 -10   2   0 3842.32   84.69 
  10   2   0 3747.23   86.29 
  10   2   0 3999.10   85.79 
 -10   2   0 3859.81   84.99 
  10   2   0 4004.00   87.49 
 -10   2   0 3625.54   84.89 
 -12  -2   0 2677.23   60.59 
  12  -2   0 2694.13   61.09 
  12  -2   0 2680.43   63.69 
  12  -2   0 2672.23   61.39 
  12  -2   0 2708.03   60.79 
  12  -2   0 2678.33   62.79 
 -12  -2   0 2749.72   61.19 
  12  -2   0 2700.83   60.99 
 -12  -2   0 2741.73   60.49 
 -12  -2   0 2672.23   60.49 
 -12  -2   0 2617.94   60.99 
 -12  -2   0 2695.13   60.79 
  12  -2   0 2674.73   62.09 
 -12   2   0 2705.43   60.69 
  12   2   0 2768.12   64.09 
  12   2   0 2709.43   61.59 
  12   2   0 2702.33   61.39 
  12   2   0 2775.02   62.79 
  12   2   0 2651.03   62.59 
 -12   2   0 2717.53   60.69 
 -12   2   0 2744.33   61.09 
 -12   2   0 2626.74   60.69 
 -14  -2   0  607.14   15.00 
 -14  -2   0  615.94   15.10 
 -14  -2   0  599.34   15.60 
  14  -2   0  610.34   17.10 
  14  -2   0  599.54   17.60 
  14  -2   0  611.24   18.80 
  14  -2   0  604.84   16.00 
 -14  -2   0  627.44   15.70 
  14  -2   0  616.64   15.60 
  14  -2   0  620.34   15.60 
  14  -2   0  594.44   15.30 
 -14  -2   0  610.64   15.40 
 -14  -2   0  615.84   15.00 
 -14   2   0  621.94   15.30 
 -14   2   0  582.34   15.40 
  14   2   0  651.03   16.40 
  14   2   0  604.04   17.80 
 -14   2   0  594.64   15.30 
  14   2   0  592.24   17.60 
  14   2   0  604.54   19.20 
  14   2   0  636.74   16.20 
 -14   2   0  624.14   15.70 
 -16  -2   0   76.39    4.50 
  16  -2   0   65.49    5.70 
 -16  -2   0   62.39    4.10 
 -16  -2   0   67.09    3.80 
  16  -2   0   61.89    5.90 
 -16  -2   0   65.99    4.10 
  16  -2   0   64.39    4.10 
  16  -2   0   69.69    4.40 
  16  -2   0   59.09    4.50 
  16  -2   0   62.69    6.90 
 -16  -2   0   63.79    3.50 
 -16  -2   0   68.79    3.60 
 -16   2   0   57.69    4.20 
  16   2   0   61.89    4.90 
  16   2   0   62.59    6.30 
 -16   2   0   73.69    4.20 
  16   2   0   64.09    4.60 
  16   2   0   51.99    7.50 
 -16   2   0   66.29    4.00 
  16   2   0   56.69    6.40 
 -16   2   0   65.79    4.10 
 -18  -2   0  316.87    9.10 
 -18  -2   0  279.27    9.30 
  18  -2   0  284.27    9.30 
 -18  -2   0  273.47    8.40 
  18  -2   0  293.07   12.60 
 -18  -2   0  288.27    8.60 
  18  -2   0  274.47   10.80 
  18  -2   0  274.17   11.10 
  18  -2   0  271.17    9.00 
 -18  -2   0  279.17    8.40 
 -18  -2   0  262.47    9.00 
  18   2   0  280.47   11.80 
 -18   2   0  280.07    9.10 
 -18   2   0  269.17    8.90 
  18   2   0  273.27   13.50 
  18   2   0  288.07    9.70 
 -18   2   0  278.57    9.30 
 -18   2   0  282.17    8.80 
  18   2   0  303.97   10.10 
  20  -2   0  928.91   25.20 
 -20  -2   0  886.61   23.20 
 -20  -2   0  869.01   23.00 
  20  -2   0  897.21   26.80 
 -20  -2   0  910.11   22.80 
 -20  -2   0  903.01   22.10 
  20  -2   0  909.41   25.30 
  20   2   0  907.71   23.90 
  20   2   0  953.50   28.50 
 -20   2   0  923.01   22.80 
  20   2   0  892.21   26.00 
  20   2   0  886.41   23.50 
 -20   2   0  922.81   23.10 
  20   2   0  872.61   23.30 
 -20   2   0  949.21   23.40 
  22  -2   0  985.40   26.70 
  22  -2   0  969.60   28.60 
  22  -2   0  898.11   26.20 
 -22  -2   0  922.81   23.70 
 -22  -2   0  927.81   24.40 
 -22  -2   0  904.11   23.10 
 -22   2   0  960.30   24.20 
  22   2   0  933.31   24.60 
  22   2   0  927.11   27.10 
  22   2   0  989.80   29.80 
 -22   2   0  932.81   23.70 
  22   2   0  935.01   25.00 
  24  -2   0  552.44   19.40 
  24  -2   0  536.55   18.00 
 -24  -2   0  524.55   15.80 
 -24   2   0  531.65   15.00 
  24   2   0  530.25   16.40 
  24   2   0  514.35   18.60 
  24   2   0  488.05   16.80 
   1  -3   0  132.49    3.60 
  -1  -3   0  117.19    3.20 
   1  -3   0  114.59    3.40 
  -1  -3   0  113.19    3.70 
  -1  -3   0  115.29    3.40 
   1   3   0  109.69    4.10 
   1   3   0  115.09    3.50 
   1   3   0  111.29    3.60 
   1   3   0  118.29    3.20 
   1   3   0  114.19    3.80 
   1   3   0  117.89    3.50 
  -1   3   0  110.79    3.30 
   1   3   0  112.79    3.80 
  -1   3   0  114.69    3.20 
  -1   3   0  114.79    3.80 
   1   3   0  119.19    3.50 
  -1   3   0  113.39    4.20 
  -1   3   0  112.99    3.50 
  -1   3   0  114.39    3.90 
  -3  -3   0 2763.72   61.09 
  -3  -3   0 2696.83   60.79 
  -3  -3   0 2730.73   61.49 
   3  -3   0 2748.02   61.19 
   3  -3   0 2711.33   61.39 
  -3   3   0 2707.03   61.99 
   3   3   0 2801.42   61.59 
  -3   3   0 2746.33   61.69 
   3   3   0 2799.32   61.19 
  -3   3   0 2739.23   61.59 
  -3   3   0 2677.13   60.79 
   3   3   0 2762.32   61.89 
   3   3   0 2747.72   61.39 
   3   3   0 2800.72   61.09 
   3   3   0 2718.53   62.89 
   3   3   0 2668.93   60.99 
  -3   3   0 2802.62   60.79 
  -5  -3   0 3248.48   71.79 
  -5  -3   0 3269.97   71.89 
  -5  -3   0 3190.98   71.79 
   5  -3   0 3190.68   72.39 
   5  -3   0 3206.48   71.99 
  -5  -3   0 3283.67   73.29 
  -5  -3   0 3210.48   72.09 
   5  -3   0 3315.07   71.69 
   5  -3   0 3232.28   72.69 
  -5  -3   0 3200.38   71.89 
   5   3   0 3149.08   71.89 
  -5   3   0 3167.18   72.59 
   5   3   0 3293.17   73.09 
   5   3   0 3226.78   72.59 
  -5   3   0 3249.07   72.79 
   5   3   0 3212.88   73.69 
  -5   3   0 3304.67   71.79 
   5   3   0 3324.57   72.69 
   5   3   0 3258.17   72.49 
   5   3   0 3248.07   73.19 
  -5   3   0 3225.18   71.79 
  -7  -3   0 1627.14   36.70 
  -7  -3   0 1624.54   37.00 
  -7  -3   0 1618.34   37.30 
   7  -3   0 1653.33   36.90 
  -7  -3   0 1610.64   36.90 
   7  -3   0 1706.93   36.80 
   7  -3   0 1582.24   38.10 
  -7  -3   0 1631.54   36.90 
   7  -3   0 1634.84   38.70 
   7  -3   0 1600.14   37.30 
  -7  -3   0 1638.74   37.70 
  -7   3   0 1677.13   36.90 
   7   3   0 1635.24   38.50 
   7   3   0 1702.93   37.80 
   7   3   0 1610.34   36.50 
  -7   3   0 1646.04   38.00 
   7   3   0 1666.93   37.90 
  -7   3   0 1619.54   37.70 
   7   3   0 1662.83   37.50 
  -7   3   0 1620.34   36.90 
  -9  -3   0 1382.56   31.90 
  -9  -3   0 1368.76   32.20 
   9  -3   0 1372.36   32.50 
  -9  -3   0 1383.66   31.70 
   9  -3   0 1386.66   32.90 
  -9  -3   0 1402.66   31.60 
  -9  -3   0 1406.56   32.60 
  -9  -3   0 1394.56   31.70 
   9  -3   0 1350.16   32.30 
   9  -3   0 1387.66   31.80 
   9  -3   0 1365.46   33.90 
   9  -3   0 1369.36   33.40 
   9   3   0 1427.76   32.80 
   9   3   0 1409.46   33.00 
  -9   3   0 1362.66   32.60 
   9   3   0 1446.26   32.50 
  -9   3   0 1348.37   31.80 
   9   3   0 1430.36   33.90 
   9   3   0 1451.25   32.60 
  -9   3   0 1434.26   31.80 
  -9   3   0 1405.36   31.70 
  11  -3   0    8.70    2.60 
  11  -3   0    7.70    1.80 
  11  -3   0    4.30    2.30 
 -11  -3   0    3.40    1.60 
 -11  -3   0    4.60    1.40 
 -11  -3   0    8.90    1.50 
  11  -3   0    8.40    2.00 
 -11  -3   0    4.80    1.20 
 -11  -3   0    4.10    1.70 
  11  -3   0   12.00    1.60 
 -11  -3   0    6.70    1.40 
  11  -3   0    3.60    1.70 
 -11   3   0    7.60    1.40 
 -11   3   0    4.10    1.60 
  11   3   0    8.30    1.80 
  11   3   0    4.40    2.40 
 -11   3   0    5.90    1.40 
 -11   3   0   10.10    1.50 
  11   3   0    7.20    2.00 
  11   3   0   10.60    2.00 
  13  -3   0  915.01   22.90 
 -13  -3   0  948.61   21.80 
  13  -3   0  908.61   22.70 
 -13  -3   0  911.21   22.20 
  13  -3   0  923.41   22.20 
 -13  -3   0  938.01   22.90 
  13  -3   0  906.71   24.30 
 -13  -3   0  904.51   21.90 
  13  -3   0  915.91   22.40 
 -13  -3   0  904.51   22.60 
 -13  -3   0  921.91   21.80 
  13  -3   0  925.01   23.80 
  13  -3   0  937.61   25.40 
  13   3   0  935.81   23.10 
 -13   3   0  890.41   22.10 
  13   3   0  973.10   23.80 
  13   3   0  916.31   23.10 
 -13   3   0  908.51   22.00 
 -13   3   0  913.51   22.80 
  13   3   0  962.70   24.40 
  13   3   0  979.00   25.80 
 -13   3   0  918.21   22.10 
 -15  -3   0 1379.46   32.30 
  15  -3   0 1390.26   33.50 
 -15  -3   0 1389.26   32.80 
  15  -3   0 1401.06   35.30 
  15  -3   0 1421.56   34.80 
 -15  -3   0 1389.56   32.30 
  15  -3   0 1391.26   33.30 
  15  -3   0 1425.36   36.80 
 -15  -3   0 1396.86   32.50 
 -15  -3   0 1383.96   33.20 
  15  -3   0 1384.76   32.70 
 -15  -3   0 1389.06   33.40 
 -15   3   0 1337.17   32.80 
  15   3   0 1417.96   35.20 
 -15   3   0 1399.96   33.40 
 -15   3   0 1377.06   32.70 
  15   3   0 1440.76   37.50 
  15   3   0 1405.56   35.50 
  15   3   0 1383.56   33.90 
 -15   3   0 1368.06   32.70 
  15   3   0 1419.86   33.80 
 -17  -3   0 1268.77   29.90 
 -17  -3   0 1261.47   30.00 
 -17  -3   0 1297.47   30.50 
 -17  -3   0 1276.77   31.20 
  17  -3   0 1299.67   35.20 
  17  -3   0 1270.27   30.50 
  17  -3   0 1275.47   31.00 
 -17  -3   0 1283.37   31.00 
  17  -3   0 1253.67   33.30 
 -17  -3   0 1316.87   30.20 
  17  -3   0 1321.27   33.10 
  17   3   0 1305.17   31.90 
  17   3   0 1322.27   31.70 
  17   3   0 1167.18   33.30 
 -17   3   0 1302.47   31.20 
 -17   3   0 1238.58   30.60 
  17   3   0 1246.18   35.90 
 -17   3   0 1286.97   30.50 
 -19  -3   0  331.87   10.00 
 -19  -3   0  366.26   10.80 
 -19  -3   0  363.76   10.40 
 -19  -3   0  332.67   11.20 
  19  -3   0  362.66   15.00 
  19  -3   0  351.36   13.40 
  19  -3   0  354.46   13.20 
 -19  -3   0  351.06   11.20 
  19  -3   0  350.96   11.20 
 -19   3   0  352.06   10.70 
  19   3   0  335.37   14.10 
 -19   3   0  344.27   10.90 
  19   3   0  356.06   11.80 
 -19   3   0  352.76   11.20 
  19   3   0  359.66   12.20 
  19   3   0  324.17   16.00 
  21  -3   0   29.20    5.00 
  21  -3   0   32.40    5.20 
 -21  -3   0   31.60    4.10 
 -21  -3   0   28.80    3.60 
 -21  -3   0   33.30    4.20 
 -21  -3   0   34.50    3.90 
  21  -3   0   31.50    6.00 
 -21   3   0   32.90    3.90 
  21   3   0   31.80    4.50 
  21   3   0   35.00    4.30 
  21   3   0   31.70    6.20 
  21   3   0   25.90    4.40 
  21   3   0   27.30    7.30 
 -21   3   0   26.50    3.60 
  23  -3   0   79.69    8.40 
 -23  -3   0   79.39    6.60 
  23  -3   0   78.89    8.50 
  23   3   0   67.79    6.70 
 -23   3   0   68.59    5.70 
  23   3   0   72.99    7.10 
  23   3   0   66.29    8.00 
   0  -4   0 4983.00  108.29 
   0  -4   0 4906.71  110.89 
   0  -4   0 4814.92  108.09 
   0   4   0 4779.42  110.09 
   0   4   0 4978.10  109.49 
   0   4   0 5069.89  108.99 
   0   4   0 4909.81  109.89 
   0   4   0 4846.62  108.99 
   0   4   0 4639.84  108.79 
   0   4   0 4799.12  111.59 
   0   4   0 4846.52  108.39 
  -2  -4   0 2544.35   56.59 
   2  -4   0 2517.75   56.59 
  -2  -4   0 2508.85   56.29 
   2  -4   0 2532.65   56.59 
  -2  -4   0 2446.26   56.99 
   2   4   0 2503.95   56.79 
   2   4   0 2438.26   56.89 
  -2   4   0 2484.85   57.89 
  -2   4   0 2518.75   57.29 
   2   4   0 2507.05   57.79 
   2   4   0 2562.94   56.79 
  -2   4   0 2550.84   56.29 
  -2   4   0 2518.05   56.69 
   2   4   0 2549.04   57.29 
  -2   4   0 2531.95   57.39 
   2   4   0 2586.74   56.69 
   2   4   0 2585.94   57.29 
   2   4   0 2572.64   56.29 
  -2   4   0 2502.65   57.29 
  -2   4   0 2636.34   56.49 
  -4  -4   0  183.48    5.90 
  -4  -4   0  186.68    5.40 
   4  -4   0  180.98    4.90 
   4  -4   0  182.68    5.30 
   4  -4   0  173.88    4.60 
  -4  -4   0  173.58    5.00 
   4   4   0  185.78    5.50 
   4   4   0  182.58    5.60 
  -4   4   0  183.88    5.00 
   4   4   0  182.88    5.40 
  -4   4   0  182.68    5.00 
   4   4   0  187.18    5.30 
   4   4   0  179.88    5.80 
   4   4   0  184.08    6.40 
  -4   4   0  180.08    6.10 
   4   4   0  184.98    6.00 
  -4   4   0  182.68    6.00 
  -6  -4   0   69.59    3.00 
   6  -4   0   78.09    4.00 
  -6  -4   0   74.59    2.90 
  -6  -4   0   79.39    3.30 
  -6  -4   0   75.09    3.00 
   6  -4   0   75.39    3.20 
  -6  -4   0   72.69    3.70 
   6  -4   0   76.19    2.60 
  -6  -4   0   76.79    2.50 
   6   4   0   72.99    3.40 
   6   4   0   77.99    3.50 
  -6   4   0   81.09    2.90 
   6   4   0   76.69    3.60 
   6   4   0   72.39    2.70 
  -6   4   0   77.69    2.90 
  -6   4   0   73.19    3.90 
   6   4   0   72.89    4.20 
  -6   4   0   80.29    3.90 
   6   4   0   74.89    3.90 
  -8  -4   0  828.32   19.30 
  -8  -4   0  825.82   19.30 
   8  -4   0  841.42   19.90 
   8  -4   0  817.42   21.60 
  -8  -4   0  812.12   19.50 
  -8  -4   0  849.22   20.50 
   8  -4   0  822.12   19.30 
   8  -4   0  801.02   20.80 
  -8  -4   0  842.12   19.00 
  -8  -4   0  829.32   19.90 
  -8   4   0  828.72   19.30 
   8   4   0  815.12   21.40 
  -8   4   0  797.02   19.30 
  -8   4   0  827.62   20.80 
   8   4   0  827.32   20.70 
   8   4   0  835.82   20.20 
   8   4   0  844.82   20.30 
   8   4   0  820.32   20.10 
  -8   4   0  822.02   20.50 
  10  -4   0 2093.39   49.70 
 -10  -4   0 2183.38   48.80 
 -10  -4   0 2184.68   49.70 
  10  -4   0 2119.39   50.99 
 -10  -4   0 2176.88   49.30 
  10  -4   0 2165.78   51.79 
  10  -4   0 2176.68   50.69 
 -10  -4   0 2193.28   49.10 
  10  -4   0 2116.59   49.99 
 -10  -4   0 2204.18   50.29 
 -10  -4   0 2182.48   49.00 
  10  -4   0 2144.89   49.10 
  10   4   0 2134.39   51.59 
 -10   4   0 2249.97   49.20 
 -10   4   0 2081.99   49.30 
 -10   4   0 2131.79   50.29 
  10   4   0 2229.38   50.19 
  10   4   0 2222.58   50.09 
  10   4   0 2198.78   50.79 
  10   4   0 2298.57   50.29 
  12  -4   0 1654.43   40.00 
 -12  -4   0 1659.33   39.40 
  12  -4   0 1619.54   40.50 
  12  -4   0 1647.64   38.40 
 -12  -4   0 1679.53   39.00 
 -12  -4   0 1674.03   38.20 
  12  -4   0 1646.84   41.40 
 -12  -4   0 1652.93   38.40 
 -12  -4   0 1643.04   38.00 
 -12  -4   0 1654.13   37.90 
  12  -4   0 1608.64   39.10 
 -12   4   0 1673.83   39.50 
 -12   4   0 1719.03   38.40 
  12   4   0 1757.92   39.60 
  12   4   0 1695.63   39.50 
  12   4   0 1653.53   40.30 
  12   4   0 1726.73   39.50 
  12   4   0 1643.34   41.40 
 -14  -4   0  538.25   14.20 
  14  -4   0  535.75   17.40 
 -14  -4   0  537.35   13.60 
 -14  -4   0  535.75   15.00 
 -14  -4   0  547.65   14.70 
  14  -4   0  521.85   16.30 
  14  -4   0  542.95   15.90 
 -14  -4   0  533.45   13.80 
  14  -4   0  539.25   15.00 
  14  -4   0  547.55   14.10 
 -14   4   0  552.94   15.10 
  14   4   0  533.25   17.70 
  14   4   0  546.35   15.30 
  14   4   0  554.74   15.40 
 -14   4   0  518.25   13.80 
  14   4   0  551.84   16.50 
 -14   4   0  548.55   14.10 
  16  -4   0   18.00    2.60 
 -16  -4   0   15.10    2.30 
  16  -4   0   21.60    4.70 
 -16  -4   0   19.80    2.50 
  16  -4   0   21.60    3.30 
  16  -4   0   16.70    3.90 
 -16  -4   0   14.60    3.10 
  16  -4   0   21.00    3.80 
 -16  -4   0   27.60    3.40 
 -16  -4   0   23.90    2.90 
 -16   4   0   20.70    2.90 
 -16   4   0   16.40    2.50 
  16   4   0   21.00    3.60 
  16   4   0   17.40    4.20 
  16   4   0   23.70    5.60 
 -16   4   0   17.00    3.00 
  16   4   0   17.10    3.40 
  18  -4   0  192.88   10.00 
 -18  -4   0  174.18    6.60 
  18  -4   0  167.48    6.70 
 -18  -4   0  163.68    7.70 
 -18  -4   0  167.88    7.00 
  18  -4   0  173.08   10.90 
  18  -4   0  193.68    9.60 
  18  -4   0  170.78    7.70 
 -18  -4   0  174.48    7.60 
 -18  -4   0  166.98    6.20 
  18   4   0  159.88   10.10 
 -18   4   0  164.58    6.90 
  18   4   0  176.48    8.30 
  18   4   0  150.08   12.10 
 -18   4   0  164.28    7.00 
  18   4   0  165.08    8.40 
 -18   4   0  171.78    7.70 
 -20  -4   0  594.04   16.90 
 -20  -4   0  607.54   16.20 
  20  -4   0  614.64   19.40 
  20  -4   0  597.84   19.30 
 -20  -4   0  560.64   15.50 
 -20  -4   0  582.24   17.20 
 -20  -4   0  621.64   15.90 
  20  -4   0  600.04   17.20 
  20  -4   0  617.34   29.00 
  20   4   0  551.64   20.10 
  20   4   0  600.94   18.00 
 -20   4   0  591.64   16.30 
  20   4   0  597.94   17.60 
 -20   4   0  600.74   17.20 
  20   4   0  543.75   22.70 
 -20   4   0  575.14   16.60 
 -22  -4   0  715.73   20.50 
  22  -4   0  753.42   22.50 
  22   4   0  708.73   24.00 
  22   4   0  728.43   22.00 
  22   4   0  703.63   20.00 
 -22   4   0  749.53   21.50 
 -24  -4   0  340.17   15.00 
  -1  -5   0  342.17    8.50 
   1  -5   0  332.97    8.40 
  -1  -5   0  333.67    9.30 
   1  -5   0  339.57    9.00 
  -1  -5   0  336.87    9.10 
   1  -5   0  341.27    8.70 
   1  -5   0  341.67    9.00 
  -1  -5   0  342.57    8.80 
  -1   5   0  335.37   10.40 
  -1   5   0  333.47    9.60 
  -1   5   0  350.26    9.10 
  -1   5   0  352.16    8.80 
   1   5   0  338.47    9.70 
   1   5   0  324.87    9.40 
   1   5   0  348.77    8.90 
   1   5   0  328.97    9.10 
   1   5   0  324.87    9.70 
   1   5   0  343.97    8.50 
  -1   5   0  338.37    9.80 
  -1   5   0  333.97    8.40 
   1   5   0  335.67    9.10 
   1   5   0  330.17   10.30 
  -1   5   0  333.47    9.70 
  -3  -5   0 1089.09   25.00 
  -3  -5   0 1056.09   26.00 
  -3  -5   0 1092.29   25.40 
   3  -5   0 1085.19   25.20 
   3  -5   0 1078.99   25.40 
   3   5   0 1112.79   25.50 
   3   5   0 1096.99   26.40 
  -3   5   0 1085.49   26.40 
   3   5   0 1079.19   25.70 
  -3   5   0 1077.19   24.90 
   3   5   0 1101.99   25.80 
  -3   5   0 1090.79   26.50 
   3   5   0 1054.29   26.90 
   3   5   0 1093.19   26.20 
  -3   5   0 1092.99   27.20 
   3   5   0 1092.59   25.80 
  -3   5   0 1141.09   25.20 
  -5  -5   0 1473.65   35.40 
   5  -5   0 1511.75   33.80 
  -5  -5   0 1525.05   34.40 
  -5  -5   0 1482.65   34.70 
  -5  -5   0 1511.65   34.20 
   5  -5   0 1531.95   34.70 
   5  -5   0 1509.55   35.80 
   5   5   0 1476.45   36.30 
   5   5   0 1515.25   35.00 
   5   5   0 1484.15   34.50 
   5   5   0 1484.75   35.00 
   5   5   0 1531.35   35.70 
  -5   5   0 1538.95   36.00 
  -5   5   0 1495.95   35.70 
   5   5   0 1506.35   35.30 
  -5   5   0 1501.35   34.20 
  -5   5   0 1502.45   35.80 
   7  -5   0 1516.05   36.80 
  -7  -5   0 1508.45   35.00 
  -7  -5   0 1546.45   35.30 
   7  -5   0 1573.24   35.70 
  -7  -5   0 1524.25   35.70 
  -7  -5   0 1552.14   36.50 
   7  -5   0 1540.35   34.90 
  -7  -5   0 1552.94   34.60 
  -7  -5   0 1567.54   36.40 
  -7   5   0 1544.85   36.90 
   7   5   0 1526.65   37.50 
   7   5   0 1513.85   35.90 
   7   5   0 1567.74   36.80 
   7   5   0 1565.64   36.20 
  -7   5   0 1532.85   36.70 
   7   5   0 1527.85   36.10 
  -7   5   0 1525.75   35.10 
  -9  -5   0  391.26    9.60 
  -9  -5   0  385.46   10.70 
  -9  -5   0  382.26   10.20 
   9  -5   0  384.46   12.80 
   9  -5   0  370.46   11.90 
  -9  -5   0  382.06   11.40 
  -9  -5   0  379.36    9.90 
   9  -5   0  386.76    9.90 
  -9   5   0  377.96   10.00 
   9   5   0  376.36   12.50 
   9   5   0  397.56   11.10 
   9   5   0  377.86   11.10 
  -9   5   0  386.96   11.50 
   9   5   0  381.26   11.00 
   9   5   0  388.66   11.70 
  11  -5   0    7.90    2.90 
 -11  -5   0    1.60    2.20 
  11  -5   0    8.30    3.10 
  11  -5   0    5.30    2.40 
  11  -5   0    7.10    1.70 
 -11  -5   0    3.60    1.30 
 -11  -5   0    6.20    1.80 
 -11  -5   0    6.80    1.70 
 -11  -5   0    3.40    2.00 
  11   5   0    3.50    2.10 
 -11   5   0    4.30    1.70 
  11   5   0    3.60    2.80 
  11   5   0   10.50    2.90 
  11   5   0    5.10    2.30 
 -11   5   0    5.30    2.30 
  13  -5   0  459.65   15.80 
 -13  -5   0  477.25   12.30 
  13  -5   0  450.95   14.80 
 -13  -5   0  470.25   11.90 
  13  -5   0  464.65   12.40 
 -13  -5   0  459.05   13.20 
 -13  -5   0  467.45   13.80 
 -13  -5   0  448.46   12.50 
  13  -5   0  472.25   13.90 
  13  -5   0  467.25   14.50 
  13   5   0  472.55   13.80 
  13   5   0  462.25   14.80 
  13   5   0  464.55   16.00 
 -13   5   0  469.05   12.50 
  13   5   0  462.05   13.80 
 -13   5   0  480.25   14.00 
 -15  -5   0 1158.18   28.40 
  15  -5   0 1120.09   28.90 
 -15  -5   0 1138.69   27.70 
  15  -5   0 1145.19   31.60 
  15  -5   0 1139.19   27.60 
 -15  -5   0 1148.39   28.90 
  15  -5   0 1114.69   30.20 
 -15  -5   0 1154.08   27.00 
  15  -5   0 1163.08   30.10 
 -15  -5   0 1145.59   27.30 
  15   5   0 1140.39   30.60 
 -15   5   0 1157.88   29.10 
  15   5   0 1156.18   29.30 
 -15   5   0 1126.79   27.60 
  15   5   0 1141.29   29.20 
  15   5   0 1149.48   32.30 
 -17  -5   0  611.84   16.80 
  17  -5   0  592.34   18.60 
  17  -5   0  583.14   15.80 
  17  -5   0  585.14   18.90 
 -17  -5   0  600.84   16.00 
 -17  -5   0  566.04   15.20 
  17  -5   0  602.64   20.50 
  17  -5   0  583.74   17.20 
 -17  -5   0  610.54   15.60 
 -17  -5   0  584.94   17.30 
  17   5   0  589.84   17.80 
 -17   5   0  604.84   17.40 
  17   5   0  589.94   17.70 
  17   5   0  607.44   21.70 
  17   5   0  598.44   19.60 
 -17   5   0  598.24   16.10 
 -19  -5   0  300.37   10.60 
  19  -5   0  278.87   12.60 
 -19  -5   0  281.27   10.90 
  19  -5   0  289.27   12.90 
 -19  -5   0  287.77    9.70 
  19  -5   0  280.77   10.90 
 -19  -5   0  290.27    9.20 
  19   5   0  274.57   13.60 
 -19   5   0  285.47   10.90 
  19   5   0  274.87   11.70 
 -19   5   0  274.87    9.80 
  19   5   0  283.67   12.50 
 -21  -5   0   30.30    4.80 
  21  -5   0   27.80    4.70 
 -21   5   0   33.50    4.80 
  21   5   0   21.70    6.60 
   0  -6   0 2448.16   55.09 
   0  -6   0 2425.16   54.99 
   0   6   0 2392.86   55.09 
   0   6   0 2350.16   55.69 
   0   6   0 2423.36   54.29 
   0   6   0 2446.06   56.09 
   0   6   0 2400.06   55.99 
   0   6   0 2448.75   56.59 
   0   6   0 2423.46   56.89 
   2  -6   0 1020.50   24.60 
  -2  -6   0 1023.60   24.40 
  -2  -6   0 1055.09   24.90 
  -2  -6   0 1043.90   25.20 
   2   6   0 1037.60   25.60 
   2   6   0 1027.00   24.90 
   2   6   0 1015.80   25.10 
   2   6   0 1080.89   24.60 
  -2   6   0 1030.30   26.70 
  -2   6   0 1032.90   25.80 
  -2   6   0  998.80   25.60 
   2   6   0 1042.50   25.80 
  -2   6   0 1049.20   24.00 
   2   6   0 1038.30   26.60 
   4  -6   0  128.09    4.90 
  -4  -6   0  125.19    4.80 
  -4  -6   0  124.69    5.50 
   4   6   0  130.69    5.30 
   4   6   0  125.49    6.60 
   4   6   0  129.39    5.00 
  -4   6   0  130.59    5.90 
  -4   6   0  123.29    5.90 
   4   6   0  132.19    5.30 
   4   6   0  128.79    5.70 
   4   6   0  131.09    6.00 
  -4   6   0  129.59    4.40 
  -6  -6   0   24.20    2.50 
  -6  -6   0   22.80    2.20 
   6  -6   0   29.30    2.10 
  -6  -6   0   25.30    3.10 
   6  -6   0   25.20    3.30 
  -6   6   0   22.60    2.00 
   6   6   0   25.10    2.90 
   6   6   0   21.60    2.60 
   6   6   0   26.90    3.30 
   6   6   0   22.80    3.50 
  -6   6   0   24.80    3.20 
   6   6   0   22.40    3.10 
  -6   6   0   25.80    3.20 
  -8  -6   0  569.64   13.30 
  -8  -6   0  567.54   15.70 
   8  -6   0  560.24   13.70 
   8  -6   0  552.44   17.10 
   8  -6   0  566.44   16.40 
  -8  -6   0  561.74   14.70 
  -8  -6   0  570.64   14.20 
   8   6   0  547.75   15.10 
   8   6   0  560.34   15.20 
  -8   6   0  556.24   14.00 
   8   6   0  537.35   16.70 
   8   6   0  567.94   15.50 
  -8   6   0  565.44   16.20 
  -8   6   0  552.74   15.90 
   8   6   0  562.54   16.00 
 -10  -6   0 1011.90   24.80 
 -10  -6   0 1039.80   25.90 
  10  -6   0 1010.40   26.60 
 -10  -6   0 1019.60   23.40 
 -10  -6   0 1020.50   24.20 
  10  -6   0 1017.80   26.30 
  10  -6   0 1005.00   23.90 
  10  -6   0  998.70   27.50 
  10   6   0  960.80   27.20 
  10   6   0 1012.20   26.30 
  10   6   0 1003.60   25.30 
  10   6   0  999.80   25.40 
 -10   6   0  999.00   24.00 
 -10   6   0 1000.10   26.00 
  12  -6   0  997.30   25.40 
  12  -6   0  959.10   27.20 
 -12  -6   0  985.40   24.30 
 -12  -6   0  973.60   23.70 
  12  -6   0  955.30   23.30 
 -12  -6   0  989.50   25.20 
 -12  -6   0  965.00   22.80 
  12  -6   0  983.10   25.90 
  12  -6   0  947.41   26.20 
  12   6   0  973.90   24.90 
 -12   6   0  987.90   25.50 
  12   6   0  971.20   25.00 
 -12   6   0  949.11   23.40 
  12   6   0  915.01   27.00 
  12   6   0  942.21   25.90 
  14  -6   0  310.07   13.30 
 -14  -6   0  315.27   10.20 
  14  -6   0  294.47    9.30 
  14  -6   0  317.47   12.00 
 -14  -6   0  303.27    8.70 
 -14  -6   0  310.17   10.40 
  14  -6   0  309.17   11.30 
  14  -6   0  302.37   12.40 
 -14  -6   0  307.47   11.20 
 -14   6   0  305.57    9.50 
 -14   6   0  324.87   11.40 
  14   6   0  295.37   13.40 
  14   6   0  315.97   11.30 
  14   6   0  292.97   12.20 
  14   6   0  303.27   11.10 
  16  -6   0    5.30    3.40 
  16  -6   0   10.70    4.20 
  16  -6   0    5.10    3.80 
 -16  -6   0    6.50    3.10 
 -16  -6   0    6.00    3.50 
  16   6   0    5.80    3.50 
  16   6   0    4.90    4.20 
  16   6   0    2.80    4.80 
 -16   6   0    8.80    2.60 
  16   6   0    5.30    3.40 
 -16   6   0    7.90    3.40 
 -18  -6   0   77.89    8.90 
  18  -6   0   71.19    6.90 
 -18  -6   0   63.09    6.90 
 -18   6   0   68.89    5.80 
  18   6   0   62.99    7.50 
 -18   6   0   73.09    6.80 
   1  -7   0   76.09    4.30 
  -1  -7   0   75.69    4.40 
   1   7   0   78.99    5.10 
   1   7   0   73.69    4.50 
   1   7   0   75.89    4.70 
   1   7   0   76.49    6.00 
  -1   7   0   74.89    6.10 
  -1   7   0   75.99    4.90 
  -1   7   0   79.49    5.20 
   1   7   0   75.19    5.30 
   3  -7   0  550.24   17.50 
  -3  -7   0  571.44   15.00 
  -3  -7   0  567.64   15.30 
   3   7   0  535.65   15.90 
   3   7   0  558.84   15.70 
  -3   7   0  540.95   15.80 
  -3   7   0  556.84   16.00 
   3   7   0  542.95   15.00 
   3   7   0  551.64   16.90 
   5  -7   0  835.72   22.30 
  -5  -7   0  830.62   21.60 
  -5  -7   0  846.22   21.30 
   5   7   0  827.42   21.30 
   5   7   0  820.42   21.20 
  -5   7   0  827.02   22.40 
   5   7   0  817.22   22.20 
   5   7   0  823.12   23.10 
   5   7   0  832.12   21.70 
  -5   7   0  823.32   22.10 
  -7  -7   0  586.24   15.50 
   7  -7   0  585.44   14.30 
  -7  -7   0  594.54   16.70 
   7  -7   0  601.04   17.50 
   7   7   0  597.84   17.30 
   7   7   0  575.04   18.00 
   7   7   0  573.14   16.20 
  -7   7   0  581.74   17.20 
  -7   7   0  588.14   14.80 
  -7   7   0  593.64   17.10 
   7   7   0  576.94   16.10 
   9  -7   0  265.07   10.80 
  -9  -7   0  261.77   10.00 
   9  -7   0  254.77    7.70 
  -9  -7   0  269.37    8.90 
   9  -7   0  277.87   10.60 
  -9  -7   0  269.87    7.20 
   9  -7   0  269.17   10.60 
   9  -7   0  272.67   11.80 
   9   7   0  261.57    9.40 
   9   7   0  264.67    9.50 
  -9   7   0  272.17   10.30 
  -9   7   0  259.37    8.10 
   9   7   0  251.77   11.10 
   9   7   0  267.17   10.60 
  11  -7   0    5.30    3.40 
 -11  -7   0    2.30    2.40 
 -11  -7   0    2.40    2.40 
  11  -7   0    0.30    3.50 
 -11  -7   0    1.40    3.10 
  11  -7   0   -0.50    3.10 
  11  -7   0    0.90    3.40 
 -11   7   0    3.60    2.00 
  11   7   0    3.90    3.40 
 -11   7   0    9.00    3.30 
  11   7   0    0.80    2.50 
  11   7   0    5.40    3.00 
  11   7   0    2.90    3.10 
  13  -7   0  275.37   11.40 
 -13  -7   0  301.27   10.20 
 -13  -7   0  287.07   11.20 
 -13   7   0  288.47   11.30 
 -13   7   0  272.17    9.00 
  13   7   0  279.57   12.20 
  13   7   0  287.77   11.00 
 -15  -7   0  482.95   15.90 
  15  -7   0  485.55   16.10 
 -15  -7   0  495.15   14.90 
 -15   7   0  507.55   16.20 
  15   7   0  483.85   17.40 
 -15   7   0  474.25   13.80 
   0  -8   0  861.61   23.30 
   0   8   0  871.11   24.90 
   0   8   0  860.41   23.30 
   0   8   0  852.51   24.80 
   2  -8   0  561.44   16.50 
  -2  -8   0  583.34   15.70 
  -2   8   0  552.84   16.50 
   2   8   0  568.84   16.60 
   2   8   0  552.74   15.70 
  -2   8   0  560.24   16.80 
   2   8   0  542.75   16.90 
   2   8   0  568.64   18.10 
   4  -8   0   62.29    6.10 
  -4  -8   0   58.89    5.00 
   4  -8   0   55.49    6.10 
   4   8   0   65.39    6.00 
  -4   8   0   63.59    5.80 
   4   8   0   59.69    4.90 
   4   8   0   64.09    6.50 
  -4   8   0   57.39    5.60 
  -6  -8   0   28.90    4.00 
  -6  -8   0   22.30    3.50 
   6  -8   0   25.00    4.30 
  -6   8   0   32.20    4.30 
   6   8   0   23.00    3.30 
   6   8   0   20.80    3.90 
   6   8   0   27.60    4.60 
  -6   8   0   34.20    4.50 
  -8  -8   0  189.28    8.80 
   8  -8   0  195.18    9.40 
  -8   8   0  192.48    9.30 
   8   8   0  183.48    8.20 
   8   8   0  188.58    9.50 
 -10  -8   0  596.64   17.90 
  10  -8   0  588.84   18.30 
 -10   8   0  595.34   18.30 
  10   8   0  553.84   18.40 
  12   8   0  427.66   19.10 
   3  -9   0  225.08   10.00 
  -3   9   0  239.48   10.20 
   3   9   0  236.88   13.60 
   5   9   0  313.47   14.20 
  26   0  -1    4.30    4.30 
  26   0  -1    6.20    6.00 
 -24   0   1  144.99    7.10 
 -24   0   1  142.09    7.30 
 -24   0   1  151.78    7.70 
  24   0  -1  149.59    8.30 
  24   0  -1  152.38   10.50 
  22   0  -1  863.71   25.80 
  22   0  -1  837.12   24.50 
  22   0  -1  845.82   22.50 
 -22   0   1  828.32   21.50 
  22   0  -1  799.52   21.90 
 -22   0   1  830.82   21.60 
 -22   0   1  835.82   21.30 
  20   0  -1  999.50   26.00 
  20   0  -1 1024.20   25.80 
  20   0  -1 1043.60   29.20 
 -20   0   1 1014.80   25.20 
 -20   0   1  997.10   25.10 
 -20   0   1 1027.40   24.90 
  20   0  -1 1016.90   27.80 
  18   0  -1 1183.18   31.60 
 -18   0   1 1129.69   27.50 
 -18   0   1 1115.19   27.70 
  18   0  -1 1218.68   29.30 
  18   0  -1 1136.59   28.60 
  18   0  -1 1161.08   28.50 
 -18   0   1 1123.69   27.70 
  18   0  -1 1146.79   30.20 
 -16   0   1  214.08    7.20 
 -16   0   1  212.38    6.80 
  16   0  -1  234.38    8.50 
 -16   0   1  219.68    7.10 
  16   0  -1  223.58    9.20 
  16   0  -1  216.28    7.80 
 -16   0   1  217.08    7.00 
  16   0  -1  224.88    8.10 
 -16   0   1  220.78    7.20 
  16   0  -1  245.48   10.60 
 -16   0   1  213.18    6.60 
 -14   0   1  478.45   12.40 
  14   0  -1  491.95   15.40 
  14   0  -1  483.05   13.20 
  14   0  -1  476.05   13.40 
 -14   0   1  476.05   12.50 
  14   0  -1  502.25   13.60 
 -14   0   1  489.55   12.50 
  14   0  -1  477.05   14.60 
  14   0  -1  478.55   12.30 
 -14   0   1  478.95   12.00 
 -14   0   1  473.55   12.20 
 -14   0   1  472.95   12.20 
  12   0  -1 1133.89   28.70 
  12   0  -1 1106.29   26.90 
  12   0  -1 1090.19   25.80 
  12   0  -1 1122.79   28.00 
 -12   0   1 1116.79   25.80 
 -12   0   1 1102.49   25.70 
  12   0  -1 1115.19   26.70 
 -12   0   1 1097.39   25.70 
 -12   0   1 1079.19   25.80 
 -12   0   1 1115.49   25.90 
  12   0  -1 1136.69   26.70 
 -12   0   1 1074.09   25.20 
  10   0  -1 3846.22   87.59 
  10   0  -1 3827.32   86.49 
 -10   0   1 3876.61   85.09 
 -10   0   1 3844.32   85.59 
  10   0  -1 3892.11   88.19 
  10   0  -1 3807.52   85.59 
 -10   0   1 3799.42   85.59 
 -10   0   1 3902.11   85.49 
 -10   0   1 3807.42   85.49 
  10   0  -1 3832.02   86.69 
  10   0  -1 3865.01   86.29 
 -10   0   1 3855.01   85.59 
   8   0  -1 4269.77   96.49 
   8   0  -1 4263.27   97.19 
   8   0  -1 4252.77   98.39 
   8   0  -1 4400.56   97.29 
  -8   0   1 4535.35   96.89 
  -8   0   1 4411.26   96.09 
  -8   0   1 4325.57   96.29 
  -8   0   1 4287.37   96.79 
   8   0  -1 4217.38   97.89 
  -8   0   1 4367.76   96.39 
  -8   0   1 4460.35   96.29 
   8   0  -1 4311.37   97.79 
   6   0  -1  408.96   10.70 
   6   0  -1  418.86    9.80 
  -6   0   1  416.46    9.80 
   6   0  -1  405.26   11.20 
   6   0  -1  407.96   10.60 
   6   0  -1  415.16    9.80 
  -6   0   1  422.86    9.60 
   6   0  -1  402.36   11.40 
  -6   0   1  423.96    9.70 
  -6   0   1  394.16    9.90 
  -4   0   1   16.80    1.20 
  -4   0   1    9.40    1.00 
  -4   0   1   15.00    1.20 
   4   0  -1   13.60    1.50 
   4   0  -1   14.30    2.00 
   4   0  -1   10.20    1.30 
   4   0  -1   12.30    1.00 
   4   0  -1   14.90    1.70 
   4   0  -1   16.10    1.10 
  -4   0   1   14.90    1.10 
  -4   0   1   14.30    1.00 
  -4   0   1   13.90    1.10 
  -2   0   1 2998.20   69.39 
   2   0  -1 2976.30   69.89 
  -2   0   1 3150.78   69.79 
   2   0  -1 3190.38   70.49 
  -2   0   1 3151.58   69.19 
  -2   0   1 3245.88   69.19 
   2   0  -1 3255.97   69.49 
   2   0  -1 3111.19   70.29 
   2   0  -1 2914.21   70.29 
   2   0  -1 3176.28   70.49 
   0   0  -1 4313.97   92.19 
   0   0   1 4160.58   92.49 
   0   0  -1 4044.00   92.89 
   0   0   1 4157.98   92.09 
   0   0  -1 4286.97   93.79 
   0   0   1 4079.79   92.49 
   0   0  -1 4320.97   92.59 
   0   0   1 4252.17   93.79 
   0   0   1 3898.11   92.99 
   0   0  -1 4090.19   92.59 
  -2   0  -1 3099.99   73.49 
  -2   0  -1 3327.87   72.29 
  -2   0  -1 3269.67   72.79 
   2   0   1 3160.98   73.79 
   2   0   1 3148.19   73.69 
   2   0   1 3305.87   72.39 
   2   0   1 3261.17   73.29 
   2   0   1 3402.06   72.79 
  -2   0  -1 3283.87   72.69 
  -2   0  -1 3247.38   72.99 
   2   0   1 3378.76   72.49 
   4   0   1 5685.53  126.39 
   4   0   1 5387.66  127.19 
  -4   0  -1 5397.36  126.19 
   4   0   1 5974.90  126.29 
   4   0   1 5343.37  128.09 
  -4   0  -1 5638.54  125.49 
  -4   0  -1 5603.54  125.99 
   4   0   1 5775.62  125.19 
   4   0   1 5805.32  125.29 
  -4   0  -1 5768.02  124.99 
  -4   0  -1 5537.25  125.39 
   4   0   1 5639.44  126.79 
   6   0   1  163.08    5.00 
  -6   0  -1  170.68    4.70 
   6   0   1  176.98    5.20 
   6   0   1  176.28    4.50 
  -6   0  -1  167.78    4.40 
   6   0   1  170.08    4.60 
  -6   0  -1  169.38    4.30 
  -6   0  -1  167.28    4.50 
   6   0   1  158.98    5.80 
   6   0   1  171.88    4.30 
   6   0   1  155.98    5.80 
   8   0   1  903.11   19.70 
  -8   0  -1  845.82   19.90 
   8   0   1  822.12   20.60 
  -8   0  -1  892.51   19.50 
   8   0   1  811.62   20.10 
  -8   0  -1  849.41   19.80 
   8   0   1  891.71   20.00 
  -8   0  -1  866.81   19.70 
   8   0   1  818.32   21.30 
  -8   0  -1  880.81   19.60 
   8   0   1  883.11   19.80 
   8   0   1  784.62   21.40 
  10   0   1 2219.28   49.10 
  10   0   1 2231.88   51.09 
 -10   0  -1 2226.38   48.90 
 -10   0  -1 2171.78   49.40 
  10   0   1 2189.28   49.40 
  10   0   1 2166.28   49.60 
 -10   0  -1 2201.88   48.80 
  10   0   1 2207.28   49.30 
  10   0   1 2103.89   51.39 
 -10   0  -1 2158.58   49.20 
  10   0   1 2172.28   50.29 
 -10   0  -1 2157.88   49.10 
  12   0   1 3729.53   83.29 
 -12   0  -1 3697.13   83.09 
  12   0   1 3577.64   83.29 
 -12   0  -1 3707.33   83.39 
  12   0   1 3791.92   83.59 
 -12   0  -1 3688.13   83.09 
  12   0   1 3950.40   85.49 
 -12   0  -1 3660.33   82.79 
  12   0   1 3676.23   85.79 
  12   0   1 3718.63   84.59 
 -12   0  -1 3702.23   82.79 
  12   0   1 3745.23   82.99 
 -14   0  -1 1219.58   28.30 
 -14   0  -1 1169.58   28.30 
  14   0   1 1152.58   28.90 
  14   0   1 1229.68   28.60 
  14   0   1 1328.97   31.40 
 -14   0  -1 1180.38   28.60 
 -14   0  -1 1230.08   29.10 
  14   0   1 1228.38   31.70 
  14   0   1 1257.77   29.30 
  14   0   1 1244.08   28.90 
  14   0   1 1235.18   30.40 
  16   0   1  322.37    9.30 
 -16   0  -1  332.47   10.00 
  16   0   1  331.57    9.80 
  16   0   1  332.67   12.60 
  16   0   1  335.47   11.40 
 -16   0  -1  332.37    9.10 
  16   0   1  351.46   12.30 
 -16   0  -1  320.07    9.80 
 -18   0  -1    4.40    2.20 
  18   0   1    5.70    3.70 
  18   0   1    8.00    2.40 
  18   0   1   12.00    3.50 
 -18   0  -1    6.30    2.00 
 -18   0  -1    7.60    2.70 
  18   0   1    5.10    3.80 
 -20   0  -1  739.33   19.20 
  20   0   1  843.22   23.20 
  20   0   1  754.92   21.90 
 -20   0  -1  766.72   20.40 
  20   0   1  787.72   23.90 
  20   0   1  756.62   21.10 
 -20   0  -1  774.22   19.90 
  22   0   1  781.82   24.70 
  22   0   1  770.32   22.80 
 -22   0  -1  810.72   21.40 
  22   0   1  844.52   23.90 
 -22   0  -1  773.72   20.50 
 -22   0  -1  767.62   19.90 
 -24   0  -1  551.74   16.10 
  24   0   1  512.15   17.50 
 -24   0  -1  504.15   14.30 
  25  -1  -1  713.13   20.00 
 -25  -1   1  692.93   19.30 
  25  -1  -1  711.13   22.30 
 -25  -1   1  691.63   18.50 
  25   1  -1  694.83   22.50 
 -25   1   1  686.33   19.30 
  25   1  -1  687.33   20.20 
  25   1  -1  641.34   20.00 
 -23  -1   1  520.55   14.60 
  23  -1  -1  521.35   19.40 
 -23  -1   1  509.65   15.20 
  23  -1  -1  520.35   15.70 
 -23  -1   1  505.95   14.90 
  23  -1  -1  531.15   18.00 
  23   1  -1  514.45   16.10 
  23   1  -1  543.95   19.80 
  23   1  -1  519.75   18.20 
 -23   1   1  533.85   15.10 
 -23   1   1  522.45   14.70 
  23   1  -1  498.85   15.50 
 -21  -1   1   10.70    2.80 
  21  -1  -1   14.00    5.10 
 -21  -1   1   11.50    2.90 
  21  -1  -1   10.70    4.10 
  21  -1  -1   10.90    3.30 
 -21  -1   1   10.00    3.10 
 -21   1   1    6.70    2.70 
  21   1  -1   11.60    3.40 
 -21   1   1    9.20    2.70 
  21   1  -1   12.30    3.30 
 -21   1   1   14.70    3.10 
  21   1  -1    9.30    5.10 
  21   1  -1   15.50    4.60 
 -19  -1   1  310.97    9.40 
  19  -1  -1  311.67   10.30 
  19  -1  -1  309.37   13.20 
 -19  -1   1  314.67    9.60 
  19  -1  -1  321.77   11.30 
 -19  -1   1  307.17    9.80 
  19  -1  -1  311.87   10.80 
 -19  -1   1  312.57   10.00 
  19  -1  -1  308.37   12.30 
 -19   1   1  308.27    9.80 
 -19   1   1  330.27    9.90 
  19   1  -1  334.37   14.10 
  19   1  -1  326.77   11.00 
  19   1  -1  307.77   10.40 
  19   1  -1  307.67   12.40 
 -19   1   1  309.57    9.60 
 -17  -1   1 1205.08   29.40 
  17  -1  -1 1262.07   31.00 
 -17  -1   1 1233.18   29.70 
  17  -1  -1 1220.68   30.50 
 -17  -1   1 1177.68   29.10 
 -17  -1   1 1221.88   29.20 
 -17  -1   1 1222.98   29.30 
 -17  -1   1 1235.58   29.60 
  17  -1  -1 1250.77   33.30 
  17  -1  -1 1229.48   30.20 
  17  -1  -1 1220.48   32.10 
 -17   1   1 1251.87   29.50 
 -17   1   1 1244.68   29.50 
  17   1  -1 1243.68   30.60 
  17   1  -1 1273.27   30.50 
 -17   1   1 1255.77   29.60 
  17   1  -1 1288.27   33.70 
  17   1  -1 1291.57   32.60 
 -15  -1   1 2248.28   51.49 
 -15  -1   1 2242.38   51.89 
  15  -1  -1 2275.57   54.39 
 -15  -1   1 2211.18   51.49 
  15  -1  -1 2250.07   52.99 
  15  -1  -1 2293.67   55.49 
 -15  -1   1 2186.88   51.69 
 -15  -1   1 2210.78   51.59 
  15  -1  -1 2206.28   51.69 
  15  -1  -1 2228.58   52.79 
 -15  -1   1 2205.08   51.69 
  15  -1  -1 2288.77   52.59 
  15  -1  -1 2231.08   51.39 
  15   1  -1 2347.07   54.49 
 -15   1   1 2264.77   51.69 
 -15   1   1 2183.38   51.29 
 -15   1   1 2282.27   51.69 
  15   1  -1 2323.77   52.69 
  15   1  -1 2405.36   55.69 
  15   1  -1 2367.36   53.39 
  15   1  -1 2344.87   52.89 
 -15   1   1 2308.57   51.69 
 -13  -1   1 1634.84   38.10 
  13  -1  -1 1640.34   39.10 
  13  -1  -1 1642.64   39.30 
 -13  -1   1 1600.74   38.20 
 -13  -1   1 1625.04   37.90 
  13  -1  -1 1626.74   41.40 
  13  -1  -1 1641.84   39.00 
 -13  -1   1 1661.63   38.20 
 -13  -1   1 1662.13   38.20 
  13  -1  -1 1624.44   38.20 
  13  -1  -1 1619.84   40.50 
 -13  -1   1 1662.13   38.00 
  13   1  -1 1719.63   39.30 
 -13   1   1 1690.83   37.40 
  13   1  -1 1579.64   39.30 
 -13   1   1 1671.53   37.90 
  13   1  -1 1727.63   41.60 
 -13   1   1 1706.53   38.20 
 -13   1   1 1635.14   37.90 
  13   1  -1 1749.72   39.20 
 -13   1   1 1707.63   38.10 
  13   1  -1 1712.63   40.50 
 -13   1   1 1670.03   38.10 
 -11  -1   1  705.23   17.30 
 -11  -1   1  730.93   17.30 
  11  -1  -1  715.63   19.50 
  11  -1  -1  726.33   18.10 
 -11  -1   1  742.73   17.60 
  11  -1  -1  735.93   20.00 
  11  -1  -1  739.43   17.50 
 -11  -1   1  704.43   17.50 
 -11  -1   1  706.93   17.40 
  11  -1  -1  730.53   18.50 
  11  -1  -1  702.83   18.20 
  11   1  -1  694.63   20.10 
  11   1  -1  727.73   19.50 
 -11   1   1  724.83   17.30 
  11   1  -1  754.42   18.50 
 -11   1   1  771.22   17.60 
 -11   1   1  734.83   17.30 
 -11   1   1  756.12   16.80 
 -11   1   1  716.83   17.40 
  11   1  -1  771.82   18.50 
 -11   1   1  727.33   17.20 
   9  -1  -1   18.00    2.60 
   9  -1  -1   21.30    2.60 
  -9  -1   1   23.40    1.70 
   9  -1  -1   20.30    1.70 
  -9  -1   1   19.70    1.90 
   9  -1  -1   24.60    2.50 
   9  -1  -1   22.50    2.60 
  -9  -1   1   21.30    1.90 
  -9  -1   1   24.10    1.90 
  -9  -1   1   24.60    2.00 
   9  -1  -1   21.30    2.00 
   9   1  -1   17.40    2.80 
  -9   1   1   25.60    1.80 
  -9   1   1   19.40    1.70 
   9   1  -1   24.60    2.60 
  -9   1   1   21.10    1.90 
   9   1  -1   22.70    2.60 
  -9   1   1   22.80    1.80 
   9   1  -1   21.80    1.70 
  -9   1   1   20.00    1.80 
   9   1  -1   21.10    2.70 
  -7  -1   1 2114.39   47.20 
   7  -1  -1 2121.89   48.10 
   7  -1  -1 2109.69   48.60 
  -7  -1   1 2088.69   47.30 
   7  -1  -1 2093.39   48.70 
  -7  -1   1 2110.29   47.30 
   7  -1  -1 2115.49   47.20 
   7  -1  -1 2056.19   48.00 
  -7  -1   1 2123.39   47.20 
  -7  -1   1 2152.08   47.30 
  -7   1   1 2091.19   47.20 
   7   1  -1 2025.80   47.30 
  -7   1   1 2121.29   47.10 
   7   1  -1 2127.99   47.30 
  -7   1   1 2180.18   47.30 
   7   1  -1 2197.58   47.20 
   7   1  -1 2178.28   48.10 
   7   1  -1 2124.89   48.10 
  -7   1   1 2161.68   47.50 
   7   1  -1 2057.69   48.80 
   7   1  -1 1974.60   48.50 
  -7   1   1 2096.69   47.00 
  -7   1   1 2217.78   47.20 
  -7   1   1 2106.69   47.30 
  -5  -1   1 5927.41  133.89 
   5  -1  -1 5976.50  134.89 
   5  -1  -1 6390.36  133.69 
  -5  -1   1 5993.70  133.69 
   5  -1  -1 5659.23  135.29 
  -5  -1   1 6148.58  133.69 
   5  -1  -1 6003.60  136.99 
  -5  -1   1 6067.39  134.39 
  -5  -1   1 5992.60  134.09 
   5  -1  -1 6158.68  135.99 
  -5   1   1 5974.10  132.99 
  -5   1   1 5673.23  133.29 
  -5   1   1 6231.28  134.99 
  -5   1   1 5753.02  133.69 
  -5   1   1 6183.78  135.49 
  -5   1   1 5892.81  133.99 
   5   1  -1 6018.40  136.39 
   5   1  -1 6151.48  134.09 
   5   1  -1 6258.77  134.69 
  -5   1   1 6260.77  133.79 
   5   1  -1 5850.71  136.39 
   5   1  -1 5633.74  135.09 
   5   1  -1 5991.00  136.69 
  -3  -1   1 9310.87  207.38 
   3  -1  -1 9171.28  208.08 
   3  -1  -1 9710.53  210.28 
   3  -1  -1 9669.03  207.88 
  -3  -1   1 9362.76  207.48 
   3  -1  -1 9740.83  209.68 
  -3  -1   1 9550.94  207.38 
   3   1  -1 9362.56  209.68 
   3   1  -1 8907.41  210.18 
   3   1  -1 9400.06  209.38 
  -3   1   1 9999.00  209.88 
   3   1  -1 9727.53  208.68 
   3   1  -1 9158.08  208.48 
   3   1  -1 9432.56  207.08 
  -3   1   1 9368.56  209.08 
  -3   1   1 8840.92  206.48 
  -3   1   1 9051.59  206.58 
  -3   1   1 8709.03  207.38 
  -1  -1   1 2058.59   47.30 
   1  -1  -1 2174.68   48.00 
  -1  -1   1 2147.39   47.50 
   1  -1  -1 2087.69   48.20 
   1  -1  -1 2122.09   47.50 
  -1  -1   1 2067.19   47.80 
   1   1  -1 2025.80   47.20 
  -1   1   1 2071.19   47.30 
  -1   1   1 2159.48   48.30 
  -1   1   1 2146.09   48.00 
   1   1  -1 2100.49   47.20 
   1   1  -1 2215.98   47.40 
   1   1  -1 2179.78   47.80 
   1   1  -1 2118.59   47.90 
   1   1  -1 2163.68   48.10 
  -1   1   1 2206.18   47.70 
   1  -1   1   26.40    1.60 
  -1  -1  -1   20.80    1.30 
  -1  -1  -1   20.60    1.10 
   1  -1   1   22.50    0.90 
  -1  -1  -1   21.20    0.90 
   1   1   1   25.70    1.30 
   1   1   1   20.70    1.10 
  -1   1  -1   19.80    0.90 
   1   1   1   27.00    1.50 
   1   1   1   25.00    1.80 
  -1   1  -1   18.60    1.00 
  -1   1  -1   19.70    1.30 
   1   1   1   27.10    1.80 
   3  -1   1  349.07    8.80 
  -3  -1  -1  371.26    8.30 
  -3  -1  -1  362.86    8.30 
   3  -1   1  350.46    9.20 
  -3  -1  -1  349.77    8.50 
  -3  -1  -1  359.56    8.70 
   3  -1   1  355.16    8.20 
  -3   1  -1  361.36    8.40 
   3   1   1  373.46    8.70 
  -3   1  -1  367.56    8.30 
  -3   1  -1  353.26    8.20 
  -3   1  -1  361.16    8.50 
   3   1   1  366.46    8.40 
   3   1   1  340.97    9.00 
   3   1   1  375.26    9.00 
   3   1   1  362.46    8.50 
  -3   1  -1  328.17    8.70 
  -3   1  -1  362.06    8.80 
   3   1   1  375.46    8.50 
   3   1   1  344.47    9.20 
   5  -1   1 4661.13  111.79 
   5  -1   1 4661.53  114.59 
  -5  -1  -1 4961.10  110.49 
   5  -1   1 4855.21  112.69 
  -5  -1  -1 4974.80  112.49 
   5  -1   1 5119.29  110.69 
  -5  -1  -1 5041.70  111.39 
   5  -1   1 5041.50  110.39 
   5  -1   1 4806.72  111.49 
  -5  -1  -1 5041.90  112.09 
  -5  -1  -1 4841.22  110.99 
   5   1   1 4855.11  110.89 
  -5   1  -1 5077.69  111.09 
   5   1   1 5106.39  112.09 
   5   1   1 4779.02  110.49 
  -5   1  -1 5200.88  111.09 
  -5   1  -1 5052.99  113.29 
   5   1   1 5164.48  111.79 
   5   1   1 5355.86  112.39 
   5   1   1 5042.10  114.09 
  -5   1  -1 4969.90  110.59 
  -5   1  -1 4861.11  111.09 
  -5   1  -1 4815.32  110.99 
   5   1   1 5149.28  112.39 
   7  -1   1 6287.67  133.09 
   7  -1   1 5992.80  133.99 
  -7  -1  -1 5984.20  132.69 
   7  -1   1 5737.53  133.29 
   7  -1   1 5856.31  133.29 
  -7  -1  -1 5947.00  134.39 
   7  -1   1 5447.75  135.69 
  -7  -1  -1 6030.50  133.69 
   7  -1   1 6068.19  133.09 
  -7  -1  -1 6014.30  133.29 
  -7  -1  -1 5847.62  134.59 
   7   1   1 5790.62  132.69 
   7   1   1 6202.08  134.49 
  -7   1  -1 6051.29  134.59 
  -7   1  -1 6058.29  133.19 
  -7   1  -1 5926.61  133.69 
   7   1   1 5928.31  133.49 
  -7   1  -1 6012.90  132.89 
   7   1   1 6000.70  134.39 
   7   1   1 5897.71  136.49 
  -7   1  -1 6060.59  133.79 
   7   1   1 6078.89  134.39 
   7   1   1 6201.98  134.49 
  -9  -1  -1 1956.20   44.00 
   9  -1   1 1882.81   46.20 
   9  -1   1 2034.30   43.80 
   9  -1   1 1980.10   44.50 
  -9  -1  -1 1990.10   43.70 
   9  -1   1 1917.11   45.10 
  -9  -1  -1 1926.11   44.30 
   9  -1   1 1937.11   45.60 
   9  -1   1 1935.11   44.10 
   9  -1   1 2050.19   44.10 
  -9  -1  -1 1924.41   44.30 
  -9  -1  -1 1944.21   43.90 
   9   1   1 1969.80   46.00 
   9   1   1 1880.41   45.00 
   9   1   1 2022.50   45.10 
  -9   1  -1 1967.20   44.00 
   9   1   1 2001.70   44.20 
  -9   1  -1 1908.31   44.20 
  -9   1  -1 1965.30   43.80 
  -9   1  -1 1965.70   44.50 
  -9   1  -1 1959.00   43.70 
   9   1   1 1884.41   46.10 
   9   1   1 1916.41   44.30 
   9   1   1 2034.00   44.20 
  11  -1   1  254.57    7.40 
 -11  -1  -1  251.47    7.30 
 -11  -1  -1  243.68    7.20 
  11  -1   1  242.68    9.10 
 -11  -1  -1  244.98    6.90 
 -11  -1  -1  252.17    6.70 
  11  -1   1  264.27    7.00 
  11  -1   1  260.37    6.70 
  11  -1   1  242.78    7.00 
 -11  -1  -1  254.47    6.60 
  11  -1   1  254.17    8.20 
  11   1   1  241.98    7.20 
  11   1   1  258.07    7.20 
 -11   1  -1  244.88    7.20 
  11   1   1  242.08    9.30 
  11   1   1  248.58    8.20 
 -11   1  -1  243.78    6.90 
  11   1   1  237.18    9.30 
 -11   1  -1  247.78    6.70 
 -11   1  -1  244.08    6.60 
  11   1   1  253.07    7.10 
 -11   1  -1  251.57    7.40 
  11   1   1  220.78    8.00 
  13  -1   1   89.39    5.50 
 -13  -1  -1   81.59    3.90 
 -13  -1  -1   84.09    3.50 
 -13  -1  -1   83.69    4.10 
  13  -1   1   90.09    3.90 
 -13  -1  -1   82.59    3.30 
  13  -1   1   82.29    3.40 
  13  -1   1   82.49    4.20 
  13  -1   1   84.59    5.00 
 -13  -1  -1   92.19    3.80 
  13  -1   1   80.79    5.90 
  13   1   1   81.29    4.00 
  13   1   1   90.99    4.00 
  13   1   1   72.09    6.30 
 -13   1  -1   83.39    3.50 
  13   1   1   81.09    3.90 
 -13   1  -1   80.89    3.70 
  13   1   1   82.19    5.20 
 -13   1  -1   82.29    4.10 
  13   1   1   68.79    6.20 
  15  -1   1  688.13   17.00 
 -15  -1  -1  650.43   17.10 
 -15  -1  -1  644.24   16.60 
  15  -1   1  684.73   20.00 
  15  -1   1  675.43   17.40 
  15  -1   1  683.93   19.10 
 -15  -1  -1  674.33   16.40 
 -15  -1  -1  668.33   17.30 
 -15  -1  -1  691.03   16.90 
  15  -1   1  649.43   18.30 
 -15   1  -1  680.23   17.00 
  15   1   1  692.53   17.40 
  15   1   1  679.53   17.40 
  15   1   1  678.63   20.60 
 -15   1  -1  673.23   17.40 
  15   1   1  686.63   17.10 
  15   1   1  733.93   20.60 
  15   1   1  679.73   18.80 
 -15   1  -1  680.83   16.70 
 -17  -1  -1 1747.03   40.20 
 -17  -1  -1 1704.53   41.10 
 -17  -1  -1 1694.13   40.90 
  17  -1   1 1779.32   40.90 
 -17  -1  -1 1741.83   40.70 
  17  -1   1 1759.62   43.20 
  17  -1   1 1700.53   42.40 
  17  -1   1 1752.92   44.20 
  17   1   1 1747.83   43.00 
 -17   1  -1 1747.93   41.30 
  17   1   1 1750.42   41.20 
  17   1   1 1769.42   45.00 
 -17   1  -1 1747.63   40.90 
  17   1   1 1914.71   44.60 
 -17   1  -1 1781.32   40.50 
  17   1   1 1729.33   40.90 
  17   1   1 1765.72   42.40 
  19  -1   1 1420.46   38.10 
  19  -1   1 1495.65   37.40 
 -19  -1  -1 1451.35   34.60 
 -19  -1  -1 1452.25   35.10 
 -19  -1  -1 1431.26   34.00 
  19  -1   1 1450.35   36.60 
 -19   1  -1 1419.76   34.30 
 -19   1  -1 1440.26   34.80 
 -19   1  -1 1469.55   35.30 
  19   1   1 1636.44   38.80 
  19   1   1 1415.96   34.70 
  19   1   1 1425.86   38.90 
  19   1   1 1461.15   37.20 
  19   1   1 1475.25   35.20 
 -21  -1  -1  281.57    9.40 
  21  -1   1  273.57   11.50 
 -21  -1  -1  283.47    8.70 
 -21  -1  -1  281.17   10.00 
  21  -1   1  276.17   12.90 
  21  -1   1  301.37   12.30 
 -21   1  -1  282.97   10.10 
  21   1   1  313.57   13.10 
  21   1   1  270.87   12.00 
 -21   1  -1  266.97    8.90 
 -21   1  -1  272.67    9.60 
  21   1   1  282.37   10.00 
  21   1   1  282.17   13.60 
 -23  -1  -1    2.50    3.20 
 -23  -1  -1    4.00    2.80 
  23  -1   1    2.70    4.50 
  23  -1   1    1.60    4.00 
 -23  -1  -1    6.40    3.50 
 -23   1  -1    0.30    3.20 
  23   1   1   -1.80    4.10 
 -23   1  -1    5.10    3.00 
 -23   1  -1    0.80    2.50 
  25  -1   1  155.38   10.10 
 -25   1  -1  156.08    9.40 
  25   1   1  149.39   10.20 
 -24  -2   1  164.98    8.20 
  24  -2  -1  162.88   10.50 
 -24  -2   1  159.38    7.20 
  24   2  -1  148.19   11.40 
  24   2  -1  149.29    8.30 
  24   2  -1  152.48    8.90 
 -24   2   1  154.68    7.50 
 -24   2   1  162.28    7.90 
 -22  -2   1  564.94   15.50 
 -22  -2   1  564.94   15.60 
  22  -2  -1  579.74   16.90 
  22  -2  -1  560.74   19.00 
 -22  -2   1  561.04   16.00 
  22  -2  -1  598.94   22.30 
 -22  -2   1  566.64   16.40 
  22  -2  -1  582.04   20.30 
  22   2  -1  573.54   17.50 
 -22   2   1  565.44   15.90 
  22   2  -1  597.44   21.60 
  22   2  -1  552.64   16.80 
 -22   2   1  570.84   16.10 
  22   2  -1  571.34   19.70 
 -20  -2   1 1199.38   29.60 
 -20  -2   1 1188.68   28.80 
  20  -2  -1 1189.18   33.60 
 -20  -2   1 1149.29   29.30 
 -20  -2   1 1194.88   29.30 
  20  -2  -1 1196.48   30.20 
 -20  -2   1 1125.89   28.60 
  20  -2  -1 1198.78   32.30 
 -20  -2   1 1203.68   28.90 
  20  -2  -1 1224.48   31.20 
  20   2  -1 1187.68   32.60 
  20   2  -1 1270.17   34.80 
  20   2  -1 1225.48   30.70 
  20   2  -1 1171.78   30.10 
 -20   2   1 1218.08   29.30 
 -20   2   1 1215.58   29.20 
  18  -2  -1  865.61   25.60 
 -18  -2   1  841.62   21.50 
 -18  -2   1  837.82   20.80 
 -18  -2   1  822.12   20.80 
  18  -2  -1  881.91   23.10 
  18  -2  -1  847.82   24.30 
  18  -2  -1  839.32   22.30 
 -18  -2   1  851.41   21.30 
  18  -2  -1  857.51   22.60 
 -18  -2   1  809.32   21.30 
  18  -2  -1  874.71   22.00 
 -18  -2   1  807.02   20.60 
  18   2  -1  841.52   24.40 
 -18   2   1  813.12   22.50 
  18   2  -1  851.21   26.00 
  18   2  -1  845.92   22.50 
  18   2  -1  844.42   22.20 
 -18   2   1  852.51   21.20 
 -18   2   1  835.92   21.10 
 -16  -2   1  121.69    5.70 
  16  -2  -1  140.99    6.70 
  16  -2  -1  130.59    5.20 
 -16  -2   1  127.69    5.30 
  16  -2  -1  132.39    8.00 
  16  -2  -1  133.19    6.00 
 -16  -2   1  133.99    5.40 
 -16  -2   1  122.79    4.90 
  16  -2  -1  134.29    6.50 
 -16  -2   1  132.09    5.60 
  16  -2  -1  139.89    8.80 
 -16  -2   1  125.49    5.60 
 -16   2   1  128.29    5.30 
  16   2  -1  127.89    8.10 
 -16   2   1  123.59    5.30 
  16   2  -1  137.49    6.40 
  16   2  -1  126.49    6.60 
 -16   2   1  125.09    5.40 
 -16   2   1  123.69    5.30 
  16   2  -1  112.09    9.00 
 -14  -2   1  139.39    5.30 
 -14  -2   1  133.29    5.00 
  14  -2  -1  134.59    6.10 
 -14  -2   1  139.29    5.40 
 -14  -2   1  132.19    5.10 
  14  -2  -1  133.29    6.00 
  14  -2  -1  136.19    7.40 
 -14  -2   1  145.59    5.50 
  14  -2  -1  142.39    5.10 
 -14  -2   1  134.29    4.80 
  14  -2  -1  132.79    7.80 
  14  -2  -1  138.89    5.80 
  14   2  -1  140.89    6.30 
  14   2  -1  127.89    8.40 
 -14   2   1  129.09    4.90 
  14   2  -1  144.59    6.20 
  14   2  -1  123.29    7.10 
 -14   2   1  141.89    5.20 
 -14   2   1  138.09    5.20 
 -14   2   1  138.49    5.10 
  14   2  -1  131.39    7.50 
 -12  -2   1 1707.43   39.60 
  12  -2  -1 1741.63   40.40 
  12  -2  -1 1751.52   42.40 
 -12  -2   1 1737.53   39.80 
  12  -2  -1 1709.53   40.40 
  12  -2  -1 1728.93   39.60 
  12  -2  -1 1757.22   41.90 
 -12  -2   1 1744.63   39.40 
 -12  -2   1 1698.33   39.40 
 -12  -2   1 1698.93   39.50 
  12  -2  -1 1726.83   40.70 
  12   2  -1 1757.82   42.90 
  12   2  -1 1770.42   40.70 
  12   2  -1 1711.93   41.90 
 -12   2   1 1649.23   39.40 
  12   2  -1 1820.22   40.10 
 -12   2   1 1657.73   39.30 
 -12   2   1 1770.52   39.60 
 -12   2   1 1752.62   39.80 
  10  -2  -1 2554.04   57.39 
 -10  -2   1 2538.25   57.59 
 -10  -2   1 2540.95   57.39 
  10  -2  -1 2541.05   58.29 
  10  -2  -1 2528.05   58.39 
 -10  -2   1 2569.14   57.19 
  10  -2  -1 2551.64   57.99 
 -10  -2   1 2536.25   57.19 
 -10  -2   1 2497.75   57.29 
  10  -2  -1 2553.74   59.19 
  10  -2  -1 2528.95   59.59 
 -10   2   1 2574.64   57.69 
  10   2  -1 2667.83   59.89 
  10   2  -1 2541.45   58.39 
 -10   2   1 2486.35   57.19 
  10   2  -1 2489.35   58.29 
 -10   2   1 2513.95   57.39 
 -10   2   1 2732.73   57.19 
  10   2  -1 2639.54   59.29 
 -10   2   1 2412.66   56.89 
  10   2  -1 2678.93   57.49 
   8  -2  -1 2872.61   68.09 
  -8  -2   1 3113.89   67.09 
   8  -2  -1 2934.51   68.19 
  -8  -2   1 2934.41   67.39 
   8  -2  -1 3015.10   67.29 
  -8  -2   1 3028.90   67.49 
  -8  -2   1 3008.50   67.29 
  -8  -2   1 3024.60   67.39 
   8  -2  -1 2974.80   68.89 
   8  -2  -1 3039.60   68.79 
  -8   2   1 2984.00   67.29 
   8   2  -1 3065.69   67.59 
  -8   2   1 3199.38   67.09 
  -8   2   1 3042.10   67.69 
  -8   2   1 2873.21   66.79 
   8   2  -1 3147.69   68.59 
  -8   2   1 2907.11   66.99 
   8   2  -1 3087.29   67.19 
   8   2  -1 3049.79   68.19 
  -8   2   1 3040.60   67.89 
   8   2  -1 3096.29   68.09 
   8   2  -1 3029.60   68.69 
   6  -2  -1 1417.56   32.70 
  -6  -2   1 1404.16   32.20 
  -6  -2   1 1465.45   31.90 
  -6  -2   1 1437.36   32.30 
   6  -2  -1 1413.86   32.00 
  -6  -2   1 1367.16   32.00 
   6  -2  -1 1387.66   33.00 
  -6  -2   1 1388.56   32.20 
   6   2  -1 1443.46   32.80 
   6   2  -1 1455.05   32.60 
   6   2  -1 1455.05   32.30 
  -6   2   1 1377.26   31.80 
   6   2  -1 1473.05   32.80 
   6   2  -1 1474.05   31.90 
   6   2  -1 1366.56   32.80 
  -6   2   1 1409.86   32.50 
  -6   2   1 1458.75   31.90 
  -6   2   1 1413.96   32.60 
  -6   2   1 1436.06   32.00 
   4  -2  -1  543.55   13.40 
  -4  -2   1  530.75   12.50 
  -4  -2   1  550.14   13.00 
   4  -2  -1  539.05   12.60 
   4  -2  -1  541.05   13.00 
   4  -2  -1  536.35   12.50 
  -4  -2   1  543.55   12.80 
  -4  -2   1  570.24   12.40 
  -4   2   1  550.34   13.20 
   4   2  -1  532.45   13.20 
   4   2  -1  566.84   13.10 
   4   2  -1  550.74   13.00 
   4   2  -1  549.85   13.00 
   4   2  -1  534.35   12.50 
  -4   2   1  540.65   12.30 
   4   2  -1  565.54   13.10 
   4   2  -1  546.45   12.50 
  -4   2   1  554.04   13.20 
  -4   2   1  557.14   12.60 
   2  -2  -1 1482.55   32.30 
   2  -2  -1 1446.96   32.40 
   2  -2  -1 1439.96   32.70 
  -2  -2   1 1453.15   32.60 
  -2  -2   1 1423.36   32.50 
  -2   2   1 1447.76   33.30 
  -2   2   1 1480.55   32.20 
   2   2  -1 1442.66   32.70 
   2   2  -1 1452.25   32.50 
  -2   2   1 1431.46   33.00 
   2   2  -1 1479.25   32.70 
   2   2  -1 1474.05   32.60 
   2   2  -1 1448.36   32.60 
   2   2  -1 1461.65   32.50 
  -2   2   1 1453.55   33.00 
   2   2  -1 1421.06   32.70 
   2   2  -1 1450.05   32.50 
  -2   2   1 1491.15   33.00 
   0  -2  -1 2710.53   62.09 
   0  -2  -1 2766.42   63.29 
   0  -2  -1 2814.82   62.09 
   0  -2  -1 2800.62   62.79 
   0  -2   1 2723.23   61.69 
   0   2   1 2786.02   63.89 
   0   2  -1 2736.33   62.29 
   0   2   1 2778.62   61.89 
   0   2  -1 2775.32   61.99 
   0   2   1 2955.20   62.09 
   0   2  -1 2739.13   62.89 
   0   2  -1 2773.82   62.69 
   0   2   1 2874.11   63.39 
   0   2   1 2765.62   63.89 
   0   2  -1 2784.62   62.09 
   0   2   1 2824.82   62.79 
   0   2  -1 2687.63   63.09 
   0   2  -1 2683.63   62.29 
   0   2  -1 2781.92   61.79 
  -2  -2  -1 5131.59  115.09 
  -2  -2  -1 5202.48  116.89 
   2  -2   1 5094.29  114.29 
  -2  -2  -1 4981.40  114.19 
   2  -2   1 4952.10  116.69 
  -2  -2  -1 5154.68  114.39 
   2  -2   1 5040.30  117.19 
   2  -2   1 5125.99  113.59 
   2   2   1 5334.17  114.89 
  -2   2  -1 5233.98  115.39 
  -2   2  -1 5045.10  114.09 
   2   2   1 5153.88  117.09 
   2   2   1 5104.29  116.09 
  -2   2  -1 4999.20  117.39 
   2   2   1 5180.48  117.29 
  -2   2  -1 5017.80  114.09 
   2   2   1 5277.67  116.49 
   2   2   1 5235.38  115.99 
   2   2   1 5309.07  116.89 
  -2   2  -1 5269.67  114.89 
  -4  -2  -1 1973.80   45.10 
  -4  -2  -1 1988.30   45.20 
   4  -2   1 2067.19   45.20 
   4  -2   1 2000.30   46.10 
  -4  -2  -1 2042.10   45.80 
   4  -2   1 1954.50   45.70 
  -4  -2  -1 2029.90   45.50 
   4  -2   1 1918.81   46.10 
   4  -2   1 2027.30   45.90 
  -4  -2  -1 2002.00   45.10 
   4  -2   1 2066.29   45.00 
   4   2   1 2044.90   45.60 
  -4   2  -1 2033.10   45.90 
   4   2   1 2076.99   45.60 
   4   2   1 2106.19   46.30 
   4   2   1 2080.99   45.50 
  -4   2  -1 2064.99   45.20 
   4   2   1 2017.80   46.30 
  -4   2  -1 2083.69   45.60 
   4   2   1 2114.69   45.90 
  -6  -2  -1  469.65   11.70 
   6  -2   1  481.45   11.20 
  -6  -2  -1  483.85   11.50 
  -6  -2  -1  464.05   11.00 
   6  -2   1  458.45   12.30 
  -6  -2  -1  467.85   10.80 
   6  -2   1  455.85   12.60 
   6  -2   1  471.25   11.80 
  -6  -2  -1  478.85   11.00 
   6  -2   1  459.85   12.00 
   6  -2   1  489.05   11.00 
   6  -2   1  446.06   11.20 
  -6  -2  -1  462.35   11.20 
   6   2   1  475.35   11.40 
  -6   2  -1  462.35   11.30 
  -6   2  -1  466.55   11.80 
   6   2   1  456.55   12.40 
   6   2   1  480.05   11.50 
  -6   2  -1  474.85   11.20 
   6   2   1  487.85   11.90 
   6   2   1  461.75   11.40 
   6   2   1  480.05   12.50 
  -6   2  -1  476.45   11.20 
  -6   2  -1  477.35   11.10 
   8  -2   1  515.75   12.80 
  -8  -2  -1  533.45   13.30 
   8  -2   1  564.34   12.90 
   8  -2   1  503.05   14.00 
   8  -2   1  538.05   13.40 
   8  -2   1  512.15   13.80 
  -8  -2  -1  514.65   12.70 
  -8  -2  -1  536.95   12.40 
  -8  -2  -1  550.44   12.60 
  -8  -2  -1  526.35   12.60 
   8  -2   1  513.45   14.60 
  -8   2  -1  539.75   13.40 
   8   2   1  502.65   14.40 
   8   2   1  549.25   14.40 
  -8   2  -1  523.85   12.90 
   8   2   1  550.44   13.60 
   8   2   1  539.75   13.00 
  -8   2  -1  532.45   12.70 
   8   2   1  540.05   13.00 
  -8   2  -1  541.35   12.70 
   8   2   1  533.35   12.90 
  -8   2  -1  531.65   12.30 
 -10  -2  -1 2877.21   64.69 
  10  -2   1 2761.22   67.29 
  10  -2   1 2935.81   65.39 
 -10  -2  -1 2920.11   64.59 
 -10  -2  -1 2955.20   65.39 
  10  -2   1 2759.42   66.39 
 -10  -2  -1 2961.80   64.29 
 -10  -2  -1 2916.91   65.09 
 -10  -2  -1 2939.21   64.59 
  10  -2   1 2803.12   64.89 
  10  -2   1 2765.92   66.19 
  10   2   1 3004.50   65.19 
  10   2   1 2788.32   64.69 
  10   2   1 2835.62   67.19 
 -10   2  -1 2806.02   64.89 
  10   2   1 3031.20   65.99 
 -10   2  -1 2907.71   65.39 
 -10   2  -1 2907.81   64.69 
  10   2   1 2966.70   65.19 
  10   2   1 2981.70   67.09 
 -10   2  -1 2934.51   64.59 
  12  -2   1 2008.30   45.90 
 -12  -2  -1 2022.00   46.40 
  12  -2   1 1891.81   47.30 
 -12  -2  -1 2008.00   45.80 
  12  -2   1 1920.01   48.80 
 -12  -2  -1 2055.79   45.60 
 -12  -2  -1 2102.69   45.30 
  12  -2   1 2047.80   46.50 
  12  -2   1 1948.51   47.70 
 -12  -2  -1 1991.80   46.20 
 -12  -2  -1 2000.60   45.60 
  12   2   1 2071.49   46.30 
  12   2   1 2068.19   46.30 
  12   2   1 2089.49   46.40 
 -12   2  -1 2008.20   45.80 
  12   2   1 2061.49   47.40 
  12   2   1 1953.10   48.90 
 -12   2  -1 2044.40   45.70 
  12   2   1 2062.59   48.80 
 -12   2  -1 1938.21   46.00 
 -12   2  -1 2056.79   46.50 
  14  -2   1 1335.17   33.50 
 -14  -2  -1 1412.96   31.30 
  14  -2   1 1392.76   32.50 
 -14  -2  -1 1382.86   31.80 
  14  -2   1 1359.76   35.10 
 -14  -2  -1 1340.77   31.50 
  14  -2   1 1428.56   32.00 
  14  -2   1 1347.37   34.00 
 -14  -2  -1 1355.16   32.20 
 -14  -2  -1 1360.56   32.40 
  14   2   1 1367.96   35.60 
 -14   2  -1 1374.66   32.00 
  14   2   1 1392.66   32.40 
  14   2   1 1371.46   32.50 
  14   2   1 1352.96   32.30 
  14   2   1 1378.76   33.80 
 -14   2  -1 1325.27   32.20 
  14   2   1 1273.27   35.30 
 -14   2  -1 1379.46   31.70 
 -14   2  -1 1388.16   32.50 
  16  -2   1  324.07   10.00 
  16  -2   1  316.87   10.90 
 -16  -2  -1  313.27    9.80 
 -16  -2  -1  329.97    8.70 
 -16  -2  -1  316.67    9.20 
 -16  -2  -1  316.87    9.70 
  16  -2   1  322.17   11.50 
 -16  -2  -1  318.07    9.00 
  16  -2   1  315.07   12.30 
  16   2   1  313.37    9.70 
 -16   2  -1  347.77    9.30 
 -16   2  -1  307.67    9.80 
  16   2   1  334.27   10.10 
  16   2   1  315.87    9.80 
  16   2   1  311.17   13.30 
  16   2   1  287.37   13.00 
 -16   2  -1  312.47    9.80 
 -16   2  -1  318.17    9.50 
  16   2   1  300.27   11.40 
  18  -2   1   51.19    6.50 
 -18  -2  -1   49.60    3.70 
  18  -2   1   47.30    5.70 
 -18  -2  -1   43.60    4.40 
  18  -2   1   42.90    5.60 
 -18  -2  -1   50.79    4.70 
  18  -2   1   52.39    4.70 
 -18  -2  -1   44.40    3.40 
 -18  -2  -1   44.70    4.00 
  18   2   1   46.10    4.80 
  18   2   1   49.80    4.40 
 -18   2  -1   47.70    4.90 
 -18   2  -1   41.40    4.30 
  18   2   1   45.20    6.50 
  18   2   1   45.30    5.40 
  18   2   1   46.70    4.50 
  18   2   1   55.99    7.10 
 -18   2  -1   46.20    4.00 
 -20  -2  -1  444.06   13.40 
  20  -2   1  446.36   14.80 
  20  -2   1  469.35   16.80 
 -20  -2  -1  446.86   12.80 
 -20  -2  -1  443.46   13.40 
  20  -2   1  472.95   15.80 
 -20   2  -1  459.85   13.30 
  20   2   1  434.76   13.30 
  20   2   1  465.05   18.20 
 -20   2  -1  466.95   13.80 
  20   2   1  441.06   22.10 
  20   2   1  439.96   15.70 
 -20   2  -1  449.56   12.70 
  20   2   1  444.46   13.70 
 -22  -2  -1  823.62   22.20 
 -22  -2  -1  818.92   21.40 
  22  -2   1  853.71   24.60 
  22  -2   1  830.72   23.70 
 -22   2  -1  809.12   21.20 
  22   2   1  831.22   24.70 
 -22   2  -1  863.51   22.70 
 -22   2  -1  855.11   22.00 
  22   2   1  821.62   22.30 
  24  -2   1  499.05   16.80 
  24   2   1  462.55   17.70 
  24   2   1  502.85   17.90 
  23  -3  -1  328.67   13.70 
  23  -3  -1  343.87   14.40 
 -23  -3   1  337.17   11.40 
 -23  -3   1  335.07   11.80 
 -23   3   1  338.87   11.50 
  23   3  -1  324.47   15.10 
  23   3  -1  306.37   13.30 
 -23   3   1  313.97   11.00 
  23   3  -1  314.17   12.60 
 -21  -3   1   28.60    3.20 
  21  -3  -1   32.60    5.00 
 -21  -3   1   31.20    3.90 
  21  -3  -1   31.40    5.50 
  21  -3  -1   30.80    6.10 
 -21  -3   1   32.50    3.50 
 -21  -3   1   36.80    3.60 
 -21  -3   1   30.90    4.10 
 -21  -3   1   32.10    4.10 
 -21   3   1   32.10    3.90 
  21   3  -1   24.30    6.90 
  21   3  -1   28.50    4.70 
  21   3  -1   31.40    6.10 
 -21   3   1   26.60    3.70 
  21   3  -1   28.30    4.40 
 -19  -3   1  301.27   10.40 
  19  -3  -1  308.97   13.20 
  19  -3  -1  302.47   10.00 
 -19  -3   1  301.37   10.40 
  19  -3  -1  311.97   14.30 
  19  -3  -1  309.87   11.90 
 -19  -3   1  327.77   10.20 
  19  -3  -1  321.47   11.20 
 -19  -3   1  305.97    9.60 
 -19  -3   1  301.07    9.20 
  19  -3  -1  305.97    9.70 
 -19  -3   1  309.37    9.60 
  19   3  -1  294.57   15.30 
  19   3  -1  304.27   11.40 
 -19   3   1  303.77    9.90 
  19   3  -1  305.17   11.10 
  19   3  -1  297.17   13.50 
 -19   3   1  312.27   10.10 
 -19   3   1  308.57   10.20 
  17  -3  -1  980.80   27.00 
 -17  -3   1  980.80   23.50 
  17  -3  -1  913.11   25.30 
  17  -3  -1  993.30   28.20 
 -17  -3   1  966.60   23.90 
  17  -3  -1  988.70   25.60 
 -17  -3   1  985.40   24.30 
  17  -3  -1  952.40   23.80 
 -17  -3   1  969.90   23.50 
  17  -3  -1  989.40   25.10 
 -17  -3   1  954.00   23.30 
 -17  -3   1  978.20   24.50 
 -17   3   1  975.20   24.20 
  17   3  -1  902.31   27.10 
 -17   3   1  957.30   23.80 
  17   3  -1  923.51   29.00 
  17   3  -1  969.60   25.30 
 -17   3   1  985.70   23.80 
  17   3  -1  996.50   25.20 
 -15  -3   1 1375.46   32.10 
 -15  -3   1 1384.16   32.30 
 -15  -3   1 1373.76   32.30 
 -15  -3   1 1382.66   33.20 
  15  -3  -1 1370.46   32.50 
 -15  -3   1 1386.16   32.60 
  15  -3  -1 1361.16   33.30 
  15  -3  -1 1378.16   33.70 
  15  -3  -1 1416.16   34.00 
 -15  -3   1 1375.76   32.90 
  15  -3  -1 1411.26   35.40 
  15  -3  -1 1423.66   36.30 
  15   3  -1 1333.87   35.50 
  15   3  -1 1364.86   34.00 
 -15   3   1 1351.86   32.90 
  15   3  -1 1431.76   34.00 
  15   3  -1 1420.66   37.20 
 -15   3   1 1312.17   32.30 
 -15   3   1 1394.86   32.50 
 -13  -3   1 1754.42   41.20 
 -13  -3   1 1785.92   41.00 
  13  -3  -1 1807.42   44.00 
  13  -3  -1 1797.42   43.30 
 -13  -3   1 1731.93   40.70 
  13  -3  -1 1818.22   40.90 
 -13  -3   1 1758.32   41.60 
  13  -3  -1 1758.42   41.80 
 -13  -3   1 1806.12   40.60 
  13  -3  -1 1761.72   42.00 
 -13  -3   1 1799.62   40.70 
  13  -3  -1 1784.12   42.00 
 -13   3   1 1808.22   41.50 
  13   3  -1 1688.13   42.10 
  13   3  -1 1851.01   43.60 
  13   3  -1 1773.32   42.20 
 -13   3   1 1775.72   40.90 
 -13   3   1 1713.03   40.60 
  13   3  -1 1828.52   44.40 
 -11  -3   1  296.77    8.70 
 -11  -3   1  273.97    8.20 
  11  -3  -1  287.97    7.80 
  11  -3  -1  272.97    8.70 
 -11  -3   1  283.67    8.00 
 -11  -3   1  284.17    7.50 
 -11  -3   1  272.67    7.90 
  11  -3  -1  275.57    9.70 
  11  -3  -1  288.27   10.10 
  11  -3  -1  265.97    8.80 
 -11  -3   1  274.67    7.80 
 -11   3   1  281.77    8.40 
 -11   3   1  275.07    7.60 
  11   3  -1  279.97   10.00 
  11   3  -1  313.67    8.00 
 -11   3   1  301.77    7.90 
  11   3  -1  276.97    8.80 
  11   3  -1  286.07    9.60 
 -11   3   1  276.27    8.80 
  11   3  -1  294.37    9.00 
   9  -3  -1   26.20    1.90 
  -9  -3   1   27.30    1.80 
  -9  -3   1   31.40    2.50 
   9  -3  -1   21.30    2.90 
  -9  -3   1   22.60    2.30 
  -9  -3   1   28.20    2.30 
   9  -3  -1   25.90    2.90 
   9  -3  -1   19.50    2.70 
  -9  -3   1   27.10    2.40 
  -9   3   1   22.50    2.70 
   9   3  -1   37.10    3.50 
   9   3  -1   23.90    2.70 
  -9   3   1   23.00    2.00 
   9   3  -1   24.90    3.10 
   9   3  -1   29.80    2.10 
  -9   3   1   20.70    1.80 
  -7  -3   1  890.81   21.40 
  -7  -3   1  953.80   20.80 
   7  -3  -1  907.71   21.10 
  -7  -3   1  926.11   21.40 
  -7  -3   1  905.41   21.20 
   7  -3  -1  883.11   22.30 
  -7  -3   1  918.11   21.60 
   7  -3  -1  910.81   21.80 
   7   3  -1  918.21   22.10 
  -7   3   1  918.61   21.90 
  -7   3   1  933.81   21.10 
  -7   3   1  922.21   22.10 
  -7   3   1  906.31   20.80 
   7   3  -1  947.21   22.00 
   7   3  -1  911.41   21.10 
   7   3  -1  939.41   21.80 
   7   3  -1  935.71   21.60 
   7   3  -1  874.81   22.30 
   5  -3  -1 5718.93  129.29 
   5  -3  -1 5753.52  128.09 
  -5  -3   1 5652.73  126.69 
  -5  -3   1 5639.74  127.69 
   5  -3  -1 5549.14  127.79 
  -5  -3   1 5755.82  126.49 
  -5   3   1 5762.42  130.79 
   5   3  -1 5762.22  127.09 
   5   3  -1 5664.13  128.59 
   5   3  -1 5565.04  127.39 
  -5   3   1 5754.72  127.59 
   5   3  -1 5874.51  129.19 
   5   3  -1 5707.23  128.89 
   5   3  -1 5622.44  128.69 
  -5   3   1 5765.92  130.39 
   5   3  -1 5870.51  129.39 
   3  -3  -1 3869.71   85.79 
   3  -3  -1 3853.21   86.59 
  -3  -3   1 3900.51   86.79 
   3  -3  -1 3787.72   86.09 
  -3  -3   1 3886.41   85.39 
   3   3  -1 3876.11   86.09 
  -3   3   1 3890.51   86.19 
   3   3  -1 3960.50   86.49 
   3   3  -1 3901.51   87.09 
  -3   3   1 3889.61   85.89 
   3   3  -1 3761.92   86.69 
   3   3  -1 3750.12   87.89 
  -3   3   1 3929.11   86.09 
   3   3  -1 3781.72   86.79 
   3   3  -1 3807.52   86.69 
  -3   3   1 3844.42   88.89 
   1  -3  -1 1497.35   32.90 
   1  -3  -1 1450.45   33.00 
  -1  -3   1 1489.45   33.70 
   1  -3  -1 1499.45   33.50 
   1  -3  -1 1498.15   33.60 
   1   3  -1 1525.35   33.70 
  -1   3   1 1446.26   34.40 
   1   3  -1 1487.85   33.40 
   1   3  -1 1489.25   33.30 
   1   3  -1 1483.05   33.60 
  -1   3   1 1526.45   33.00 
   1   3  -1 1481.95   33.60 
  -1   3   1 1502.45   33.70 
  -1   3   1 1466.65   34.10 
   1   3  -1 1458.35   33.70 
   1   3  -1 1480.65   33.40 
  -1   3   1 1501.05   34.00 
   1   3  -1 1429.26   33.90 
  -1   3   1 1496.05   34.10 
  -1  -3  -1   94.69    3.20 
  -1  -3  -1   91.69    2.80 
   1  -3   1   94.49    3.40 
  -1  -3  -1   95.29    3.20 
  -1  -3  -1   96.29    2.50 
  -1   3  -1   91.89    2.90 
   1   3   1   94.19    3.90 
  -1   3  -1   92.59    3.40 
  -1   3  -1  105.79    3.30 
   1   3   1   95.19    3.50 
   1   3   1   93.39    3.20 
  -1   3  -1   91.19    2.80 
   1   3   1   95.49    3.30 
  -1   3  -1   92.69    3.20 
   1   3   1   97.59    3.70 
  -1   3  -1   92.89    3.40 
  -1   3  -1   92.49    3.60 
   1   3   1   94.99    3.40 
  -1   3  -1   93.19    2.90 
   3  -3   1 1102.89   24.50 
   3  -3   1 1063.79   24.60 
   3  -3   1 1078.29   25.50 
  -3  -3  -1 1118.59   25.40 
   3  -3   1 1084.49   24.30 
  -3  -3  -1 1110.89   24.50 
  -3  -3  -1 1069.49   24.90 
  -3  -3  -1 1066.79   24.60 
   3   3   1 1086.19   25.90 
   3   3   1 1116.49   25.20 
  -3   3  -1 1073.39   25.60 
   3   3   1 1118.99   25.60 
   3   3   1 1111.19   26.10 
  -3   3  -1 1112.49   25.20 
  -3   3  -1 1105.99   24.80 
   3   3   1 1115.99   25.30 
   3   3   1 1115.09   25.30 
  -3   3  -1 1068.59   25.60 
  -5  -3  -1 2060.29   47.10 
   5  -3   1 2068.09   47.90 
   5  -3   1 2061.99   48.50 
  -5  -3  -1 2173.18   47.00 
   5  -3   1 2106.09   48.10 
   5  -3   1 2112.89   48.30 
   5  -3   1 2158.98   46.90 
   5  -3   1 2107.69   47.10 
  -5  -3  -1 2146.79   48.00 
  -5  -3  -1 2079.79   47.50 
  -5  -3  -1 2039.20   47.00 
  -5   3  -1 2114.09   46.90 
   5   3   1 2160.28   48.80 
   5   3   1 2119.19   47.60 
  -5   3  -1 2159.78   47.20 
  -5   3  -1 2104.09   48.10 
   5   3   1 2137.69   47.70 
   5   3   1 2083.99   48.50 
   5   3   1 2158.88   48.10 
   5   3   1 2120.99   47.60 
  -5   3  -1 2118.89   47.60 
  -7  -3  -1 4124.79   92.39 
  -7  -3  -1 4163.38   92.89 
   7  -3   1 4101.49   93.79 
   7  -3   1 4288.47   91.99 
  -7  -3  -1 4189.78   92.39 
  -7  -3  -1 4087.19   91.79 
   7  -3   1 4164.38   92.99 
   7  -3   1 3999.60   92.99 
  -7  -3  -1 4122.39   91.99 
   7  -3   1 4138.59   93.39 
   7  -3   1 4140.09   92.69 
  -7   3  -1 4110.39   92.39 
  -7   3  -1 4177.08   92.99 
   7   3   1 4274.37   93.09 
   7   3   1 4082.49   93.49 
  -7   3  -1 4293.57   91.99 
   7   3   1 4175.68   92.49 
   7   3   1 4073.79   92.09 
   7   3   1 4150.38   93.69 
  -9  -3  -1 1806.02   41.30 
   9  -3   1 1832.02   42.90 
  -9  -3  -1 1814.52   41.00 
   9  -3   1 1845.72   42.20 
   9  -3   1 1784.22   42.60 
   9  -3   1 1776.62   41.40 
   9  -3   1 1792.72   43.50 
  -9  -3  -1 1838.62   42.10 
   9  -3   1 1836.52   41.30 
  -9  -3  -1 1787.52   41.70 
  -9  -3  -1 1810.52   41.10 
  -9  -3  -1 1814.82   40.80 
   9   3   1 1888.81   42.50 
   9   3   1 1774.92   41.10 
   9   3   1 1847.72   41.80 
  -9   3  -1 1848.81   42.20 
   9   3   1 1823.82   43.20 
   9   3   1 1873.11   41.90 
  -9   3  -1 1872.51   41.20 
   9   3   1 1839.02   43.30 
  -9   3  -1 1791.02   41.50 
  11  -3   1   39.90    2.90 
 -11  -3  -1   41.20    2.50 
  11  -3   1   36.00    4.00 
 -11  -3  -1   50.69    2.80 
  11  -3   1   43.00    4.30 
 -11  -3  -1   47.00    3.40 
 -11  -3  -1   49.99    2.70 
  11  -3   1   44.20    3.50 
  11  -3   1   36.20    4.80 
 -11  -3  -1   39.00    2.20 
 -11  -3  -1   41.50    3.10 
  11   3   1   55.79    5.00 
  11   3   1   44.70    3.90 
  11   3   1   43.00    3.30 
  11   3   1   46.40    4.90 
 -11   3  -1   43.10    2.70 
 -11   3  -1   39.50    3.40 
 -11   3  -1   42.90    2.80 
 -11   3  -1   39.60    3.00 
  11   3   1   40.00    3.20 
  13  -3   1    6.40    2.20 
 -13  -3  -1   10.40    1.60 
  13  -3   1    9.60    2.90 
 -13  -3  -1   19.20    2.40 
  13  -3   1   17.90    3.10 
 -13  -3  -1    9.20    2.20 
  13   3   1   13.90    2.40 
  13   3   1   10.40    3.40 
 -13   3  -1    8.30    1.70 
 -13   3  -1    7.70    1.70 
 -13   3  -1    6.80    2.00 
  13   3   1    7.50    2.60 
  13   3   1    8.40    2.10 
  13   3   1    8.10    2.00 
  13   3   1   10.00    3.40 
 -13   3  -1   10.50    2.20 
  15  -3   1  597.14   16.20 
  15  -3   1  578.64   17.40 
 -15  -3  -1  611.24   15.30 
 -15  -3  -1  585.04   15.00 
 -15  -3  -1  596.54   15.00 
 -15  -3  -1  583.84   16.10 
  15  -3   1  603.54   19.20 
  15  -3   1  595.84   17.90 
 -15  -3  -1  610.64   15.90 
  15   3   1  621.64   17.70 
  15   3   1  614.94   16.30 
  15   3   1  612.74   15.90 
  15   3   1  612.54   16.20 
 -15   3  -1  604.24   16.30 
 -15   3  -1  603.84   15.30 
  15   3   1  609.64   19.60 
 -15   3  -1  577.84   15.80 
 -15   3  -1  599.54   15.50 
  15   3   1  590.24   18.80 
 -17  -3  -1 1448.26   33.70 
  17  -3   1 1433.06   36.10 
 -17  -3  -1 1460.05   34.60 
  17  -3   1 1434.36   34.90 
 -17  -3  -1 1445.06   34.90 
  17  -3   1 1504.45   37.00 
  17  -3   1 1466.55   38.20 
 -17  -3  -1 1449.95   33.90 
  17   3   1 1411.66   36.80 
  17   3   1 1417.56   39.20 
 -17   3  -1 1439.76   34.30 
 -17   3  -1 1460.35   35.00 
 -17   3  -1 1403.56   34.70 
  17   3   1 1469.95   35.10 
  17   3   1 1392.46   34.50 
  17   3   1 1379.76   37.70 
 -17   3  -1 1473.75   34.00 
  17   3   1 1419.96   34.80 
 -19  -3  -1  902.01   23.10 
 -19  -3  -1  899.61   22.30 
  19  -3   1  902.21   26.50 
  19  -3   1  948.21   25.60 
  19  -3   1  876.51   23.40 
 -19  -3  -1  884.31   23.30 
  19  -3   1  900.11   24.50 
 -19  -3  -1  889.71   22.10 
  19   3   1  848.52   28.00 
 -19   3  -1  887.71   26.40 
 -19   3  -1  919.31   22.50 
  19   3   1  898.61   23.60 
  19   3   1  897.71   23.30 
 -19   3  -1  895.81   23.40 
  19   3   1  881.91   23.10 
 -19   3  -1  905.41   22.90 
  19   3   1  884.41   25.70 
  21  -3   1  314.07   12.30 
 -21  -3  -1  312.17   11.00 
  21  -3   1  328.77   13.40 
 -21  -3  -1  297.27   11.00 
 -21  -3  -1  315.67   10.10 
 -21   3  -1  323.27   10.80 
  21   3   1  295.37   13.50 
  21   3   1  307.77   11.00 
 -21   3  -1  310.87   10.20 
  21   3   1  315.57   11.50 
  23   3   1    1.20    4.90 
  23   3   1   -1.50    3.40 
 -24  -4   1  110.79    7.80 
  22  -4  -1  445.16   16.20 
  22  -4  -1  470.65   17.20 
 -22  -4   1  429.96   14.20 
 -22  -4   1  435.96   14.10 
  22   4  -1  415.56   15.20 
  22   4  -1  425.16   18.20 
 -22   4   1  430.06   13.40 
 -20  -4   1  744.93   18.70 
  20  -4  -1  730.23   22.70 
  20  -4  -1  695.33   19.50 
 -20  -4   1  705.83   18.20 
 -20  -4   1  726.33   19.10 
  20  -4  -1  701.93   18.80 
 -20  -4   1  722.53   19.70 
  20  -4  -1  723.83   26.60 
  20  -4  -1  755.72   21.70 
 -20  -4   1  706.63   19.90 
  20   4  -1  646.64   25.10 
  20   4  -1  721.53   20.60 
 -20   4   1  715.33   19.70 
 -20   4   1  727.13   19.10 
 -20   4   1  686.23   19.70 
  20   4  -1  676.63   23.40 
  20   4  -1  706.43   20.90 
  18  -4  -1  687.53   19.00 
 -18  -4   1  681.13   17.80 
 -18  -4   1  666.23   18.50 
  18  -4  -1  679.73   19.60 
  18  -4  -1  675.33   20.90 
 -18  -4   1  669.43   17.20 
 -18  -4   1  691.63   17.30 
 -18  -4   1  658.03   16.90 
  18  -4  -1  653.93   17.50 
  18  -4  -1  655.63   18.20 
 -18  -4   1  662.83   18.20 
  18  -4  -1  673.93   22.00 
  18   4  -1  635.24   21.60 
 -18   4   1  655.83   17.60 
  18   4  -1  640.94   19.40 
  18   4  -1  667.73   19.20 
 -18   4   1  635.54   17.50 
  18   4  -1  643.24   23.20 
 -18   4   1  675.63   18.40 
  16  -4  -1   83.59    6.10 
 -16  -4   1   90.89    4.80 
  16  -4  -1   84.19    7.90 
  16  -4  -1   83.39    4.70 
 -16  -4   1   87.39    5.50 
 -16  -4   1   92.49    5.20 
 -16  -4   1   87.19    4.20 
 -16  -4   1   82.29    5.70 
 -16  -4   1   82.39    4.70 
  16  -4  -1   92.89    7.50 
  16  -4  -1   87.29    5.80 
 -16   4   1   86.29    5.60 
 -16   4   1   79.29    4.60 
 -16   4   1   82.89    4.90 
  16   4  -1   97.09    6.40 
  16   4  -1   88.39    7.90 
  16   4  -1   79.09    6.30 
  16   4  -1   81.89    8.70 
  14  -4  -1  135.59    6.50 
  14  -4  -1  136.79    7.80 
 -14  -4   1  137.89    6.00 
  14  -4  -1  135.39    6.60 
 -14  -4   1  134.89    5.40 
  14  -4  -1  136.89    6.20 
 -14  -4   1  135.69    5.70 
  14  -4  -1  132.79    5.30 
 -14  -4   1  140.89    5.40 
 -14  -4   1  131.19    4.90 
  14  -4  -1  137.39    8.20 
 -14  -4   1  136.59    6.30 
 -14   4   1  138.39    5.50 
  14   4  -1  140.79    6.80 
  14   4  -1  130.69    8.30 
  14   4  -1  142.59    7.90 
 -14   4   1  130.89    5.10 
  14   4  -1  130.49    6.70 
 -14   4   1  143.79    6.30 
  12  -4  -1  899.81   24.10 
 -12  -4   1  924.51   22.00 
 -12  -4   1  906.71   21.70 
  12  -4  -1  919.81   23.10 
 -12  -4   1  904.01   22.90 
 -12  -4   1  928.11   22.40 
 -12  -4   1  883.31   21.70 
 -12  -4   1  899.01   21.40 
  12  -4  -1  870.21   22.70 
  12  -4  -1  885.01   22.90 
  12  -4  -1  920.51   21.70 
  12  -4  -1  931.81   24.70 
 -12   4   1  870.81   21.40 
 -12   4   1  913.91   22.80 
  12   4  -1  917.71   23.20 
  12   4  -1  858.61   24.20 
 -12   4   1  923.11   21.80 
  12   4  -1  955.60   24.10 
  12   4  -1  934.61   23.10 
  10  -4  -1 1901.21   45.70 
 -10  -4   1 1905.31   43.60 
  10  -4  -1 1879.41   43.00 
 -10  -4   1 1901.01   42.70 
 -10  -4   1 1894.51   43.10 
 -10  -4   1 1903.51   44.30 
 -10  -4   1 1879.11   43.30 
  10  -4  -1 1862.41   45.10 
  10  -4  -1 1850.91   44.00 
 -10  -4   1 1877.71   43.20 
  10   4  -1 1786.12   45.00 
 -10   4   1 1890.91   44.10 
  10   4  -1 1932.31   44.10 
  10   4  -1 1977.00   44.40 
 -10   4   1 1899.41   44.50 
 -10   4   1 1930.71   43.00 
  10   4  -1 1926.81   44.70 
  -8  -4   1 1809.32   41.50 
   8  -4  -1 1802.82   43.10 
  -8  -4   1 1845.82   41.70 
  -8  -4   1 1851.11   41.00 
   8  -4  -1 1837.22   42.20 
   8  -4  -1 1797.32   41.30 
  -8  -4   1 1861.71   42.00 
  -8  -4   1 1855.71   41.60 
  -8   4   1 1840.02   42.70 
  -8   4   1 1825.12   41.30 
   8   4  -1 1876.01   42.40 
   8   4  -1 1745.53   42.90 
   8   4  -1 1885.51   41.60 
  -8   4   1 1807.32   42.50 
   8   4  -1 1834.12   42.00 
   8   4  -1 1808.62   42.60 
   8   4  -1 1813.22   42.20 
  -6  -4   1  611.64   14.70 
  -6  -4   1  610.84   14.30 
   6  -4  -1  613.04   15.10 
   6  -4  -1  610.54   15.90 
   6  -4  -1  597.54   14.40 
  -6  -4   1  623.64   15.10 
   6   4  -1  598.34   14.40 
  -6   4   1  605.04   15.60 
   6   4  -1  615.24   15.30 
   6   4  -1  626.64   15.10 
   6   4  -1  611.54   14.80 
  -6   4   1  606.54   14.40 
   6   4  -1  616.94   15.60 
   6   4  -1  613.54   15.90 
  -6   4   1  612.04   15.80 
   6   4  -1  609.94   15.10 
   4  -4  -1   70.89    2.60 
   4  -4  -1   71.79    3.20 
   4  -4  -1   70.89    2.60 
  -4  -4   1   76.69    2.90 
  -4  -4   1   86.89    3.30 
   4   4  -1   70.29    3.10 
   4   4  -1   74.19    3.50 
  -4   4   1   72.09    4.20 
  -4   4   1   71.19    3.70 
  -4   4   1   70.79    3.70 
   4   4  -1   69.79    2.90 
   4   4  -1   74.39    3.10 
  -4   4   1   76.69    2.60 
   4   4  -1   78.69    3.30 
   4   4  -1   89.49    3.40 
   4   4  -1   81.29    3.80 
   2  -4  -1 1050.29   23.70 
   2  -4  -1 1045.40   24.20 
   2  -4  -1 1092.99   23.70 
  -2  -4   1 1050.69   24.50 
   2  -4  -1 1035.70   24.40 
  -2  -4   1 1054.99   24.10 
  -2   4   1 1080.79   23.80 
  -2   4   1 1039.10   25.10 
  -2   4   1 1054.89   25.00 
  -2   4   1 1063.59   23.70 
   2   4  -1 1062.79   24.50 
   2   4  -1 1055.09   24.40 
   2   4  -1 1054.39   24.70 
   2   4  -1 1052.09   24.30 
  -2   4   1 1061.19   24.60 
   2   4  -1 1039.80   24.50 
   2   4  -1 1060.39   24.10 
   2   4  -1 1020.60   25.00 
  -2   4   1 1042.60   25.20 
  -2   4   1 1039.50   25.70 
   2   4  -1 1032.60   24.60 
   0  -4   1 1874.41   42.80 
   0  -4  -1 1860.11   42.00 
   0  -4  -1 1889.41   41.60 
   0  -4  -1 1887.21   42.60 
   0  -4  -1 1888.41   42.60 
   0   4  -1 1903.41   42.40 
   0   4  -1 1887.91   42.60 
   0   4   1 1892.01   43.10 
   0   4   1 1879.91   43.20 
   0   4   1 1885.01   42.70 
   0   4  -1 1894.21   42.90 
   0   4  -1 1903.21   42.30 
   0   4   1 1850.01   43.70 
   0   4  -1 1822.72   42.70 
   0   4  -1 1904.71   42.20 
   0   4   1 1940.51   41.80 
   0   4   1 1871.81   43.30 
   0   4  -1 1844.92   43.20 
   0   4  -1 1831.62   42.90 
  -2  -4  -1 2409.66   53.49 
  -2  -4  -1 2395.36   52.29 
   2  -4   1 2341.37   53.69 
   2  -4   1 2333.87   52.79 
  -2  -4  -1 2341.87   52.89 
  -2  -4  -1 2421.56   52.59 
   2   4   1 2426.86   53.39 
   2   4   1 2376.16   53.89 
   2   4   1 2378.66   54.09 
  -2   4  -1 2307.27   53.69 
  -2   4  -1 2324.77   52.89 
  -2   4  -1 2370.76   53.79 
  -2   4  -1 2380.46   52.79 
   2   4   1 2353.26   53.59 
   2   4   1 2359.16   54.49 
  -2   4  -1 2334.57   53.19 
   2   4   1 2369.26   53.39 
   4  -4   1 1545.15   36.00 
  -4  -4  -1 1579.94   36.10 
   4  -4   1 1571.44   36.30 
   4  -4   1 1556.64   35.20 
  -4  -4  -1 1531.85   35.40 
   4  -4   1 1534.35   34.60 
  -4  -4  -1 1529.65   35.00 
  -4  -4  -1 1595.14   34.80 
  -4  -4  -1 1551.24   34.90 
  -4   4  -1 1587.24   35.30 
   4   4   1 1563.64   35.80 
   4   4   1 1563.34   35.80 
  -4   4  -1 1539.55   36.30 
   4   4   1 1569.94   37.10 
   4   4   1 1539.65   36.50 
  -4   4  -1 1553.24   35.60 
  -4   4  -1 1541.15   36.40 
   4   4   1 1562.04   35.90 
   4   4   1 1629.44   36.50 
   6  -4   1  187.68    6.40 
   6  -4   1  186.98    5.30 
   6  -4   1  180.68    6.90 
  -6  -4  -1  192.28    5.30 
   6  -4   1  187.88    5.20 
  -6  -4  -1  208.48    5.10 
  -6  -4  -1  189.58    5.70 
   6  -4   1  185.98    6.60 
   6  -4   1  185.48    6.40 
  -6  -4  -1  188.68    6.30 
  -6  -4  -1  188.28    5.10 
   6   4   1  184.78    6.00 
   6   4   1  184.08    6.70 
   6   4   1  191.98    5.70 
  -6   4  -1  196.28    5.90 
   6   4   1  195.68    7.20 
   6   4   1  195.88    6.50 
  -6   4  -1  188.98    5.40 
  -6   4  -1  187.88    6.40 
   6   4   1  187.98    6.00 
   8  -4   1  387.06    9.80 
  -8  -4  -1  386.86    9.70 
   8  -4   1  388.76   11.10 
  -8  -4  -1  401.96   10.40 
   8  -4   1  388.76   11.40 
  -8  -4  -1  389.26    9.60 
  -8  -4  -1  388.96    9.90 
   8  -4   1  378.46   11.90 
   8  -4   1  372.66   11.10 
  -8  -4  -1  394.06   11.00 
  -8   4  -1  386.46   10.40 
   8   4   1  395.96   10.70 
   8   4   1  394.36   11.60 
   8   4   1  389.46   10.60 
  -8   4  -1  396.86   11.10 
   8   4   1  392.26   12.00 
   8   4   1  390.16   11.20 
  -8   4  -1  393.86    9.90 
  10  -4   1 1452.25   36.40 
  10  -4   1 1470.65   35.60 
 -10  -4  -1 1459.15   34.20 
  10  -4   1 1424.46   35.20 
 -10  -4  -1 1451.45   33.70 
 -10  -4  -1 1451.15   33.40 
 -10  -4  -1 1482.95   34.80 
 -10  -4  -1 1462.15   33.40 
  10  -4   1 1460.55   33.60 
  10  -4   1 1459.75   34.80 
 -10   4  -1 1383.96   34.00 
  10   4   1 1469.95   36.30 
  10   4   1 1428.06   35.10 
 -10   4  -1 1485.25   33.70 
  10   4   1 1507.85   34.50 
 -10   4  -1 1502.85   35.00 
  10   4   1 1514.85   34.60 
  10   4   1 1503.85   35.80 
 -12  -4  -1 1532.15   35.80 
  12  -4   1 1550.84   39.30 
 -12  -4  -1 1578.94   37.30 
  12  -4   1 1536.65   38.00 
  12  -4   1 1561.64   37.30 
 -12  -4  -1 1566.14   36.70 
  12  -4   1 1572.44   36.10 
 -12  -4  -1 1549.74   35.80 
  12  -4   1 1538.85   38.30 
 -12  -4  -1 1517.95   36.00 
  12   4   1 1584.74   37.00 
  12   4   1 1577.34   39.30 
 -12   4  -1 1480.55   36.50 
 -12   4  -1 1575.14   37.40 
  12   4   1 1616.44   38.70 
  12   4   1 1638.84   37.20 
  12   4   1 1569.14   37.90 
 -12   4  -1 1608.04   36.20 
 -14  -4  -1  905.11   22.90 
  14  -4   1  880.31   22.90 
  14  -4   1  864.91   24.20 
  14  -4   1  888.61   25.50 
 -14  -4  -1  878.91   21.30 
 -14  -4  -1  878.61   21.60 
 -14  -4  -1  881.71   21.30 
 -14  -4  -1  899.61   22.30 
  14  -4   1  883.81   23.90 
  14   4   1  920.61   22.90 
 -14   4  -1  899.11   22.90 
  14   4   1  898.41   22.20 
  14   4   1  928.71   24.60 
  14   4   1  912.81   22.80 
 -14   4  -1  908.21   21.70 
  14   4   1  914.21   24.00 
  14   4   1  884.91   25.60 
 -14   4  -1  819.12   22.20 
 -16  -4  -1  178.18    7.70 
  16  -4   1  180.18    8.90 
 -16  -4  -1  178.98    7.20 
  16  -4   1  182.58   10.40 
 -16  -4  -1  183.58    6.20 
  16  -4   1  176.98    9.30 
 -16  -4  -1  171.18    6.20 
  16  -4   1  174.08    7.80 
 -16  -4  -1  183.38    6.60 
  16   4   1  177.48    7.70 
  16   4   1  164.48    8.90 
  16   4   1  180.28    7.90 
  16   4   1  184.88   10.90 
 -16   4  -1  175.58    7.70 
 -16   4  -1  176.68    6.70 
  16   4   1  174.88    6.90 
 -18  -4  -1   16.50    3.30 
 -18  -4  -1   15.60    2.70 
 -18  -4  -1   15.00    3.50 
 -18  -4  -1   14.20    2.50 
  18  -4   1   16.50    3.50 
  18  -4   1   17.50    5.10 
  18  -4   1   13.40    4.20 
  18   4   1   13.20    3.60 
  18   4   1   14.80    3.10 
 -18   4  -1   15.00    2.90 
  18   4   1   10.60    3.40 
  18   4   1   12.40    5.50 
 -18   4  -1   13.40    3.40 
  18   4   1   14.40    4.50 
  20  -4   1  379.66   14.60 
 -20  -4  -1  373.56   12.70 
  20  -4   1  370.66   12.70 
 -20  -4  -1  374.16   11.20 
 -20  -4  -1  366.36   10.90 
 -20  -4  -1  373.76   12.20 
  20   4   1  375.96   13.00 
  20   4   1  369.46   12.00 
 -20   4  -1  368.16   12.60 
 -20   4  -1  375.86   11.60 
  20   4   1  354.26   15.00 
  20   4   1  361.96   12.60 
 -22  -4  -1  562.14   17.00 
  22   4   1  558.24   19.90 
  22   4   1  536.95   16.70 
  21  -5  -1    4.50    3.50 
  21  -5  -1   18.10    5.50 
 -21  -5   1    4.20    3.70 
 -21   5   1    2.90    3.40 
  21   5  -1   -3.70    5.50 
 -19  -5   1  126.79    7.90 
  19  -5  -1  118.69    7.40 
 -19  -5   1  134.29    7.60 
 -19  -5   1  134.59    6.90 
  19  -5  -1  139.09    9.90 
 -19  -5   1  134.29    7.90 
  19  -5  -1  127.89    6.40 
  19  -5  -1  135.89    8.70 
  19   5  -1  112.99   10.60 
  19   5  -1  121.59    8.60 
  19   5  -1  136.69    8.50 
 -19   5   1  133.49    7.70 
  19   5  -1  114.89   11.40 
 -19   5   1  131.79    6.80 
  17  -5  -1  606.14   17.70 
  17  -5  -1  616.64   16.50 
  17  -5  -1  627.34   18.70 
 -17  -5   1  638.84   16.30 
 -17  -5   1  608.04   15.70 
  17  -5  -1  621.64   20.80 
 -17  -5   1  641.34   16.70 
  17  -5  -1  600.94   19.70 
 -17  -5   1  614.54   17.90 
 -17  -5   1  641.24   17.50 
 -17   5   1  596.74   16.60 
  17   5  -1  595.34   18.40 
 -17   5   1  614.14   17.80 
  17   5  -1  605.54   20.50 
  17   5  -1  598.24   18.60 
  17   5  -1  622.44   21.70 
 -15  -5   1 1101.49   27.00 
 -15  -5   1 1096.29   26.40 
 -15  -5   1 1063.29   25.50 
  15  -5  -1 1098.59   30.30 
 -15  -5   1 1074.39   25.90 
  15  -5  -1 1045.20   27.50 
  15  -5  -1 1079.19   26.10 
  15  -5  -1 1092.79   28.10 
 -15  -5   1 1079.79   27.60 
  15  -5  -1 1059.29   29.20 
  15   5  -1 1057.09   28.00 
 -15   5   1 1099.59   27.60 
  15   5  -1 1015.50   30.00 
 -15   5   1 1067.29   26.20 
  15   5  -1 1091.09   28.20 
  15   5  -1 1102.49   29.60 
 -13  -5   1  750.52   18.50 
 -13  -5   1  742.13   19.00 
  13  -5  -1  734.33   21.70 
  13  -5  -1  724.63   20.90 
 -13  -5   1  739.53   18.10 
 -13  -5   1  716.23   17.60 
  13  -5  -1  726.73   19.90 
  13  -5  -1  723.73   18.10 
 -13  -5   1  751.62   18.50 
 -13  -5   1  732.23   19.70 
  13  -5  -1  708.33   19.50 
 -13   5   1  739.23   19.70 
  13   5  -1  726.73   19.80 
 -13   5   1  712.63   18.10 
  13   5  -1  697.83   21.20 
  13   5  -1  722.53   20.70 
  13   5  -1  719.93   19.70 
  11  -5  -1  319.47   11.50 
 -11  -5   1  332.17    8.70 
 -11  -5   1  325.17    9.40 
 -11  -5   1  325.27   10.60 
  11  -5  -1  322.97    9.00 
  11  -5  -1  314.97   10.20 
  11  -5  -1  339.07   12.20 
 -11  -5   1  330.67    9.90 
 -11  -5   1  323.77    9.10 
 -11  -5   1  334.47    9.30 
 -11   5   1  328.67   10.80 
  11   5  -1  323.47   11.00 
 -11   5   1  328.17   10.50 
  11   5  -1  330.17   10.40 
  11   5  -1  328.17   10.30 
  11   5  -1  328.07   11.50 
 -11   5   1  313.67    9.00 
  -9  -5   1   25.90    2.00 
   9  -5  -1   25.80    2.30 
   9  -5  -1   25.60    2.90 
  -9  -5   1   28.00    2.80 
  -9  -5   1   25.30    2.40 
  -9  -5   1   27.90    3.30 
  -9  -5   1   19.30    2.10 
  -9  -5   1   26.40    2.40 
   9  -5  -1   31.20    3.70 
   9  -5  -1   24.00    3.70 
   9   5  -1   27.30    3.30 
  -9   5   1   26.30    2.50 
  -9   5   1   29.40    3.60 
   9   5  -1   29.70    3.90 
  -9   5   1   30.40    4.00 
   9   5  -1   26.00    3.50 
   9   5  -1   26.60    3.40 
  -7  -5   1  831.42   19.80 
  -7  -5   1  847.42   20.00 
  -7  -5   1  841.82   21.30 
  -7  -5   1  821.22   20.10 
   7  -5  -1  822.42   19.60 
   7  -5  -1  827.52   21.60 
   7  -5  -1  843.52   20.60 
  -7  -5   1  850.01   20.40 
   7   5  -1  831.82   20.50 
  -7   5   1  829.52   21.20 
  -7   5   1  825.02   19.50 
   7   5  -1  849.12   20.20 
   7   5  -1  841.72   20.40 
   7   5  -1  818.72   21.60 
  -7   5   1  850.91   21.40 
   7   5  -1  819.52   21.10 
   7   5  -1  823.02   20.60 
  -5  -5   1 1904.41   42.70 
  -5  -5   1 1895.01   42.70 
  -5  -5   1 1849.52   44.00 
  -5  -5   1 1906.01   43.20 
   5  -5  -1 1899.91   42.30 
   5  -5  -1 1908.81   43.30 
   5   5  -1 1920.71   43.30 
  -5   5   1 1881.51   44.00 
   5   5  -1 1868.31   43.20 
   5   5  -1 1851.81   43.30 
   5   5  -1 1869.41   43.20 
  -5   5   1 1878.61   42.30 
   5   5  -1 1863.61   44.30 
   5   5  -1 1874.91   42.80 
   5   5  -1 1899.21   43.80 
  -5   5   1 1856.61   44.20 
  -3  -5   1 2791.42   61.29 
   3  -5  -1 2747.53   60.69 
   3  -5  -1 2752.52   61.69 
   3  -5  -1 2693.63   61.19 
  -3  -5   1 2718.63   61.59 
  -3  -5   1 2789.52   61.59 
   3   5  -1 2692.83   62.69 
   3   5  -1 2710.63   62.19 
   3   5  -1 2718.03   61.69 
  -3   5   1 2692.13   62.59 
   3   5  -1 2757.82   61.69 
   3   5  -1 2735.03   61.59 
  -3   5   1 2749.12   62.49 
   3   5  -1 2737.23   61.89 
   3   5  -1 2702.63   61.69 
  -3   5   1 2765.42   60.79 
  -3   5   1 2704.43   63.39 
   1  -5  -1  714.93   17.50 
  -1  -5   1  706.93   16.90 
  -1  -5   1  720.93   17.70 
  -1  -5   1  723.43   17.40 
   1  -5  -1  708.13   16.30 
   1  -5  -1  730.13   17.30 
  -1   5   1  723.13   18.40 
   1   5  -1  714.13   17.30 
  -1   5   1  715.03   18.30 
   1   5  -1  705.03   18.40 
  -1   5   1  717.63   18.10 
   1   5  -1  697.53   17.80 
   1   5  -1  721.83   17.80 
   1   5  -1  737.03   17.50 
  -1   5   1  723.33   16.50 
  -1   5   1  719.43   19.00 
   1   5  -1  716.73   17.30 
   1   5  -1  704.93   17.70 
   1   5  -1  707.43   16.90 
  -1   5   1  703.53   17.50 
  -1  -5  -1    8.50    1.60 
   1  -5   1    1.10    1.10 
  -1  -5  -1    1.90    1.00 
   1  -5   1    9.70    1.80 
  -1  -5  -1    2.70    1.40 
  -1   5  -1    4.10    1.60 
  -1   5  -1    4.00    1.50 
   1   5   1    7.90    2.20 
  -1   5  -1    3.40    1.20 
   1   5   1    1.30    1.60 
  -1   5  -1    3.50    1.30 
   1   5   1    0.90    1.50 
   1   5   1    3.20    1.50 
  -1   5  -1    9.20    1.80 
  -1   5  -1    7.90    2.10 
   1   5   1    0.90    1.20 
  -1   5  -1    1.80    1.10 
  -3  -5  -1  199.18    6.20 
   3  -5   1  191.48    5.60 
  -3  -5  -1  197.28    4.90 
  -3  -5  -1  199.08    6.40 
  -3  -5  -1  189.78    5.60 
   3  -5   1  191.78    6.70 
  -3   5  -1  190.08    5.90 
   3   5   1  189.88    6.30 
  -3   5  -1  186.88    5.50 
   3   5   1  193.48    7.00 
  -3   5  -1  191.98    6.70 
   3   5   1  195.48    6.30 
   3   5   1  193.88    6.30 
   3   5   1  197.38    7.60 
  -3   5  -1  189.98    6.70 
  -5  -5  -1 1738.93   40.10 
   5  -5   1 1781.52   39.30 
   5  -5   1 1772.02   41.10 
   5  -5   1 1739.63   40.90 
  -5  -5  -1 1796.32   39.20 
  -5  -5  -1 1752.32   39.70 
  -5  -5  -1 1717.23   40.80 
  -5   5  -1 1744.03   41.30 
   5   5   1 1744.03   41.40 
   5   5   1 1752.92   40.50 
   5   5   1 1757.22   40.60 
   5   5   1 1787.32   41.30 
   5   5   1 1775.02   42.20 
  -5   5  -1 1733.03   40.20 
   5   5   1 1688.53   40.20 
  -5   5  -1 1760.42   39.80 
  -5   5  -1 1764.52   41.20 
   7  -5   1 2062.99   46.60 
   7  -5   1 2017.30   48.20 
  -7  -5  -1 2064.19   47.30 
   7  -5   1 2132.39   48.70 
   7  -5   1 2006.20   49.20 
  -7  -5  -1 2062.59   48.10 
  -7  -5  -1 2054.89   46.70 
  -7  -5  -1 2123.19   46.40 
   7  -5   1 2076.69   48.40 
   7   5   1 2132.49   48.60 
  -7   5  -1 2097.69   48.50 
  -7   5  -1 2019.40   47.30 
   7   5   1 2065.09   49.50 
   7   5   1 2089.79   48.60 
   7   5   1 2070.69   47.80 
   7   5   1 2076.69   47.70 
  -7   5  -1 2088.99   46.90 
   9  -5   1  789.52   18.80 
   9  -5   1  773.22   20.70 
   9  -5   1  796.72   21.00 
  -9  -5  -1  805.12   18.60 
   9  -5   1  825.22   20.60 
  -9  -5  -1  783.42   18.90 
  -9  -5  -1  770.12   19.50 
  -9  -5  -1  803.72   20.40 
  -9  -5  -1  741.73   20.10 
   9  -5   1  774.12   21.60 
  -9   5  -1  789.72   20.00 
   9   5   1  805.52   20.80 
  -9   5  -1  795.62   19.00 
   9   5   1  782.72   21.80 
  -9   5  -1  804.52   20.70 
   9   5   1  800.82   19.90 
   9   5   1  785.22   20.70 
   9   5   1  793.82   20.00 
 -11  -5  -1  153.88    6.70 
 -11  -5  -1  136.69    4.80 
  11  -5   1  153.18    7.40 
  11  -5   1  146.59    5.10 
  11  -5   1  147.69    7.10 
 -11  -5  -1  147.69    5.90 
  11  -5   1  150.28    8.10 
 -11  -5  -1  146.29    5.20 
  11  -5   1  141.79    6.80 
  11   5   1  148.69    6.40 
  11   5   1  148.79    7.20 
  11   5   1  151.68    6.40 
  11   5   1  146.69    8.10 
 -11   5  -1  152.88    5.40 
  11   5   1  146.09    7.10 
 -11   5  -1  146.69    6.70 
 -13  -5  -1   50.69    4.20 
  13  -5   1   41.80    5.40 
 -13  -5  -1   41.80    3.10 
  13  -5   1   47.60    5.10 
  13  -5   1   41.20    6.00 
 -13  -5  -1   49.00    4.90 
 -13  -5  -1   46.70    3.60 
  13  -5   1   48.20    6.40 
  13   5   1   42.80    3.60 
  13   5   1   47.90    4.70 
  13   5   1   46.00    5.40 
 -13   5  -1   52.39    3.80 
  13   5   1   48.90    4.80 
  13   5   1   46.40    5.60 
  13   5   1   47.30    6.70 
 -13   5  -1   47.00    4.80 
  15  -5   1  327.27   11.70 
 -15  -5  -1  348.47   11.70 
 -15  -5  -1  350.96    9.70 
 -15  -5  -1  345.37   10.00 
  15  -5   1  343.97   14.10 
  15  -5   1  346.87   13.10 
 -15  -5  -1  329.77   10.80 
  15   5   1  354.16   11.70 
 -15   5  -1  344.87   11.70 
  15   5   1  346.27   10.50 
  15   5   1  342.07   12.80 
 -15   5  -1  348.97   10.30 
  15   5   1  346.27   11.60 
  15   5   1  348.37   14.70 
 -17  -5  -1  769.42   19.60 
  17  -5   1  782.92   21.80 
  17  -5   1  795.12   23.70 
 -17  -5  -1  786.72   21.70 
  17  -5   1  783.62   25.00 
 -17  -5  -1  793.82   20.20 
 -17  -5  -1  817.32   20.90 
 -17   5  -1  794.22   20.40 
  17   5   1  805.32   26.10 
  17   5   1  777.52   21.80 
 -17   5  -1  793.52   21.90 
  17   5   1  815.12   22.00 
  17   5   1  781.62   23.50 
  17   5   1  769.82   20.60 
  19  -5   1  761.02   21.50 
 -19  -5  -1  774.72   20.60 
 -19  -5  -1  758.32   21.30 
  19   5   1  746.93   21.70 
  19   5   1  743.13   20.40 
 -19   5  -1  778.32   21.60 
  19   5   1  722.63   23.50 
 -19   5  -1  767.02   20.10 
  21  -5   1  138.39    8.70 
 -21  -5  -1  153.08   12.30 
 -21   5  -1  136.79    8.30 
  20  -6  -1  395.86   17.50 
  18  -6  -1  368.46   13.10 
 -18  -6   1  363.06   13.20 
  18  -6  -1  372.56   15.40 
 -18  -6   1  376.36   14.50 
 -18   6   1  369.16   13.20 
 -18   6   1  349.77   11.60 
  18   6  -1  361.46   16.10 
  18   6  -1  346.87   19.20 
  16  -6  -1   82.19    8.30 
 -16  -6   1   72.29    5.50 
 -16  -6   1   70.99    6.70 
 -16  -6   1   86.19    5.20 
 -16  -6   1   75.49    6.10 
  16  -6  -1   76.09    6.90 
  16  -6  -1   72.99    7.10 
  16   6  -1   76.39    8.70 
 -16   6   1   72.29    5.10 
 -16   6   1   85.09    6.70 
  16   6  -1   77.79    7.30 
  16   6  -1   82.89    7.10 
  16   6  -1   80.49    8.60 
  14  -6  -1  116.89    7.40 
 -14  -6   1  121.29    5.50 
 -14  -6   1  119.99    5.90 
 -14  -6   1  115.09    4.70 
  14  -6  -1  122.39    8.60 
 -14  -6   1  113.29    6.50 
 -14  -6   1  118.59    7.20 
  14  -6  -1  109.49    8.70 
  14  -6  -1  108.89    5.20 
 -14   6   1  106.99    5.30 
 -14   6   1  122.39    7.20 
  14   6  -1  114.19    7.30 
  14   6  -1  114.49    8.50 
  14   6  -1  110.19    8.20 
  14   6  -1  113.89    7.20 
 -12  -6   1  460.45   12.40 
  12  -6  -1  452.65   15.50 
 -12  -6   1  481.05   14.50 
  12  -6  -1  458.95   16.10 
  12  -6  -1  453.85   12.30 
 -12  -6   1  468.85   12.80 
 -12  -6   1  464.65   11.70 
 -12  -6   1  472.95   13.40 
  12   6  -1  461.75   14.00 
  12   6  -1  460.75   14.90 
 -12   6   1  459.35   14.30 
  12   6  -1  442.66   15.40 
  12   6  -1  473.05   14.30 
 -12   6   1  437.76   12.30 
 -10  -6   1 1009.90   24.40 
  10  -6  -1 1014.00   26.80 
 -10  -6   1 1022.00   26.00 
 -10  -6   1 1013.30   24.90 
  10  -6  -1 1036.80   27.80 
 -10  -6   1 1025.90   23.30 
  10  -6  -1  994.40   23.90 
 -10  -6   1 1014.40   24.00 
 -10   6   1 1003.70   26.00 
 -10   6   1 1011.20   26.30 
  10   6  -1  996.50   25.30 
  10   6  -1  980.20   26.10 
  10   6  -1 1010.00   25.50 
 -10   6   1  966.10   23.80 
  10   6  -1  963.90   26.60 
  -8  -6   1 1072.49   25.20 
   8  -6  -1 1092.49   26.00 
   8  -6  -1 1055.29   27.20 
  -8  -6   1 1052.69   24.80 
  -8  -6   1 1056.39   25.50 
  -8  -6   1 1067.99   26.70 
   8  -6  -1 1030.40   24.50 
   8   6  -1 1023.10   25.70 
   8   6  -1 1025.30   27.10 
   8   6  -1 1027.70   25.90 
   8   6  -1 1044.00   26.60 
  -8   6   1 1034.60   26.80 
  -8   6   1 1040.30   24.50 
  -8   6   1 1038.20   26.70 
  -6  -6   1  226.88    7.00 
   6  -6  -1  232.18    6.60 
  -6  -6   1  237.78    7.60 
   6  -6  -1  235.38    8.90 
  -6  -6   1  234.98    8.50 
   6  -6  -1  235.88    7.70 
  -6   6   1  234.98    8.70 
   6   6  -1  234.58    7.70 
   6   6  -1  242.88    7.80 
   6   6  -1  233.88    8.40 
  -6   6   1  225.18    8.50 
  -6   6   1  227.68    6.60 
   6   6  -1  232.98    8.90 
   6   6  -1  232.68    7.60 
  -4  -6   1   16.10    2.00 
   4  -6  -1   16.80    1.90 
  -4  -6   1    7.40    2.40 
   4  -6  -1    8.60    2.00 
  -4  -6   1   10.40    2.00 
  -4   6   1   14.50    2.60 
  -4   6   1    9.40    2.90 
   4   6  -1   13.80    2.10 
  -4   6   1   11.80    2.60 
   4   6  -1   11.00    2.00 
   4   6  -1    9.60    2.30 
   4   6  -1   11.90    2.10 
   4   6  -1   10.70    2.60 
   4   6  -1   12.40    2.10 
  -2  -6   1  533.55   14.60 
  -2  -6   1  549.95   13.50 
  -2  -6   1  533.95   14.10 
   2  -6  -1  530.05   12.80 
   2  -6  -1  540.25   14.00 
  -2  -6   1  533.25   13.90 
   2   6  -1  547.25   15.40 
  -2   6   1  535.05   14.90 
   2   6  -1  553.44   14.00 
   2   6  -1  544.25   14.40 
   2   6  -1  545.45   14.00 
   2   6  -1  549.54   14.00 
  -2   6   1  531.05   15.90 
   2   6  -1  532.75   14.20 
   2   6  -1  527.15   14.60 
  -2   6   1  539.35   15.20 
  -2   6   1  532.85   15.10 
   0  -6  -1 1048.00   24.90 
   0  -6   1 1055.29   25.30 
   0  -6   1 1054.99   24.80 
   0  -6   1 1053.99   24.70 
   0  -6   1 1038.80   25.40 
   0  -6  -1 1038.80   25.00 
   0  -6   1 1030.20   24.30 
   0   6   1 1033.60   25.10 
   0   6  -1 1033.60   24.80 
   0   6  -1 1010.20   26.30 
   0   6   1 1037.10   26.00 
   0   6  -1 1027.00   25.60 
   0   6  -1 1046.60   24.30 
   0   6   1 1031.80   25.70 
   0   6  -1 1088.19   25.00 
   0   6   1 1044.70   27.00 
   0   6  -1 1012.40   25.50 
   0   6   1 1042.30   26.20 
   0   6  -1 1042.50   25.50 
  -2  -6  -1 1067.09   25.80 
   2  -6   1 1061.29   26.20 
  -2  -6  -1 1078.29   25.70 
   2  -6   1 1062.39   25.30 
   2   6   1 1053.19   26.00 
   2   6   1 1055.99   27.50 
   2   6   1 1064.79   25.80 
  -2   6  -1 1077.99   24.90 
  -2   6  -1 1096.79   25.40 
  -2   6  -1 1046.10   26.30 
   2   6   1 1076.49   26.80 
   2   6   1 1070.29   26.60 
  -2   6  -1 1077.39   26.50 
  -2   6  -1 1029.40   25.30 
  -4  -6  -1  901.51   20.30 
   4  -6   1  894.51   22.50 
  -4  -6  -1  904.51   22.10 
  -4  -6  -1  873.91   22.20 
   4  -6   1  890.61   22.70 
  -4   6  -1  939.31   24.00 
  -4   6  -1  885.21   22.70 
   4   6   1  884.61   22.90 
  -4   6  -1  875.71   22.80 
  -4   6  -1  885.01   21.10 
   4   6   1  885.11   22.10 
   4   6   1  905.11   23.00 
   4   6   1  871.41   21.90 
   4   6   1  872.21   23.80 
  -6  -6  -1   58.09    3.50 
  -6  -6  -1   58.79    4.40 
   6  -6   1   56.69    2.70 
   6  -6   1   60.09    4.70 
   6  -6   1   58.69    4.70 
   6  -6   1   58.19    4.70 
  -6  -6  -1   57.89    2.50 
   6  -6   1   48.50    5.10 
   6   6   1   55.59    4.10 
  -6   6  -1   55.49    3.20 
   6   6   1   60.29    4.90 
   6   6   1   53.59    5.40 
   6   6   1   59.19    4.20 
  -6   6  -1   59.59    4.60 
   6   6   1   62.49    4.90 
  -8  -6  -1  196.08    6.70 
  -8  -6  -1  196.58    7.60 
   8  -6   1  192.78    8.10 
   8  -6   1  194.68    8.80 
   8  -6   1  188.58    7.90 
   8  -6   1  188.88    5.80 
  -8  -6  -1  192.98    5.50 
   8   6   1  176.98    8.80 
   8   6   1  185.58    7.20 
   8   6   1  196.68    7.90 
   8   6   1  183.68    7.20 
  -8   6  -1  183.48    7.80 
  -8   6  -1  187.88    6.20 
   8   6   1  185.58    7.90 
   8   6   1  189.08    6.00 
  10  -6   1  717.83   17.80 
  10  -6   1  744.23   20.00 
  10  -6   1  728.73   20.50 
  10  -6   1  724.73   21.30 
 -10  -6  -1  739.73   18.80 
 -10  -6  -1  750.32   17.50 
 -10  -6  -1  729.33   19.70 
  10   6   1  730.53   18.20 
 -10   6  -1  729.53   20.10 
 -10   6  -1  727.33   18.10 
  10   6   1  723.73   20.30 
  10   6   1  708.93   19.20 
  10   6   1  733.93   19.50 
  10   6   1  718.23   21.60 
  10   6   1  752.52   20.10 
 -12  -6  -1 1005.90   25.90 
 -12  -6  -1  984.10   23.50 
  12  -6   1 1001.90   26.90 
 -12  -6  -1  980.50   24.70 
  12  -6   1  988.20   27.80 
  12  -6   1  990.00   26.00 
  12   6   1  980.60   28.10 
  12   6   1  996.90   25.60 
  12   6   1  985.30   26.50 
 -12   6  -1  987.00   24.10 
  12   6   1  988.70   25.40 
 -12   6  -1 1012.20   26.20 
  12   6   1  990.70   24.30 
 -14  -6  -1  443.76   14.10 
  14  -6   1  449.95   16.40 
 -14  -6  -1  437.16   13.00 
  14  -6   1  433.16   15.20 
 -14  -6  -1  421.06   11.80 
  14  -6   1  435.86   14.30 
  14   6   1  447.46   17.00 
 -14   6  -1  440.86   12.40 
  14   6   1  437.66   15.10 
  14   6   1  435.26   12.60 
 -14   6  -1  454.65   14.30 
  14   6   1  441.46   14.00 
  14   6   1  432.46   13.80 
 -16  -6  -1  112.19    7.50 
 -16  -6  -1  125.09    6.70 
  16  -6   1  119.69    8.00 
 -16   6  -1  123.99    6.10 
  16   6   1  118.39    7.70 
  16   6   1  113.69    8.80 
  16   6   1  109.49    6.00 
 -16   6  -1  118.09    7.60 
  18  -6   1    6.70    3.90 
 -18  -6  -1    5.20    3.90 
  18   6   1    4.80    4.80 
 -18   6  -1    6.80    3.80 
  17  -7  -1  281.27   14.50 
  15  -7  -1  550.44   18.90 
 -15  -7   1  532.65   17.00 
 -15  -7   1  534.15   17.60 
  15  -7  -1  533.55   17.10 
 -15   7   1  495.75   15.80 
  15   7  -1  518.85   18.40 
 -15   7   1  541.75   17.10 
 -13  -7   1  491.05   15.80 
 -13  -7   1  514.35   14.70 
  13  -7  -1  481.75   17.30 
  13   7  -1  490.45   15.50 
  13   7  -1  468.35   16.50 
 -13   7   1  503.15   15.90 
  13   7  -1  465.05   15.90 
  11  -7  -1  111.39    8.20 
 -11  -7   1  113.29    7.20 
 -11  -7   1  106.69    4.30 
 -11  -7   1  111.49    6.20 
  11  -7  -1  104.29    8.60 
  11   7  -1  107.09    6.50 
 -11   7   1  112.49    7.40 
  11   7  -1  105.19    7.30 
  11   7  -1  112.59    6.60 
 -11   7   1  104.49    7.10 
   9  -7  -1    8.10    4.00 
  -9  -7   1   11.60    2.80 
  -9  -7   1    4.00    3.10 
   9  -7  -1   10.60    3.70 
   9  -7  -1    8.40    1.90 
   9   7  -1   10.20    2.80 
  -9   7   1    7.40    3.10 
   9   7  -1   10.20    2.80 
   9   7  -1    8.00    3.20 
  -9   7   1   11.90    3.40 
  -7  -7   1  354.16   11.70 
   7  -7  -1  330.77   12.20 
   7  -7  -1  342.87    9.20 
  -7  -7   1  353.16   10.50 
   7   7  -1  334.27   10.70 
  -7   7   1  351.16   11.90 
   7   7  -1  326.97   13.00 
   7   7  -1  335.27   10.80 
   7   7  -1  336.47   11.60 
  -7   7   1  353.86   12.10 
   5  -7  -1 1056.09   24.80 
   5  -7  -1 1066.89   27.80 
  -5  -7   1 1086.79   27.30 
  -5  -7   1 1089.29   26.10 
   5  -7  -1 1062.19   26.30 
   5   7  -1 1060.49   26.40 
  -5   7   1 1078.59   27.80 
   5   7  -1 1067.79   26.40 
   5   7  -1 1065.89   28.00 
   5   7  -1 1038.60   27.20 
  -5   7   1 1066.49   27.60 
   5   7  -1 1083.19   26.20 
   3  -7  -1 1068.09   26.20 
  -3  -7   1 1070.99   26.90 
   3  -7  -1 1051.89   24.70 
  -3  -7   1 1091.09   26.00 
  -3  -7   1 1097.09   26.20 
   3   7  -1 1054.89   27.90 
  -3   7   1 1064.89   27.40 
   3   7  -1 1077.59   26.30 
   3   7  -1 1051.29   26.10 
   3   7  -1 1100.19   26.10 
  -3   7   1 1049.49   27.60 
   3   7  -1 1048.60   27.10 
  -3   7   1 1083.09   28.80 
   1  -7  -1  371.96   10.90 
  -1  -7   1  376.06   10.80 
  -1  -7   1  379.16   11.10 
   1   7  -1  363.56   11.40 
  -1   7   1  361.56   12.10 
   1   7  -1  375.56   11.70 
   1   7  -1  371.36   12.50 
  -1   7   1  367.56   12.10 
   1   7  -1  391.66   10.90 
  -1   7   1  374.36   13.20 
  -1   7   1  378.26   11.90 
   1   7  -1  362.76   11.10 
   1  -7   1   10.70    2.60 
  -1  -7  -1    3.60    2.10 
  -1   7  -1   11.50    2.60 
  -1   7  -1    9.60    1.90 
  -1   7  -1   11.20    2.60 
   1   7   1    5.00    2.10 
   1   7   1    8.00    3.10 
   1   7   1    6.20    2.60 
   1   7   1    6.00    2.50 
   1   7   1    5.00    2.30 
  -3  -7  -1  185.88    7.00 
  -3  -7  -1  179.88    7.00 
   3  -7   1  175.58    7.50 
  -3   7  -1  176.48    7.50 
   3   7   1  183.18    8.10 
   3   7   1  174.38    7.00 
   3   7   1  181.18    8.90 
  -3   7  -1  176.88    7.60 
   3   7   1  175.68    7.80 
  -3   7  -1  179.28    6.00 
   5  -7   1  715.93   19.40 
  -5  -7  -1  725.93   18.70 
  -5  -7  -1  727.23   16.50 
   5  -7   1  702.03   19.50 
  -5  -7  -1  708.83   18.90 
   5   7   1  701.33   19.70 
   5   7   1  667.13   18.50 
  -5   7  -1  696.73   19.40 
   5   7   1  703.43   20.80 
  -5   7  -1  690.03   17.40 
   5   7   1  710.13   19.60 
  -7  -7  -1 1040.00   25.70 
   7  -7   1 1006.30   26.40 
  -7  -7  -1 1039.00   23.40 
   7  -7   1  998.30   27.60 
  -7  -7  -1 1023.70   26.00 
   7  -7   1 1011.80   23.60 
   7  -7   1 1009.90   26.60 
  -7   7  -1 1002.00   26.50 
   7   7   1  976.30   27.80 
   7   7   1  995.30   26.60 
   7   7   1 1046.50   24.00 
   7   7   1  983.50   25.50 
  -7   7  -1  997.60   24.30 
   7   7   1 1025.20   26.40 
   9  -7   1  511.45   15.40 
  -9  -7  -1  499.65   12.20 
   9  -7   1  491.95   16.50 
   9  -7   1  492.15   12.50 
  -9  -7  -1  485.85   14.90 
   9  -7   1  485.55   15.60 
   9   7   1  476.75   16.60 
   9   7   1  478.25   15.50 
  -9   7  -1  471.25   13.00 
  -9   7  -1  497.35   15.30 
   9   7   1  468.15   14.20 
   9   7   1  496.05   13.00 
   9   7   1  480.95   14.40 
  11  -7   1   40.60    5.60 
  11  -7   1   40.10    4.90 
 -11  -7  -1   45.70    5.00 
  11  -7   1   37.90    4.90 
  11   7   1   41.20    5.10 
  11   7   1   38.80    3.80 
 -11   7  -1   40.40    4.00 
  11   7   1   44.70    6.20 
  11   7   1   50.49    5.40 
 -11   7  -1   37.20    4.60 
  13  -7   1   11.10    4.00 
 -13  -7  -1   10.30    2.90 
 -13  -7  -1   16.50    4.10 
  13   7   1   15.70    3.50 
 -13   7  -1   12.00    3.70 
 -13   7  -1   12.30    2.60 
  13   7   1   14.90    3.00 
  13   7   1   13.50    4.10 
  15  -7   1  181.88   12.70 
 -15  -7  -1  205.38   13.80 
 -15  -7  -1  169.78    9.80 
 -15   7  -1  179.68   11.80 
  15   7   1  165.58   12.40 
  12  -8  -1  302.77   13.50 
  12   8  -1  273.47   12.30 
 -10  -8   1  443.36   14.20 
  10  -8  -1  447.26   16.10 
 -10  -8   1  438.16   14.80 
  10   8  -1  419.96   14.00 
  10   8  -1  433.36   15.20 
 -10   8   1  452.85   15.20 
  -8  -8   1  438.76   14.20 
   8  -8  -1  436.86   15.30 
   8   8  -1  409.96   14.40 
   8   8  -1  407.96   13.40 
  -8   8   1  425.56   14.50 
   8   8  -1  431.56   13.40 
  -6  -8   1  160.98    8.00 
  -6  -8   1  167.68    7.60 
   6  -8  -1  172.08    9.10 
  -6   8   1  160.28    8.40 
   6   8  -1  166.48    7.40 
  -6   8   1  174.18    9.70 
   6   8  -1  171.08    7.50 
   4  -8  -1   19.80    4.00 
  -4   8   1   22.80    3.80 
  -4   8   1   24.30    4.00 
   2  -8  -1  211.28    8.00 
  -2   8   1  202.58    8.90 
  -2   8   1  205.68    9.10 
   0  -8  -1  456.85   13.40 
   0   8   1  467.65   16.20 
   0   8   1  452.35   14.70 
   0   8   1  445.16   14.10 
   2  -8   1  602.34   17.30 
  -2  -8  -1  628.44   17.00 
   2   8   1  605.34   18.00 
  -2   8  -1  607.54   17.80 
   2   8   1  593.14   16.90 
   2   8   1  626.04   18.40 
   2   8   1  621.44   20.30 
  -2   8  -1  579.14   17.30 
   4  -8   1  291.37   10.80 
  -4  -8  -1  303.27   10.20 
   4  -8   1  296.97   11.10 
   4   8   1  286.17   10.10 
   4   8   1  291.77   11.00 
   4   8   1  290.57   11.40 
  -4   8  -1  289.07   10.80 
   6  -8   1   46.50    6.00 
   6  -8   1   44.10    5.80 
  -6  -8  -1   48.90    5.30 
   6   8   1   46.60    5.00 
  -6   8  -1   51.99    5.60 
   6   8   1   48.80    6.10 
  -8  -8  -1   80.19    6.50 
   8  -8   1   85.49    7.20 
   8   8   1   77.59    6.20 
   8   8   1   83.79    4.20 
  -8   8  -1   81.79    5.40 
   8   8   1   81.09    7.20 
  -8   8  -1   76.09    6.60 
  10  -8   1  448.56   18.10 
 -10  -8  -1  433.76   14.50 
 -10   8  -1  412.26   12.20 
  10   8   1  415.56   15.20 
 -10   8  -1  427.76   15.40 
  -3   9   1  451.15   15.30 
   3  -9   1   76.89    8.60 
  24   0  -2   81.59    9.40 
  24   0  -2   64.99    6.50 
  24   0  -2   68.89    7.20 
 -24   0   2   70.19    6.10 
 -24   0   2   77.49    6.20 
  22   0  -2  518.45   17.90 
  22   0  -2  522.45   16.20 
  22   0  -2  540.05   18.90 
 -22   0   2  525.55   14.80 
 -22   0   2  528.45   14.80 
  22   0  -2  500.05   15.70 
 -22   0   2  505.65   14.70 
 -20   0   2  904.71   22.90 
 -20   0   2  908.11   23.00 
 -20   0   2  914.71   23.00 
  20   0  -2  898.11   24.10 
  20   0  -2  931.81   24.50 
  20   0  -2  939.31   27.00 
 -18   0   2 1652.13   39.20 
  18   0  -2 1708.33   40.90 
  18   0  -2 1666.03   42.10 
 -18   0   2 1670.03   38.90 
  18   0  -2 1655.23   40.40 
  18   0  -2 1763.12   43.30 
 -18   0   2 1634.24   39.10 
 -18   0   2 1648.14   39.20 
 -16   0   2  752.22   18.80 
 -16   0   2  760.12   18.80 
  16   0  -2  802.22   22.40 
 -16   0   2  762.52   18.90 
  16   0  -2  760.02   20.40 
 -16   0   2  762.42   19.10 
  16   0  -2  768.62   20.30 
  16   0  -2  763.52   21.60 
 -16   0   2  738.33   19.00 
  14   0  -2   40.00    5.20 
 -14   0   2   40.50    3.40 
 -14   0   2   38.40    3.20 
 -14   0   2   38.70    2.90 
  14   0  -2   40.80    3.50 
 -14   0   2   36.80    3.30 
  14   0  -2   47.40    5.60 
 -14   0   2   46.70    3.20 
  14   0  -2   51.89    4.50 
  14   0  -2   41.80    4.20 
 -12   0   2  473.95   12.60 
 -12   0   2  491.95   12.50 
  12   0  -2  491.85   12.40 
 -12   0   2  497.45   12.40 
 -12   0   2  493.15   12.40 
  12   0  -2  486.25   14.10 
  12   0  -2  490.25   13.90 
 -12   0   2  487.05   11.90 
  12   0  -2  494.45   12.80 
  12   0  -2  549.85   15.30 
 -12   0   2  493.45   12.40 
  12   0  -2  484.35   15.10 
 -10   0   2 3303.47   72.59 
 -10   0   2 3171.78   72.69 
 -10   0   2 3337.77   72.39 
  10   0  -2 3140.99   75.09 
  10   0  -2 3325.47   72.59 
 -10   0   2 3260.27   72.39 
  10   0  -2 3199.18   74.09 
 -10   0   2 3314.27   72.19 
  10   0  -2 3224.38   73.99 
  10   0  -2 3315.07   72.59 
  10   0  -2 3162.88   74.79 
   8   0  -2 2828.62   65.09 
  -8   0   2 2943.61   63.59 
  -8   0   2 2858.21   63.59 
  -8   0   2 2922.21   63.59 
  -8   0   2 2775.52   63.89 
   8   0  -2 2837.22   65.09 
   8   0  -2 2919.51   63.39 
   8   0  -2 2895.61   63.49 
   8   0  -2 2771.52   65.49 
   8   0  -2 2759.82   65.49 
  -8   0   2 2851.71   63.69 
   8   0  -2 2922.81   63.79 
   6   0  -2 4539.15   95.99 
   6   0  -2 4133.09   96.19 
  -6   0   2 4319.47   94.89 
  -6   0   2 4331.77   94.99 
  -6   0   2 4275.97   95.19 
   6   0  -2 4197.98   96.19 
   6   0  -2 4381.36   95.89 
   6   0  -2 4241.18   96.39 
   6   0  -2 4245.48   96.09 
  -6   0   2 4277.87   95.49 
  -6   0   2 4428.26   95.29 
  -6   0   2 4215.48   95.29 
  -4   0   2 1669.93   37.70 
   4   0  -2 1719.63   37.60 
   4   0  -2 1662.13   38.30 
   4   0  -2 1766.02   37.40 
  -4   0   2 1668.43   38.00 
  -4   0   2 1656.53   37.30 
   4   0  -2 1585.64   38.40 
  -4   0   2 1716.03   37.40 
   4   0  -2 1664.43   37.90 
   4   0  -2 1754.72   38.20 
   4   0  -2 1607.14   38.30 
   2   0  -2 1101.29   25.30 
   2   0  -2 1100.49   25.90 
   2   0  -2 1117.29   25.90 
  -2   0   2 1122.99   25.40 
   2   0  -2 1150.38   25.50 
  -2   0   2 1099.99   26.10 
  -2   0   2 1156.38   25.10 
   2   0  -2 1155.78   25.30 
   0   0   2 1844.82   42.10 
   0   0  -2 1912.01   41.50 
   0   0   2 1870.11   41.60 
   0   0  -2 1918.71   41.70 
   0   0   2 1872.91   42.70 
   0   0  -2 1843.22   41.90 
   0   0  -2 1874.71   41.70 
   0   0  -2 1856.61   42.30 
  -2   0  -2 6692.63  150.38 
  -2   0  -2 6530.95  149.99 
   2   0   2 7126.69  149.79 
   2   0   2 6752.32  151.28 
  -2   0  -2 6847.62  149.49 
  -2   0  -2 6596.24  152.48 
   2   0   2 6565.24  151.58 
   2   0   2 6817.62  151.18 
  -2   0  -2 6826.82  150.58 
   4   0   2 5502.95  119.59 
  -4   0  -2 5260.57  119.19 
  -4   0  -2 5135.09  119.49 
  -4   0  -2 5476.25  119.89 
   4   0   2 5454.55  119.09 
  -4   0  -2 5156.28  121.19 
  -4   0  -2 5634.44  119.19 
   4   0   2 5352.46  120.99 
   4   0   2 5477.35  119.69 
   4   0   2 5339.57  121.19 
  -4   0  -2 5282.17  120.29 
  -6   0  -2  301.07    7.50 
  -6   0  -2  311.87    8.10 
   6   0   2  310.07    8.80 
   6   0   2  309.57    7.80 
   6   0   2  307.07    7.30 
  -6   0  -2  307.57    7.30 
   6   0   2  296.27    9.20 
   6   0   2  311.37    7.30 
   6   0   2  304.57    8.60 
  -6   0  -2  299.57    7.50 
  -6   0  -2  299.77    7.80 
  -8   0  -2   94.99    3.80 
   8   0   2   94.89    4.70 
   8   0   2   94.99    3.00 
  -8   0  -2   93.79    3.60 
   8   0   2   94.59    5.20 
   8   0   2   96.99    2.90 
  -8   0  -2   93.29    3.10 
  -8   0  -2   97.59    2.90 
   8   0   2   95.69    4.60 
   8   0   2  101.19    3.80 
  -8   0  -2   93.59    3.20 
 -10   0  -2  510.45   12.00 
  10   0   2  521.55   13.20 
  10   0   2  519.55   12.20 
 -10   0  -2  502.75   12.80 
 -10   0  -2  518.25   12.40 
  10   0   2  488.85   14.50 
  10   0   2  471.35   14.70 
 -10   0  -2  508.45   12.20 
  10   0   2  499.85   12.70 
  10   0   2  517.15   12.00 
 -10   0  -2  506.25   12.90 
  10   0   2  486.05   13.80 
  12   0   2 2043.00   47.90 
 -12   0  -2 2071.89   46.90 
  12   0   2 2153.38   49.90 
  12   0   2 2112.99   46.70 
 -12   0  -2 2078.39   46.80 
  12   0   2 2141.09   48.50 
 -12   0  -2 2049.49   47.50 
 -12   0  -2 2096.29   46.50 
  12   0   2 2020.10   49.50 
  12   0   2 2074.09   46.50 
 -12   0  -2 2007.60   47.40 
  12   0   2 1980.10   47.20 
 -14   0  -2 1951.50   44.60 
  14   0   2 2056.19   47.90 
  14   0   2 1995.30   46.10 
 -14   0  -2 1945.81   45.20 
 -14   0  -2 1921.81   44.10 
  14   0   2 1939.31   45.90 
 -14   0  -2 1896.31   45.00 
  14   0   2 1933.21   47.60 
  14   0   2 1898.71   44.40 
  16   0   2 1251.27   30.90 
 -16   0  -2 1232.08   32.00 
 -16   0  -2 1244.98   29.40 
 -16   0  -2 1181.48   28.70 
 -16   0  -2 1235.08   30.10 
  16   0   2 1296.87   32.80 
  16   0   2 1229.58   32.70 
 -18   0  -2   47.50    3.60 
 -18   0  -2   44.70    5.00 
  18   0   2   49.90    5.90 
 -18   0  -2   47.30    4.20 
  18   0   2   47.70    5.90 
  18   0   2   48.70    7.10 
 -20   0  -2   76.29    4.50 
  20   0   2   80.79    7.20 
 -20   0  -2   81.89    6.10 
  20   0   2   90.39    8.60 
  20   0   2   82.09    8.50 
 -20   0  -2   86.29    5.40 
  22   0   2  324.97   12.80 
 -22   0  -2  350.06   11.90 
 -22   0  -2  321.17   10.10 
 -22   0  -2  330.77   10.80 
  22   0   2  357.56   14.60 
  24   0   2  763.32   22.70 
 -25  -1   2  604.84   17.40 
  25  -1  -2  617.44   20.80 
 -25  -1   2  596.34   17.10 
  25  -1  -2  616.34   18.50 
  25   1  -2  589.44   19.10 
  25   1  -2  607.84   20.90 
  23  -1  -2  568.94   19.20 
  23  -1  -2  587.84   20.50 
 -23  -1   2  571.24   15.90 
  23  -1  -2  553.14   16.80 
 -23  -1   2  556.44   16.00 
  23  -1  -2  571.34   17.40 
 -23  -1   2  558.24   16.10 
 -23   1   2  551.94   15.90 
  23   1  -2  582.84   20.40 
  23   1  -2  549.45   17.00 
  23   1  -2  566.54   17.60 
 -23   1   2  552.44   15.90 
  23   1  -2  556.14   19.30 
 -21  -1   2  267.27    9.10 
  21  -1  -2  277.47   10.70 
 -21  -1   2  261.47    9.40 
 -21  -1   2  266.67    9.30 
  21  -1  -2  271.17   12.40 
 -21  -1   2  259.57    9.50 
  21  -1  -2  280.07   13.10 
  21  -1  -2  278.47   10.20 
  21   1  -2  257.77   13.10 
  21   1  -2  255.97   10.20 
 -21   1   2  255.97    9.20 
 -21   1   2  261.97    9.30 
  21   1  -2  265.87   12.50 
  21   1  -2  271.57   10.80 
  19  -1  -2   11.00    4.30 
  19  -1  -2   16.60    3.40 
  19  -1  -2   10.00    3.30 
 -19  -1   2    9.10    2.80 
 -19  -1   2    8.90    2.60 
  19  -1  -2   14.20    4.20 
 -19  -1   2    6.70    2.60 
 -19  -1   2    2.00    2.40 
  19   1  -2    0.00    4.00 
 -19   1   2    5.30    2.40 
 -19   1   2    3.70    2.40 
  19   1  -2    6.30    3.00 
  19   1  -2    7.30    4.10 
  19   1  -2    5.70    3.10 
 -17  -1   2  602.44   15.90 
  17  -1  -2  603.04   18.70 
  17  -1  -2  604.54   17.40 
  17  -1  -2  605.84   17.10 
 -17  -1   2  575.44   15.40 
 -17  -1   2  593.14   15.50 
 -17  -1   2  595.04   15.80 
  17  -1  -2  599.04   16.70 
 -17  -1   2  604.44   15.90 
  17  -1  -2  608.74   19.50 
  17   1  -2  617.74   19.40 
  17   1  -2  614.94   18.60 
  17   1  -2  601.34   17.10 
 -17   1   2  584.04   15.30 
 -17   1   2  612.34   15.70 
  17   1  -2  606.64   17.00 
 -17   1   2  590.04   15.70 
  15  -1  -2 1903.61   44.10 
 -15  -1   2 1829.02   43.00 
 -15  -1   2 1840.92   43.10 
  15  -1  -2 1826.72   46.20 
 -15  -1   2 1852.81   43.30 
  15  -1  -2 1913.81   47.20 
 -15  -1   2 1841.32   43.30 
 -15  -1   2 1848.42   43.30 
  15  -1  -2 1860.01   45.00 
  15  -1  -2 1835.62   43.20 
  15  -1  -2 1914.71   44.80 
 -15   1   2 1892.51   43.00 
  15   1  -2 1968.30   47.00 
  15   1  -2 1876.61   44.70 
 -15   1   2 1879.21   43.30 
 -15   1   2 1916.51   43.00 
  15   1  -2 1932.91   46.20 
 -15   1   2 1845.52   42.80 
 -15   1   2 1906.91   43.20 
  15   1  -2 1872.61   44.60 
 -13  -1   2 2391.16   55.59 
  13  -1  -2 2455.75   57.19 
 -13  -1   2 2319.67   55.79 
  13  -1  -2 2481.35   56.19 
  13  -1  -2 2439.76   58.49 
  13  -1  -2 2425.86   55.79 
 -13  -1   2 2415.26   55.79 
 -13  -1   2 2479.05   55.69 
  13  -1  -2 2477.85   58.99 
  13  -1  -2 2439.46   57.39 
 -13  -1   2 2441.86   55.79 
 -13   1   2 2414.36   55.89 
 -13   1   2 2476.15   55.79 
  13   1  -2 2541.25   58.49 
  13   1  -2 2577.84   59.29 
 -13   1   2 2461.65   55.69 
 -13   1   2 2523.55   55.59 
 -13   1   2 2432.86   55.49 
  13   1  -2 2576.54   57.49 
 -13   1   2 2484.65   55.49 
  13   1  -2 2492.65   57.19 
  11  -1  -2 1481.75   34.20 
 -11  -1   2 1444.26   34.10 
  11  -1  -2 1469.75   34.10 
  11  -1  -2 1499.35   36.50 
  11  -1  -2 1508.85   35.60 
 -11  -1   2 1436.56   34.20 
  11  -1  -2 1500.15   36.30 
  11  -1  -2 1476.25   35.40 
 -11  -1   2 1468.15   34.10 
 -11  -1   2 1444.56   33.90 
 -11   1   2 1505.35   34.00 
 -11   1   2 1498.65   33.90 
  11   1  -2 1461.95   34.50 
  11   1  -2 1543.65   36.60 
 -11   1   2 1479.35   34.00 
 -11   1   2 1452.45   34.30 
  11   1  -2 1498.25   36.90 
 -11   1   2 1519.05   33.80 
 -11   1   2 1514.15   34.00 
  11   1  -2 1534.75   35.70 
  -9  -1   2    6.70    1.30 
   9  -1  -2    5.30    1.90 
   9  -1  -2   10.50    1.30 
   9  -1  -2    7.40    1.90 
  -9  -1   2    5.10    1.30 
  -9  -1   2    7.80    1.30 
  -9  -1   2    6.80    1.30 
  -9  -1   2    7.10    0.90 
   9  -1  -2    6.50    2.10 
   9  -1  -2    4.10    1.70 
  -9   1   2    5.30    1.30 
   9   1  -2   12.00    2.50 
  -9   1   2    7.40    1.30 
   9   1  -2   11.20    1.30 
  -9   1   2    7.40    1.20 
   9   1  -2    6.40    1.90 
  -9   1   2    9.80    1.30 
   9   1  -2    4.40    1.80 
  -9   1   2    7.20    1.30 
   9   1  -2    3.30    2.10 
  -9   1   2    7.30    1.10 
   9   1  -2   10.80    1.30 
  -9   1   2   10.50    1.30 
  -7  -1   2  656.53   15.60 
   7  -1  -2  685.33   15.50 
  -7  -1   2  643.74   15.40 
   7  -1  -2  687.83   16.60 
  -7  -1   2  682.83   15.40 
   7  -1  -2  647.94   16.70 
   7  -1  -2  654.63   16.40 
  -7  -1   2  651.73   15.40 
  -7  -1   2  661.43   15.30 
   7  -1  -2  640.54   15.40 
   7  -1  -2  663.93   16.60 
   7   1  -2  663.83   15.40 
  -7   1   2  679.73   15.00 
   7   1  -2  623.54   17.00 
  -7   1   2  645.04   15.40 
   7   1  -2  575.84   16.70 
  -7   1   2  639.64   15.60 
  -7   1   2  671.93   15.70 
   7   1  -2  658.53   16.80 
   7   1  -2  660.33   15.30 
  -7   1   2  654.43   15.20 
   7   1  -2  657.43   16.80 
  -7   1   2  653.93   15.30 
  -5  -1   2 2259.07   48.70 
   5  -1  -2 2212.28   48.80 
   5  -1  -2 2222.78   49.60 
   5  -1  -2 2236.38   49.60 
  -5  -1   2 2168.48   48.90 
  -5  -1   2 2110.89   48.90 
  -5  -1   2 2262.37   48.70 
   5  -1  -2 2184.48   49.00 
   5   1  -2 2209.08   48.60 
   5   1  -2 2069.59   49.30 
  -5   1   2 2261.97   49.20 
  -5   1   2 2111.59   48.80 
   5   1  -2 2143.89   49.90 
   5   1  -2 2168.78   49.99 
  -5   1   2 2180.08   48.80 
  -5   1   2 2203.98   48.40 
  -5   1   2 2316.27   48.30 
   5   1  -2 1907.11   49.70 
   5   1  -2 2237.88   48.80 
  -5   1   2 2193.68   48.40 
  -3  -1   2 4739.93  105.79 
  -3  -1   2 4689.13  106.49 
   3  -1  -2 4740.73  107.39 
   3  -1  -2 4922.61  108.49 
   3  -1  -2 4997.10  107.79 
  -3  -1   2 4788.72  106.19 
   3  -1  -2 4831.52  107.79 
  -3   1   2 4716.53  108.89 
   3   1  -2 4692.33  106.99 
  -3   1   2 4830.52  107.69 
  -3   1   2 4812.42  107.29 
   3   1  -2 4902.31  107.19 
   3   1  -2 5009.30  109.89 
  -3   1   2 4701.73  106.29 
   3   1  -2 4540.05  108.89 
  -3   1   2 4882.61  105.69 
   3   1  -2 4776.32  106.69 
   3   1  -2 4469.75  106.29 
  -1  -1   2 3523.75   78.69 
   1  -1  -2 3629.84   80.49 
  -1  -1   2 3590.14   79.19 
   1  -1  -2 3722.03   79.09 
   1  -1  -2 3647.74   79.49 
  -1  -1   2 3381.46   78.89 
   1  -1  -2 3700.03   80.99 
  -1   1   2 3703.83   79.99 
   1   1  -2 3085.09   78.89 
   1   1  -2 3594.44   79.29 
   1   1  -2 3640.44   79.19 
   1   1  -2 3389.96   79.69 
  -1   1   2 3680.83   80.29 
  -1   1   2 3527.05   79.49 
  -1   1   2 3465.75   78.69 
   1   1  -2 3530.25   81.89 
   1   1  -2 3683.83   79.49 
  -1  -1  -2 1200.58   26.50 
   1  -1   2 1149.98   26.40 
  -1  -1  -2 1188.38   26.90 
   1  -1   2 1108.69   26.30 
  -1  -1  -2 1211.28   26.40 
  -1  -1  -2 1163.48   26.60 
   1  -1   2 1138.29   27.10 
   1  -1   2 1179.88   27.20 
   1   1   2 1250.17   26.60 
  -1   1  -2 1213.18   26.40 
  -1   1  -2 1192.08   26.40 
   1   1   2 1213.78   26.70 
   1   1   2 1194.88   26.90 
   1   1   2 1180.88   27.70 
  -1   1  -2 1212.18   26.80 
   1   1   2 1173.18   27.30 
  -1   1  -2 1090.79   27.30 
   3  -1   2  156.68    4.90 
  -3  -1  -2  170.68    4.10 
  -3  -1  -2  162.68    4.40 
   3  -1   2  163.18    5.50 
   3  -1   2  171.68    4.30 
  -3  -1  -2  169.18    4.50 
   3  -1   2  161.38    5.20 
  -3  -1  -2  164.38    4.90 
  -3  -1  -2  171.48    4.40 
  -3   1  -2  165.08    4.20 
   3   1   2  174.38    4.50 
   3   1   2  161.58    6.00 
   3   1   2  168.78    4.60 
  -3   1  -2  170.38    4.30 
   3   1   2  175.68    5.10 
   3   1   2  171.38    5.60 
  -3   1  -2  162.58    5.20 
  -3   1  -2  165.38    4.70 
   5  -1   2 1908.11   46.80 
   5  -1   2 2011.40   46.40 
   5  -1   2 2090.69   45.40 
  -5  -1  -2 2105.99   44.90 
  -5  -1  -2 2036.50   46.00 
  -5  -1  -2 2050.69   45.30 
  -5  -1  -2 2034.10   45.20 
  -5  -1  -2 2028.90   45.60 
   5  -1   2 1843.42   46.40 
   5   1   2 2055.99   47.20 
   5   1   2 2104.29   45.40 
  -5   1  -2 2004.20   45.60 
  -5   1  -2 1943.61   46.00 
   5   1   2 2116.79   45.70 
   5   1   2 2122.39   45.50 
  -5   1  -2 2048.90   45.40 
   5   1   2 2057.69   46.30 
   5   1   2 2032.40   47.00 
  -5   1  -2 2012.90   45.20 
  -5   1  -2 2067.59   45.20 
  -7  -1  -2 2888.51   64.59 
  -7  -1  -2 2848.52   65.29 
  -7  -1  -2 2913.01   64.99 
  -7  -1  -2 2909.41   64.59 
   7  -1   2 2793.52   65.69 
   7  -1   2 2894.91   66.59 
   7  -1   2 2765.02   66.29 
   7  -1   2 2860.31   65.09 
   7  -1   2 2975.10   64.19 
  -7  -1  -2 2995.20   64.19 
   7   1   2 2959.70   65.99 
   7   1   2 2986.20   64.69 
   7   1   2 2986.20   65.19 
   7   1   2 3023.50   66.79 
   7   1   2 2956.40   64.69 
  -7   1  -2 2854.81   64.99 
  -7   1  -2 2883.31   64.49 
  -7   1  -2 2874.51   64.49 
   7   1   2 2910.91   64.99 
  -7   1  -2 2963.80   64.69 
  -7   1  -2 2786.72   65.19 
   7   1   2 2933.11   66.79 
  -9  -1  -2 3424.26   76.69 
  -9  -1  -2 3517.45   76.19 
   9  -1   2 3402.36   78.79 
   9  -1   2 3447.05   77.89 
   9  -1   2 3459.35   78.79 
   9  -1   2 3328.77   77.29 
  -9  -1  -2 3444.56   76.59 
  -9  -1  -2 3395.16   77.29 
   9  -1   2 3477.15   76.19 
  -9  -1  -2 3387.26   77.09 
  -9   1  -2 3397.56   77.09 
  -9   1  -2 3483.85   76.69 
   9   1   2 3504.85   78.59 
   9   1   2 3485.15   78.89 
  -9   1  -2 3461.35   76.49 
  -9   1  -2 3473.25   76.49 
   9   1   2 3429.26   79.39 
  -9   1  -2 3305.37   77.19 
   9   1   2 3517.95   76.69 
   9   1   2 3568.34   77.49 
   9   1   2 3378.56   77.09 
   9   1   2 3514.45   76.69 
 -11  -1  -2 1234.38   27.30 
  11  -1   2 1237.58   28.80 
  11  -1   2 1194.98   30.20 
 -11  -1  -2 1260.27   27.80 
  11  -1   2 1229.98   29.10 
  11  -1   2 1198.38   27.40 
 -11  -1  -2 1198.28   27.80 
 -11  -1  -2 1196.28   28.30 
  11  -1   2 1229.38   30.20 
 -11  -1  -2 1180.08   28.50 
  11   1   2 1215.38   27.80 
  11   1   2 1147.29   30.10 
 -11   1  -2 1192.58   28.30 
  11   1   2 1219.18   28.80 
  11   1   2 1222.48   30.30 
  11   1   2 1179.58   28.30 
 -11   1  -2 1190.68   27.50 
 -11   1  -2 1144.99   28.20 
  11   1   2 1159.58   30.90 
  11   1   2 1235.48   27.90 
 -13  -1  -2    9.50    2.20 
 -13  -1  -2    9.70    2.00 
  13  -1   2    8.00    3.10 
 -13  -1  -2   14.90    1.90 
 -13  -1  -2    9.00    1.40 
  13  -1   2   13.90    2.80 
  13  -1   2   15.70    2.60 
 -13  -1  -2   13.40    1.80 
  13  -1   2   14.80    3.30 
  13   1   2   15.20    1.90 
 -13   1  -2   14.10    2.20 
  13   1   2   16.60    3.80 
  13   1   2   10.20    3.30 
 -13   1  -2   14.40    2.00 
  13   1   2    9.00    2.30 
  13   1   2    9.80    3.90 
  13   1   2   11.00    2.30 
 -13   1  -2   11.50    1.60 
  13   1   2   10.90    1.80 
 -13   1  -2   13.90    2.30 
 -15  -1  -2  402.56   10.30 
  15  -1   2  408.66   13.80 
 -15  -1  -2  404.26   11.50 
 -15  -1  -2  392.56   12.90 
  15  -1   2  409.86   12.30 
  15  -1   2  421.76   12.40 
 -15  -1  -2  408.26   10.90 
  15  -1   2  408.66   13.80 
 -15  -1  -2  401.66   11.60 
 -15   1  -2  395.06   10.60 
  15   1   2  399.86   11.00 
  15   1   2  382.06   10.70 
  15   1   2  388.66   12.50 
  15   1   2  428.06   15.10 
  15   1   2  388.96   11.50 
  15   1   2  380.26   14.20 
 -15   1  -2  402.36   11.10 
 -15   1  -2  398.86   11.60 
 -17  -1  -2 1255.67   30.90 
  17  -1   2 1304.97   33.40 
  17  -1   2 1286.97   32.00 
 -17  -1  -2 1270.97   30.20 
  17  -1   2 1215.88   33.20 
 -17  -1  -2 1264.97   30.90 
  17  -1   2 1284.07   31.70 
 -17  -1  -2 1264.97   29.50 
 -17   1  -2 1255.47   31.00 
  17   1   2 1243.18   30.40 
 -17   1  -2 1271.07   29.90 
  17   1   2 1370.26   34.70 
  17   1   2 1269.97   32.20 
  17   1   2 1250.67   34.30 
 -17   1  -2 1284.77   30.50 
 -19  -1  -2 1021.50   26.40 
  19  -1   2 1027.30   29.20 
 -19  -1  -2 1033.20   25.70 
  19  -1   2 1062.89   29.00 
  19  -1   2 1050.39   27.40 
  19   1   2 1153.58   30.50 
  19   1   2 1067.79   30.30 
 -19   1  -2 1012.40   25.30 
 -19   1  -2 1065.79   26.10 
 -19   1  -2 1047.50   26.70 
  19   1   2 1043.00   27.90 
  21  -1   2  463.35   17.30 
 -21  -1  -2  481.05   14.60 
  21  -1   2  463.85   15.40 
  21  -1   2  493.25   17.10 
 -21  -1  -2  472.45   13.60 
 -21   1  -2  466.95   13.10 
 -21   1  -2  468.15   13.90 
 -21   1  -2  488.45   14.80 
  21   1   2  466.95   18.20 
  21   1   2  548.15   18.60 
  21   1   2  470.35   15.90 
 -23  -1  -2  119.79    7.70 
 -23   1  -2  113.79    6.10 
  23   1   2  118.99    9.10 
  23   1   2  133.19   10.60 
 -23   1  -2  128.89    7.80 
  24  -2  -2   34.20    6.20 
 -24  -2   2   28.00    4.30 
  24  -2  -2   27.50    4.80 
 -24  -2   2   30.00    3.90 
  24   2  -2   19.90    4.70 
 -24   2   2   26.60    4.00 
 -24   2   2   26.10    3.90 
  24   2  -2   29.10    6.40 
 -22  -2   2  503.65   14.20 
  22  -2  -2  478.95   18.50 
  22  -2  -2  498.65   15.80 
 -22  -2   2  503.45   14.30 
  22  -2  -2  500.95   17.80 
 -22  -2   2  495.15   14.80 
 -22  -2   2  499.25   14.60 
  22  -2  -2  483.15   15.20 
  22   2  -2  489.85   18.30 
  22   2  -2  518.65   19.30 
 -22   2   2  487.65   14.40 
 -22   2   2  499.65   14.50 
  22   2  -2  474.75   15.60 
  22   2  -2  495.85   16.10 
 -20  -2   2  942.31   23.80 
 -20  -2   2  964.70   24.20 
 -20  -2   2  942.01   24.30 
  20  -2  -2  995.80   29.00 
 -20  -2   2  944.91   24.40 
  20  -2  -2  980.00   27.90 
  20  -2  -2  976.00   25.90 
 -20  -2   2  914.61   24.30 
  20  -2  -2  983.10   25.40 
 -20  -2   2  909.91   23.70 
  20   2  -2  977.40   29.00 
 -20   2   2  954.50   24.10 
  20   2  -2  943.81   25.40 
  20   2  -2  979.60   28.00 
 -20   2   2 1007.30   24.30 
  20   2  -2  963.70   25.80 
 -18  -2   2 1067.79   26.40 
  18  -2  -2 1109.09   27.90 
  18  -2  -2 1110.09   27.80 
  18  -2  -2 1082.49   31.00 
 -18  -2   2 1051.69   26.60 
 -18  -2   2 1057.69   26.70 
  18  -2  -2 1104.69   30.10 
  18  -2  -2 1101.39   28.30 
 -18  -2   2 1034.30   26.10 
 -18  -2   2 1044.70   26.70 
 -18  -2   2 1054.49   26.20 
 -18   2   2 1080.69   26.50 
  18   2  -2 1095.79   31.10 
  18   2  -2 1078.59   27.90 
 -18   2   2 1109.99   26.50 
  18   2  -2 1115.49   30.20 
  18   2  -2 1101.59   28.20 
  16  -2  -2  996.10   25.10 
  16  -2  -2 1000.60   25.90 
  16  -2  -2  972.10   24.00 
  16  -2  -2 1002.00   27.30 
 -16  -2   2  995.30   24.30 
 -16  -2   2  968.60   24.30 
 -16  -2   2  967.10   23.80 
  16  -2  -2 1007.90   28.00 
  16  -2  -2 1000.90   25.50 
 -16  -2   2  989.60   24.20 
 -16  -2   2  989.20   24.00 
  16   2  -2 1002.70   27.60 
  16   2  -2  927.41   28.20 
 -16   2   2 1008.30   24.30 
  16   2  -2 1006.00   25.70 
 -16   2   2 1015.20   24.10 
  16   2  -2 1043.10   26.10 
 -16   2   2  984.70   24.10 
 -14  -2   2   16.50    2.30 
  14  -2  -2   18.40    2.40 
 -14  -2   2   14.30    2.30 
 -14  -2   2   18.90    2.20 
  14  -2  -2   18.90    3.00 
  14  -2  -2   28.00    3.40 
 -14  -2   2   24.00    2.30 
  14  -2  -2   17.80    3.70 
 -14  -2   2   16.80    2.30 
  14  -2  -2   16.50    2.00 
 -14   2   2   18.60    2.30 
  14   2  -2   17.00    3.20 
  14   2  -2   22.60    4.60 
 -14   2   2   18.00    2.20 
  14   2  -2   15.80    3.00 
 -14   2   2   14.50    2.10 
  14   2  -2   27.10    4.30 
  12  -2  -2  674.83   18.90 
 -12  -2   2  671.83   16.80 
 -12  -2   2  677.83   16.80 
 -12  -2   2  700.83   16.50 
  12  -2  -2  673.93   18.00 
  12  -2  -2  684.63   16.70 
  12  -2  -2  674.33   18.10 
 -12  -2   2  675.53   16.60 
  12  -2  -2  696.23   19.20 
 -12  -2   2  675.23   16.90 
 -12   2   2  687.63   16.60 
  12   2  -2  727.13   18.40 
  12   2  -2  627.54   19.20 
  12   2  -2  668.43   19.50 
 -12   2   2  712.73   16.90 
 -12   2   2  691.73   16.90 
 -12   2   2  671.23   16.40 
  12   2  -2  701.83   18.40 
 -10  -2   2 1583.34   35.90 
  10  -2  -2 1554.74   35.60 
 -10  -2   2 1541.95   35.50 
 -10  -2   2 1573.34   35.80 
 -10  -2   2 1540.05   35.70 
  10  -2  -2 1558.64   37.50 
  10  -2  -2 1584.74   37.70 
  10  -2  -2 1535.95   36.90 
  10  -2  -2 1514.75   36.80 
  10   2  -2 1571.74   37.80 
 -10   2   2 1557.64   36.10 
  10   2  -2 1636.54   37.30 
 -10   2   2 1429.76   34.90 
 -10   2   2 1621.64   36.10 
 -10   2   2 1499.65   35.40 
 -10   2   2 1603.04   35.80 
  10   2  -2 1605.14   35.90 
  10   2  -2 1591.64   37.20 
  10   2  -2 1549.84   37.60 
  -8  -2   2 3881.11   87.09 
  -8  -2   2 3913.01   86.79 
   8  -2  -2 3915.31   88.39 
  -8  -2   2 3885.81   87.09 
   8  -2  -2 3949.30   86.89 
   8  -2  -2 3925.51   88.29 
   8  -2  -2 3850.31   87.89 
  -8  -2   2 4001.10   86.69 
   8  -2  -2 4104.49   86.59 
  -8  -2   2 3847.11   86.99 
  -8   2   2 3828.62   86.89 
  -8   2   2 4060.09   87.39 
   8   2  -2 3977.80   87.09 
   8   2  -2 3734.03   87.99 
  -8   2   2 3838.12   87.19 
   8   2  -2 4037.90   88.39 
   8   2  -2 3950.40   88.29 
   8   2  -2 3677.03   87.79 
  -8   2   2 4070.09   86.79 
  -8   2   2 3703.63   86.49 
   6  -2  -2 2993.90   66.69 
   6  -2  -2 3050.29   65.69 
  -6  -2   2 3010.00   65.69 
  -6  -2   2 2935.61   65.89 
  -6  -2   2 2878.51   65.59 
  -6  -2   2 2847.71   65.89 
  -6  -2   2 3055.39   65.49 
   6  -2  -2 2955.10   66.49 
   6  -2  -2 3028.80   65.79 
  -6   2   2 2860.91   65.19 
   6   2  -2 3042.70   66.49 
   6   2  -2 2981.40   66.49 
   6   2  -2 2831.12   65.99 
  -6   2   2 2765.62   65.59 
  -6   2   2 2974.10   66.09 
   6   2  -2 2964.80   65.89 
   6   2  -2 2913.41   66.79 
  -6   2   2 3022.40   66.29 
   4  -2  -2  621.64   14.50 
   4  -2  -2  623.34   14.60 
  -4  -2   2  611.44   14.60 
   4  -2  -2  624.64   15.20 
   4  -2  -2  622.04   15.00 
  -4  -2   2  629.94   14.30 
  -4  -2   2  621.84   14.60 
   4   2  -2  633.64   14.90 
  -4   2   2  613.74   15.40 
   4   2  -2  622.24   14.80 
  -4   2   2  632.44   15.20 
   4   2  -2  620.54   15.20 
  -4   2   2  595.84   14.30 
   4   2  -2  612.74   14.40 
  -4   2   2  625.44   15.00 
   4   2  -2  632.14   14.70 
  -2  -2   2   61.59    2.00 
  -2  -2   2   64.59    2.50 
  -2  -2   2   60.29    2.30 
   2  -2  -2   61.99    2.20 
   2  -2  -2   61.99    2.50 
   2  -2  -2   56.99    2.50 
   2   2  -2   58.29    2.20 
  -2   2   2   61.99    3.00 
  -2   2   2   57.89    3.00 
   2   2  -2   59.39    2.50 
   2   2  -2   58.99    2.10 
   2   2  -2   73.69    2.70 
   2   2  -2   59.89    2.30 
  -2   2   2   63.79    2.80 
   0  -2  -2 3364.56   75.39 
   0  -2  -2 3427.36   76.09 
   0  -2   2 3322.67   75.29 
   0  -2   2 3347.57   74.89 
   0  -2   2 3406.46   76.59 
   0  -2   2 3282.77   75.69 
   0  -2  -2 3445.76   75.99 
   0  -2  -2 3401.46   76.69 
   0   2   2 3531.95   76.09 
   0   2   2 3453.95   76.99 
   0   2   2 3522.25   76.79 
   0   2   2 3441.26   76.39 
   0   2  -2 3357.66   75.39 
   0   2  -2 3415.76   75.19 
   0   2  -2 3393.36   75.79 
   0   2  -2 3169.28   75.59 
   0   2   2 3390.76   75.99 
  -2  -2  -2 4620.84  101.29 
   2  -2   2 4462.55  101.09 
  -2  -2  -2 4468.55  101.79 
  -2  -2  -2 4516.25  102.29 
   2  -2   2 4382.66  101.59 
   2  -2   2 4434.26  101.39 
  -2  -2  -2 4416.36  101.09 
   2  -2   2 4474.55   99.99 
   2   2   2 4561.14  102.99 
   2   2   2 4458.75  102.29 
  -2   2  -2 4676.03  101.79 
  -2   2  -2 4613.24  100.79 
   2   2   2 4540.05  101.09 
   2   2   2 4644.04  101.49 
  -2   2  -2 4351.06  101.89 
   2   2   2 4779.62  101.49 
   4  -2   2 3088.79   67.49 
  -4  -2  -2 3062.29   67.89 
  -4  -2  -2 3016.70   67.89 
   4  -2   2 3080.39   69.29 
  -4  -2  -2 3101.79   67.39 
   4  -2   2 2942.81   67.79 
   4  -2   2 2981.10   68.79 
   4  -2   2 2987.80   68.59 
  -4  -2  -2 3047.70   68.39 
  -4   2  -2 2773.22   68.49 
   4   2   2 3031.40   68.99 
   4   2   2 2952.40   69.19 
   4   2   2 3109.79   68.09 
   4   2   2 3130.89   67.99 
  -4   2  -2 3151.88   68.19 
  -4   2  -2 3121.79   67.99 
   4   2   2 3102.59   68.49 
   4   2   2 3138.99   68.29 
   4   2   2 3186.68   68.89 
  -6  -2  -2 1099.29   24.80 
   6  -2   2 1079.59   25.40 
   6  -2   2 1096.69   24.70 
  -6  -2  -2 1108.89   24.70 
   6  -2   2 1041.00   26.60 
  -6  -2  -2 1102.99   25.20 
   6  -2   2 1121.19   26.70 
   6  -2   2 1060.59   25.90 
  -6  -2  -2 1115.39   25.60 
   6   2   2 1088.89   26.80 
   6   2   2 1135.19   25.10 
   6   2   2 1069.19   26.30 
   6   2   2 1110.99   25.20 
  -6   2  -2 1073.29   25.20 
   6   2   2 1109.89   26.20 
   6   2   2 1144.39   25.60 
  -6   2  -2  960.30   25.60 
   6   2   2 1104.79   25.20 
  -6   2  -2 1119.79   24.80 
  -8  -2  -2   23.70    1.80 
   8  -2   2   23.50    3.00 
  -8  -2  -2   18.40    1.70 
   8  -2   2   18.90    2.40 
  -8  -2  -2   18.80    2.10 
   8  -2   2   16.40    2.60 
   8  -2   2   17.80    2.30 
  -8  -2  -2   18.00    2.40 
   8   2   2   27.30    3.50 
   8   2   2   18.20    2.40 
   8   2   2   22.20    3.20 
   8   2   2   18.30    2.00 
   8   2   2   22.90    2.10 
   8   2   2   22.00    3.20 
  -8   2  -2   17.90    1.90 
  -8   2  -2   19.20    1.70 
  -8   2  -2   20.60    2.70 
 -10  -2  -2  341.27    7.90 
  10  -2   2  322.97    9.40 
  10  -2   2  324.27   10.70 
  10  -2   2  333.97    9.80 
  10  -2   2  315.97   10.80 
 -10  -2  -2  330.17    8.50 
 -10  -2  -2  330.87    9.10 
 -10  -2  -2  319.27    9.40 
 -10  -2  -2  331.37    8.50 
 -10   2  -2  326.67    8.40 
  10   2   2  351.16   10.80 
  10   2   2  337.27    8.90 
  10   2   2  295.37   10.20 
  10   2   2  333.67    8.90 
  10   2   2  330.97    9.60 
 -10   2  -2  311.67    9.40 
  10   2   2  333.97   11.80 
  10   2   2  329.17    9.10 
 -10   2  -2  336.57    8.70 
 -10   2  -2  324.37    9.10 
 -12  -2  -2 1422.06   32.30 
  12  -2   2 1445.56   33.80 
 -12  -2  -2 1415.56   33.30 
 -12  -2  -2 1405.26   32.30 
  12  -2   2 1390.96   34.80 
  12  -2   2 1355.86   34.90 
 -12  -2  -2 1398.26   32.00 
  12  -2   2 1380.06   33.30 
 -12  -2  -2 1395.56   32.90 
  12   2   2 1413.06   33.70 
  12   2   2 1378.96   33.00 
 -12   2  -2 1404.86   32.20 
  12   2   2 1444.46   36.60 
  12   2   2 1407.76   32.70 
  12   2   2 1422.96   35.20 
 -12   2  -2 1375.96   32.90 
  12   2   2 1391.06   32.70 
 -12   2  -2 1428.46   32.60 
  14  -2   2 2393.86   54.69 
  14  -2   2 2328.77   55.89 
 -14  -2  -2 2377.96   53.19 
 -14  -2  -2 2355.76   53.89 
  14  -2   2 2354.46   56.29 
 -14  -2  -2 2331.77   54.19 
  14  -2   2 2360.46   54.39 
 -14  -2  -2 2289.87   53.19 
  14   2   2 2294.87   53.99 
  14   2   2 2272.97   57.89 
  14   2   2 2342.37   53.59 
 -14   2  -2 2356.36   53.09 
  14   2   2 2406.66   55.09 
 -14   2  -2 2305.37   53.99 
 -14   2  -2 2361.56   53.49 
  14   2   2 2380.16   56.99 
  14   2   2 2353.16   53.69 
 -16  -2  -2  734.03   18.80 
  16  -2   2  728.13   21.30 
 -16  -2  -2  737.03   18.00 
  16  -2   2  717.63   20.90 
 -16  -2  -2  708.33   17.90 
 -16  -2  -2  720.03   19.00 
  16  -2   2  732.83   19.50 
  16  -2   2  746.13   19.50 
 -16   2  -2  722.23   17.90 
  16   2   2  701.03   18.50 
 -16   2  -2  720.63   18.30 
  16   2   2  713.73   20.20 
  16   2   2  702.73   18.80 
  16   2   2  703.73   18.40 
  16   2   2  761.52   23.50 
 -16   2  -2  715.53   19.00 
  16   2   2  718.23   22.30 
 -18  -2  -2   67.19    5.40 
 -18  -2  -2   73.79    5.40 
  18  -2   2   63.29    6.00 
  18  -2   2   68.89    7.30 
  18  -2   2   67.39    7.40 
 -18  -2  -2   66.89    4.40 
  18   2   2   57.69    6.70 
  18   2   2   53.69    6.90 
 -18   2  -2   61.79    4.80 
  18   2   2   62.59    4.90 
 -18   2  -2   63.59    4.40 
  18   2   2   67.09    5.00 
 -18   2  -2   64.79    5.60 
  18   2   2   69.39    8.10 
  20  -2   2   39.10    5.80 
 -20  -2  -2   41.60    5.30 
 -20  -2  -2   44.10    4.50 
 -20  -2  -2   47.40    4.50 
  20  -2   2   45.40    6.00 
 -20   2  -2   41.80    4.30 
  20   2   2   40.00    6.80 
 -20   2  -2   43.00    4.00 
 -20   2  -2   42.60    4.60 
  20   2   2   37.50    4.10 
  20   2   2   59.69    7.80 
  20   2   2   45.30    5.70 
 -22  -2  -2  396.66   14.40 
 -22  -2  -2  418.46   13.30 
  22   2   2  428.66   15.50 
 -22   2  -2  401.06   12.10 
 -22   2  -2  430.06   13.90 
  22   2   2  407.46   23.90 
  23  -3  -2  490.85   15.70 
 -23  -3   2  454.65   14.80 
  23  -3  -2  489.65   18.10 
 -23  -3   2  471.65   14.00 
  23   3  -2  465.75   16.20 
  23   3  -2  474.65   18.80 
 -23   3   2  473.85   14.30 
 -21  -3   2  250.87    9.80 
 -21  -3   2  238.88    9.40 
  21  -3  -2  253.17   12.90 
  21  -3  -2  248.38   10.70 
 -21  -3   2  237.98    9.60 
  21  -3  -2  271.27   13.90 
 -21  -3   2  240.08    8.90 
 -21  -3   2  251.27    9.20 
 -21  -3   2  235.48    8.30 
 -21   3   2  248.78    9.80 
  21   3  -2  241.88   10.40 
  21   3  -2  248.68   11.10 
  21   3  -2  242.18   14.20 
 -21   3   2  252.57    9.30 
  21   3  -2  243.08   13.20 
 -19  -3   2    5.30    2.60 
  19  -3  -2    7.10    4.70 
  19  -3  -2    6.70    3.20 
 -19  -3   2    5.40    2.70 
 -19  -3   2    8.50    3.00 
  19  -3  -2    4.40    4.20 
 -19  -3   2    4.80    2.80 
 -19  -3   2    4.80    3.00 
 -19  -3   2    9.00    2.50 
  19  -3  -2   10.60    3.50 
  19  -3  -2    6.50    3.00 
 -19   3   2    5.40    2.70 
  19   3  -2    1.50    4.60 
  19   3  -2    5.10    3.40 
  19   3  -2    1.40    3.60 
 -19   3   2    6.00    2.60 
  19   3  -2   -3.90    4.70 
 -19   3   2    0.60    2.60 
 -17  -3   2  320.47    9.80 
 -17  -3   2  308.97    9.30 
 -17  -3   2  314.27    9.70 
 -17  -3   2  313.57   10.50 
  17  -3  -2  327.47   11.00 
  17  -3  -2  312.97   11.30 
  17  -3  -2  308.47    9.60 
 -17  -3   2  314.27   10.20 
  17  -3  -2  316.27   12.70 
 -17  -3   2  317.57   10.00 
  17  -3  -2  308.77   10.70 
  17  -3  -2  316.87   13.40 
 -17   3   2  323.17    9.80 
 -17   3   2  322.07   10.00 
  17   3  -2  311.27   11.30 
 -17   3   2  310.17   10.00 
  17   3  -2  322.97   13.70 
  17   3  -2  330.17   12.00 
  17   3  -2  279.07   13.80 
 -15  -3   2 1538.85   36.00 
  15  -3  -2 1550.14   36.80 
 -15  -3   2 1542.55   35.70 
  15  -3  -2 1552.24   39.30 
  15  -3  -2 1540.75   38.70 
  15  -3  -2 1545.25   37.30 
  15  -3  -2 1543.35   35.90 
  15  -3  -2 1519.15   37.50 
 -15  -3   2 1525.35   35.90 
 -15  -3   2 1561.04   35.60 
 -15  -3   2 1534.95   36.20 
  15   3  -2 1568.04   37.80 
  15   3  -2 1447.16   39.30 
  15   3  -2 1513.35   39.90 
 -15   3   2 1555.14   36.40 
 -15   3   2 1405.96   35.60 
 -15   3   2 1557.94   36.10 
  15   3  -2 1587.64   38.10 
 -13  -3   2 1966.90   45.40 
 -13  -3   2 1961.70   44.90 
  13  -3  -2 1922.51   47.50 
 -13  -3   2 2051.49   44.80 
  13  -3  -2 1932.21   46.50 
 -13  -3   2 1953.40   45.10 
  13  -3  -2 1986.80   48.00 
  13  -3  -2 1956.80   45.00 
 -13  -3   2 1979.60   45.10 
  13  -3  -2 1959.70   46.40 
  13   3  -2 2012.70   46.90 
 -13   3   2 1981.40   45.20 
  13   3  -2 1876.31   46.80 
 -13   3   2 1889.31   44.70 
  13   3  -2 2014.60   48.10 
 -13   3   2 2000.00   45.70 
  13   3  -2 1957.20   48.00 
 -11  -3   2  692.23   17.10 
 -11  -3   2  713.93   17.20 
  11  -3  -2  677.13   18.90 
 -11  -3   2  690.13   16.90 
  11  -3  -2  680.23   18.20 
  11  -3  -2  691.83   16.90 
  11  -3  -2  670.93   18.20 
 -11  -3   2  690.73   17.20 
  11  -3  -2  698.33   19.20 
  11   3  -2  740.03   19.20 
  11   3  -2  696.83   18.70 
 -11   3   2  710.73   17.60 
  11   3  -2  716.03   17.30 
 -11   3   2  671.13   16.90 
 -11   3   2  697.33   17.70 
  11   3  -2  675.33   18.40 
 -11   3   2  675.63   16.50 
  11   3  -2  707.33   18.50 
   9  -3  -2  101.69    5.20 
  -9  -3   2   99.39    4.20 
   9  -3  -2  101.89    4.80 
  -9  -3   2   97.79    4.20 
   9  -3  -2  106.69    3.70 
   9  -3  -2  104.69    5.40 
  -9  -3   2   99.99    4.10 
  -9  -3   2   93.09    3.80 
   9   3  -2  102.29    4.80 
   9   3  -2  103.89    4.90 
  -9   3   2   97.29    3.20 
   9   3  -2  100.29    4.10 
  -9   3   2  103.89    4.50 
  -9   3   2   99.99    4.40 
   9   3  -2   97.99    4.70 
  -9   3   2   97.89    3.70 
   9   3  -2  101.09    4.90 
  -7  -3   2  646.14   16.00 
  -7  -3   2  660.63   15.40 
   7  -3  -2  658.93   17.00 
   7  -3  -2  653.93   15.80 
   7  -3  -2  663.03   15.50 
  -7  -3   2  656.13   16.20 
   7  -3  -2  655.53   16.60 
  -7  -3   2  650.33   15.50 
  -7  -3   2  665.63   15.90 
  -7   3   2  668.43   15.60 
   7   3  -2  697.93   16.90 
   7   3  -2  667.03   16.50 
   7   3  -2  651.73   16.40 
  -7   3   2  686.23   16.70 
   7   3  -2  698.13   16.60 
   7   3  -2  655.33   16.10 
  -7   3   2  657.33   15.10 
  -7   3   2  650.13   16.50 
   5  -3  -2 1885.51   41.80 
   5  -3  -2 1858.11   42.30 
  -5  -3   2 1931.61   41.30 
  -5  -3   2 1886.71   41.90 
   5  -3  -2 1884.11   42.80 
   5  -3  -2 1851.51   41.60 
  -5  -3   2 1790.52   41.70 
   5   3  -2 1814.92   41.40 
  -5   3   2 1828.12   41.40 
   5   3  -2 1874.11   42.40 
   5   3  -2 1842.82   42.10 
   5   3  -2 1860.01   42.10 
   5   3  -2 1834.22   42.10 
  -5   3   2 1838.22   43.20 
  -5   3   2 1862.11   42.60 
   5   3  -2 1832.62   42.10 
  -5   3   2 1854.81   42.60 
   3  -3  -2 2341.87   51.39 
   3  -3  -2 2299.37   51.69 
  -3  -3   2 2230.28   51.39 
  -3  -3   2 2310.57   51.29 
   3  -3  -2 2377.16   51.19 
  -3  -3   2 2325.67   50.79 
  -3   3   2 2286.77   52.19 
  -3   3   2 2302.87   52.59 
   3   3  -2 2207.58   51.49 
   3   3  -2 2208.98   51.39 
   3   3  -2 2287.67   51.39 
   3   3  -2 2326.37   51.69 
  -3   3   2 2305.77   52.19 
  -3   3   2 2312.47   50.79 
   3   3  -2 2282.17   51.29 
   1  -3  -2 3686.13   83.39 
  -1  -3   2 3713.03   82.29 
  -1  -3   2 3586.44   81.49 
  -1  -3   2 3674.93   82.39 
   1  -3  -2 3764.42   82.49 
   1  -3  -2 3755.62   84.19 
  -1   3   2 3715.73   83.19 
  -1   3   2 3686.13   82.99 
   1   3  -2 3631.94   81.89 
   1   3  -2 3694.63   82.99 
  -1   3   2 3694.83   83.79 
  -1   3   2 3776.92   82.79 
   1   3  -2 3720.43   82.39 
   1   3  -2 3759.22   82.29 
  -1   3   2 3766.32   82.49 
   1   3  -2 3602.14   82.09 
   1   3  -2 3641.04   82.59 
   1   3  -2 3679.43   82.99 
  -1  -3  -2  465.85   11.30 
   1  -3   2  443.56   10.40 
   1  -3   2  449.76   11.50 
  -1  -3  -2  449.86   11.20 
   1  -3   2  451.75   11.50 
  -1  -3  -2  446.06   10.60 
  -1  -3  -2  446.06   10.60 
   1   3   2  452.55   12.10 
  -1   3  -2  448.66   11.60 
  -1   3  -2  445.76   10.50 
   1   3   2  450.25   12.10 
  -1   3  -2  464.95   11.40 
  -1   3  -2  452.85   10.60 
  -1   3  -2  457.85   10.90 
   1   3   2  456.85   11.30 
   1   3   2  442.76   11.80 
  -3  -3  -2  126.49    4.10 
   3  -3   2  122.19    4.80 
   3  -3   2  133.19    4.50 
   3  -3   2  122.59    3.80 
  -3  -3  -2  124.39    3.50 
   3  -3   2  125.49    3.40 
  -3  -3  -2  128.69    3.80 
  -3  -3  -2  123.99    4.30 
   3  -3   2  119.89    4.50 
   3   3   2  123.99    4.70 
   3   3   2  126.89    5.00 
  -3   3  -2  131.19    4.40 
   3   3   2  126.59    4.50 
  -3   3  -2  123.99    3.80 
   3   3   2  121.79    5.20 
  -3   3  -2  120.79    4.50 
   3   3   2  124.69    4.10 
   5  -3   2  893.31   22.40 
   5  -3   2  899.01   21.00 
   5  -3   2  900.51   21.40 
  -5  -3  -2  907.21   21.20 
  -5  -3  -2  900.21   20.60 
   5  -3   2  872.01   22.00 
  -5  -3  -2  920.21   20.80 
  -5  -3  -2  922.41   21.80 
   5  -3   2  918.01   22.30 
   5   3   2  938.21   21.90 
  -5   3  -2  932.61   21.60 
   5   3   2  908.41   22.00 
   5   3   2  888.61   22.80 
  -5   3  -2  888.41   22.00 
   5   3   2  916.21   21.50 
   5   3   2  946.81   21.20 
   5   3   2  922.11   22.50 
   5   3   2  906.71   21.40 
  -5   3  -2  916.11   21.00 
   7  -3   2 2916.11   68.39 
  -7  -3  -2 2973.30   67.49 
  -7  -3  -2 3004.80   66.89 
  -7  -3  -2 3050.19   66.29 
   7  -3   2 2887.21   67.19 
   7  -3   2 2951.60   67.69 
  -7  -3  -2 3034.60   66.39 
   7  -3   2 2882.41   68.39 
  -7   3  -2 2992.50   67.79 
  -7   3  -2 3042.30   66.49 
   7   3   2 3011.80   66.99 
   7   3   2 3105.39   66.89 
   7   3   2 2971.90   66.99 
   7   3   2 3044.80   68.39 
   7   3   2 2891.11   67.39 
   7   3   2 3013.90   67.49 
   7   3   2 2893.11   68.69 
  -7   3  -2 2998.90   67.09 
   9  -3   2 1857.11   44.30 
  -9  -3  -2 1882.51   44.30 
   9  -3   2 1849.71   45.80 
   9  -3   2 1955.40   44.70 
  -9  -3  -2 1975.50   43.20 
  -9  -3  -2 1939.11   43.80 
  -9  -3  -2 1973.90   43.20 
   9  -3   2 1883.91   45.60 
   9   3   2 1964.50   43.80 
  -9   3  -2 1877.71   43.80 
   9   3   2 1974.50   43.90 
   9   3   2 1919.21   43.70 
   9   3   2 1839.82   46.00 
   9   3   2 1951.50   45.50 
  -9   3  -2 1941.71   44.60 
   9   3   2 1924.11   44.40 
  -9   3  -2 1899.31   43.20 
   9   3   2 1822.12   43.90 
  11  -3   2  900.31   22.40 
 -11  -3  -2  890.01   21.50 
 -11  -3  -2  902.01   20.90 
  11  -3   2  832.02   23.80 
  11  -3   2  857.21   22.10 
 -11  -3  -2  887.11   20.80 
  11  -3   2  884.51   23.50 
 -11  -3  -2  893.61   22.10 
  11   3   2  887.21   21.50 
  11   3   2  867.31   21.50 
  11   3   2  892.71   21.60 
  11   3   2  844.22   24.20 
 -11   3  -2  894.41   20.90 
  11   3   2  904.31   23.60 
 -11   3  -2  860.61   21.50 
 -11   3  -2  900.61   22.30 
  11   3   2  904.71   22.30 
  13  -3   2   37.30    5.50 
 -13  -3  -2   35.20    3.00 
  13  -3   2   45.50    5.30 
 -13  -3  -2   38.80    3.60 
  13  -3   2   44.10    4.60 
 -13  -3  -2   43.20    4.10 
  13  -3   2   34.90    5.60 
 -13  -3  -2   38.10    2.90 
  13   3   2   41.60    3.70 
  13   3   2   42.80    3.70 
  13   3   2   42.30    5.80 
  13   3   2   38.70    4.40 
  13   3   2   42.00    3.60 
  13   3   2   38.50    5.50 
 -13   3  -2   43.20    3.90 
 -13   3  -2   40.70    4.10 
 -13   3  -2   43.10    3.20 
 -15  -3  -2  499.05   12.90 
  15  -3   2  502.05   14.60 
 -15  -3  -2  492.35   13.70 
  15  -3   2  488.75   16.20 
 -15  -3  -2  486.25   12.90 
 -15  -3  -2  498.35   14.30 
  15  -3   2  476.35   15.70 
 -15   3  -2  485.75   13.90 
  15   3   2  507.35   15.20 
 -15   3  -2  510.45   13.40 
  15   3   2  499.45   13.80 
  15   3   2  455.45   17.70 
 -15   3  -2  496.65   13.00 
  15   3   2  499.55   13.80 
  15   3   2  503.05   17.20 
  15   3   2  477.85   13.70 
  17  -3   2  783.12   21.30 
  17  -3   2  775.82   22.70 
 -17  -3  -2  789.02   21.00 
 -17  -3  -2  807.62   20.50 
 -17  -3  -2  800.62   19.60 
  17  -3   2  773.32   23.10 
 -17  -3  -2  792.02   19.60 
  17   3   2  782.42   24.70 
  17   3   2  734.83   24.90 
  17   3   2  787.72   20.60 
  17   3   2  777.22   20.50 
  17   3   2  765.02   20.40 
 -17   3  -2  791.92   20.90 
 -17   3  -2  808.72   19.70 
  17   3   2  806.72   22.40 
 -17   3  -2  805.02   20.20 
 -19  -3  -2  851.51   21.90 
  19  -3   2  847.62   24.50 
  19  -3   2  867.41   25.10 
 -19  -3  -2  814.42   22.30 
 -19  -3  -2  834.72   20.80 
  19  -3   2  850.21   22.70 
 -19   3  -2  842.02   21.00 
  19   3   2  818.42   21.90 
  19   3   2  811.12   24.00 
 -19   3  -2  834.92   22.50 
  19   3   2  883.71   27.00 
  19   3   2  792.02   21.70 
 -19   3  -2  836.42   21.60 
  19   3   2  818.12   22.60 
  19   3   2  788.32   26.40 
 -21  -3  -2  435.06   12.80 
 -21  -3  -2  451.75   13.90 
 -21  -3  -2  433.56   14.20 
 -21   3  -2  443.86   13.00 
  21   3   2  440.46   13.90 
 -21   3  -2  463.15   14.80 
  21   3   2  438.46   16.30 
 -24  -4   2   32.10    4.90 
 -22  -4   2  296.77   11.80 
  22  -4  -2  324.67   14.80 
 -22  -4   2  294.67   11.50 
  22  -4  -2  295.47   15.00 
 -22  -4   2  315.67   10.60 
  22   4  -2  293.57   15.60 
  22   4  -2  284.37   15.60 
 -22   4   2  309.17   10.90 
 -20  -4   2  661.63   18.60 
 -20  -4   2  645.34   19.20 
 -20  -4   2  639.84   17.20 
  20  -4  -2  693.23   19.80 
 -20  -4   2  683.33   18.20 
  20  -4  -2  691.53   19.90 
  20  -4  -2  688.43   21.90 
 -20  -4   2  659.13   17.70 
 -20  -4   2  639.04   18.90 
 -20   4   2  683.43   18.20 
  20   4  -2  608.84   23.70 
  20   4  -2  657.93   19.90 
  20   4  -2  625.84   22.80 
  20   4  -2  655.53   20.40 
 -20   4   2  662.13   18.50 
 -18  -4   2  832.52   21.30 
  18  -4  -2  850.51   21.40 
  18  -4  -2  843.32   25.80 
  18  -4  -2  860.51   23.30 
 -18  -4   2  872.31   21.80 
  18  -4  -2  858.61   25.10 
 -18  -4   2  826.12   22.60 
 -18  -4   2  846.02   22.10 
 -18  -4   2  841.62   21.30 
 -18  -4   2  822.22   20.90 
  18  -4  -2  857.71   23.00 
 -18   4   2  833.72   22.20 
  18   4  -2  756.82   25.70 
  18   4  -2  848.02   23.60 
  18   4  -2  838.42   24.00 
  18   4  -2  867.01   26.80 
 -18   4   2  840.12   21.70 
  16  -4  -2  536.65   18.00 
 -16  -4   2  535.85   14.40 
 -16  -4   2  535.85   14.60 
 -16  -4   2  516.75   14.80 
  16  -4  -2  543.95   15.60 
  16  -4  -2  529.35   15.70 
  16  -4  -2  528.05   15.90 
 -16  -4   2  531.55   14.20 
 -16  -4   2  535.55   15.60 
  16  -4  -2  521.15   17.30 
  16  -4  -2  538.85   14.30 
 -16  -4   2  531.75   13.90 
  16   4  -2  544.15   18.40 
  16   4  -2  497.45   16.40 
  16   4  -2  515.45   16.30 
 -16   4   2  529.75   14.60 
 -16   4   2  542.15   15.30 
  16   4  -2  543.25   18.30 
 -14  -4   2   25.70    2.90 
  14  -4  -2   22.90    3.60 
 -14  -4   2   25.80    3.00 
  14  -4  -2   23.90    3.50 
 -14  -4   2   26.70    2.90 
 -14  -4   2   31.30    2.90 
  14  -4  -2   20.60    4.00 
  14  -4  -2   20.60    4.00 
  14  -4  -2   25.60    2.60 
 -14  -4   2   24.20    2.90 
 -14   4   2   31.70    3.50 
 -14   4   2   23.20    2.70 
  14   4  -2   16.60    3.40 
  14   4  -2   29.70    4.50 
  14   4  -2   22.90    3.70 
  14   4  -2   24.10    4.20 
 -12  -4   2  418.76   11.40 
 -12  -4   2  424.26   11.40 
  12  -4  -2  396.66   12.40 
  12  -4  -2  405.56   12.40 
 -12  -4   2  422.86   10.70 
  12  -4  -2  390.86   10.90 
  12  -4  -2  407.26   13.70 
  12  -4  -2  399.16   13.30 
 -12  -4   2  416.16   11.60 
 -12  -4   2  404.16   11.10 
  12   4  -2  404.56   12.90 
 -12   4   2  430.36   12.20 
  12   4  -2  411.76   12.80 
  12   4  -2  430.36   13.30 
 -12   4   2  410.36   11.10 
 -12   4   2  421.56   12.40 
  12   4  -2  426.36   12.80 
 -10  -4   2 1266.77   29.90 
 -10  -4   2 1276.37   29.60 
  10  -4  -2 1276.87   31.80 
 -10  -4   2 1271.37   29.60 
  10  -4  -2 1245.88   29.30 
  10  -4  -2 1223.38   31.30 
  10  -4  -2 1244.98   30.50 
 -10  -4   2 1272.67   29.40 
  10   4  -2 1228.18   30.70 
 -10   4   2 1231.08   29.10 
  10   4  -2 1287.37   30.80 
 -10   4   2 1255.97   30.50 
 -10   4   2 1275.37   30.50 
  10   4  -2 1239.98   29.80 
  10   4  -2 1286.57   30.60 
  10   4  -2 1261.57   30.80 
   8  -4  -2 2065.19   46.90 
  -8  -4   2 2077.09   47.30 
  -8  -4   2 2078.29   47.50 
   8  -4  -2 2075.19   48.00 
  -8  -4   2 2090.09   47.00 
   8  -4  -2 2061.69   48.60 
   8   4  -2 2026.70   47.90 
   8   4  -2 2063.99   47.50 
   8   4  -2 2133.79   48.10 
  -8   4   2 2040.00   48.10 
  -8   4   2 2092.59   48.20 
   8   4  -2 2075.09   47.80 
  -8   4   2 2046.20   46.60 
   8   4  -2 2111.59   48.00 
   6  -4  -2 1850.21   44.40 
   6  -4  -2 1957.30   45.40 
  -6  -4   2 1974.90   44.10 
  -6  -4   2 2011.60   43.90 
  -6  -4   2 1900.91   43.80 
   6  -4  -2 1938.31   44.00 
  -6  -4   2 1929.61   44.60 
   6  -4  -2 1968.50   44.80 
   6   4  -2 1951.10   44.60 
   6   4  -2 1948.61   44.70 
   6   4  -2 1920.41   44.50 
  -6   4   2 1922.21   45.20 
   6   4  -2 1953.70   44.70 
  -6   4   2 1958.20   43.60 
   6   4  -2 1923.61   44.80 
   6   4  -2 2038.70   45.20 
  -6   4   2 1952.40   45.20 
  -4  -4   2  403.86   10.10 
  -4  -4   2  384.96   10.00 
   4  -4  -2  395.76   10.50 
   4  -4  -2  397.96    9.80 
   4  -4  -2  409.06    9.90 
   4   4  -2  392.16   10.30 
   4   4  -2  389.46   10.10 
   4   4  -2  391.26   10.50 
  -4   4   2  393.06   11.10 
   4   4  -2  382.26    9.90 
   4   4  -2  389.76   10.50 
   4   4  -2  392.96   10.10 
  -4   4   2  394.86    9.40 
   4   4  -2  394.16   10.30 
  -4   4   2  396.36   11.10 
  -4   4   2  405.76   11.70 
  -2  -4   2  128.39    4.40 
  -2  -4   2  138.19    4.30 
   2  -4  -2  129.29    4.60 
   2  -4  -2  129.49    4.20 
   2  -4  -2  131.69    3.80 
   2   4  -2  129.29    4.60 
   2   4  -2  132.99    4.20 
   2   4  -2  124.29    4.50 
   2   4  -2  125.39    4.60 
  -2   4   2  130.99    5.60 
  -2   4   2  127.89    5.10 
   2   4  -2  128.99    4.30 
   2   4  -2  130.99    4.10 
  -2   4   2  123.99    5.20 
  -2   4   2  125.09    5.10 
   2   4  -2  124.89    4.40 
   2   4  -2  132.19    4.20 
   0  -4  -2 1514.45   34.80 
   0  -4  -2 1534.55   34.00 
   0  -4   2 1500.65   35.10 
   0  -4  -2 1471.85   33.90 
   0  -4   2 1498.75   35.00 
   0  -4  -2 1531.95   34.90 
   0   4   2 1505.75   35.50 
   0   4  -2 1519.25   34.40 
   0   4   2 1542.85   35.50 
   0   4   2 1496.45   35.80 
   0   4  -2 1524.45   34.20 
   0   4   2 1522.65   36.00 
   0   4  -2 1563.34   35.00 
   0   4  -2 1526.15   34.30 
   0   4  -2 1525.55   35.20 
   0   4  -2 1482.45   34.50 
   0   4   2 1512.05   34.90 
  -2  -4  -2 2798.52   60.79 
   2  -4   2 2719.83   62.09 
  -2  -4  -2 2752.92   61.69 
  -2  -4  -2 2687.13   60.89 
   2  -4   2 2690.33   61.99 
  -2  -4  -2 2773.12   61.79 
   2   4   2 2729.13   62.19 
  -2   4  -2 2721.33   62.09 
   2   4   2 2719.33   61.69 
   2   4   2 2721.93   62.19 
  -2   4  -2 2744.23   61.09 
  -2   4  -2 2822.82   61.79 
  -2   4  -2 2728.33   60.79 
  -2   4  -2 2651.53   60.79 
   2   4   2 2725.13   62.69 
   2   4   2 2776.92   62.89 
  -4  -4  -2 2097.19   47.20 
   4  -4   2 2072.69   48.50 
  -4  -4  -2 2133.39   46.80 
   4  -4   2 2003.40   47.50 
  -4  -4  -2 2070.29   47.70 
  -4  -4  -2 2079.79   48.00 
   4  -4   2 2072.19   48.30 
   4  -4   2 2093.49   48.40 
   4   4   2 2148.98   49.20 
   4   4   2 2136.09   47.80 
  -4   4  -2 2068.39   48.40 
  -4   4  -2 2118.39   47.20 
   4   4   2 2147.39   48.40 
  -4   4  -2 2158.18   47.90 
   4   4   2 2079.39   48.20 
   4   4   2 2062.49   48.90 
   4   4   2 2111.79   47.10 
   6  -4   2  532.25   14.80 
  -6  -4  -2  531.75   12.60 
   6  -4   2  522.45   14.20 
   6  -4   2  528.85   14.60 
  -6  -4  -2  533.95   13.20 
  -6  -4  -2  532.95   13.90 
  -6  -4  -2  539.85   12.80 
   6  -4   2  523.75   14.50 
   6   4   2  541.55   14.20 
  -6   4  -2  531.25   12.90 
   6   4   2  537.45   15.00 
   6   4   2  524.95   13.50 
  -6   4  -2  525.15   14.20 
   6   4   2  517.05   15.00 
  -6   4  -2  513.95   13.60 
   6   4   2  544.55   13.10 
   6   4   2  495.45   13.60 
   6   4   2  519.85   13.60 
  -8  -4  -2    2.30    1.40 
  -8  -4  -2    1.10    1.00 
   8  -4   2    3.00    1.90 
   8  -4   2    1.00    2.10 
   8  -4   2    2.80    2.10 
  -8  -4  -2    0.90    1.10 
  -8  -4  -2    1.10    1.80 
   8   4   2    1.50    1.50 
   8   4   2    3.10    1.50 
   8   4   2    1.80    1.60 
   8   4   2    6.50    2.00 
   8   4   2    6.70    1.70 
  -8   4  -2    1.00    1.70 
  -8   4  -2    3.40    1.40 
   8   4   2    4.20    2.50 
   8   4   2    2.10    2.20 
  -8   4  -2    1.20    1.60 
 -10  -4  -2  248.28    7.60 
  10  -4   2  247.58    9.50 
  10  -4   2  257.17    8.70 
 -10  -4  -2  242.08    6.90 
  10  -4   2  234.58    9.60 
 -10  -4  -2  244.98    8.40 
 -10  -4  -2  251.37    6.90 
  10   4   2  249.08    8.00 
 -10   4  -2  251.17    8.50 
  10   4   2  254.87    7.60 
  10   4   2  250.17   10.10 
 -10   4  -2  245.88    7.20 
 -10   4  -2  240.58    7.90 
  10   4   2  235.88    9.50 
  10   4   2  244.88    8.60 
  10   4   2  248.88    7.80 
 -12  -4  -2 1045.00   24.70 
 -12  -4  -2 1068.99   25.50 
 -12  -4  -2 1048.20   26.30 
  12  -4   2 1052.89   26.50 
 -12  -4  -2 1059.79   24.60 
  12  -4   2 1048.40   27.80 
  12  -4   2 1071.09   28.50 
 -12   4  -2 1049.30   26.50 
  12   4   2 1059.09   25.80 
  12   4   2 1057.19   25.70 
  12   4   2 1034.70   25.50 
  12   4   2 1045.00   28.70 
  12   4   2 1074.59   26.70 
 -12   4  -2 1029.20   24.90 
  12   4   2 1030.60   28.00 
 -12   4  -2 1008.50   25.70 
  14  -4   2 1374.86   34.00 
 -14  -4  -2 1383.66   33.00 
 -14  -4  -2 1364.36   33.70 
 -14  -4  -2 1394.76   32.10 
  14  -4   2 1393.86   35.60 
 -14  -4  -2 1308.67   32.10 
  14  -4   2 1362.56   36.30 
 -14   4  -2 1343.57   33.40 
  14   4   2 1395.56   33.30 
  14   4   2 1405.36   34.50 
 -14   4  -2 1397.86   32.40 
  14   4   2 1377.26   33.10 
  14   4   2 1385.56   36.30 
  14   4   2 1382.46   33.30 
 -14   4  -2 1416.16   34.10 
  14   4   2 1355.66   36.80 
  16  -4   2  583.94   18.40 
 -16  -4  -2  572.64   14.90 
  16  -4   2  573.14   19.00 
  16  -4   2  583.44   16.90 
 -16  -4  -2  579.74   14.90 
 -16  -4  -2  579.44   16.70 
 -16  -4  -2  579.74   15.90 
  16   4   2  587.74   19.90 
 -16   4  -2  558.04   16.40 
  16   4   2  549.65   16.00 
  16   4   2  590.74   17.80 
  16   4   2  571.44   20.00 
  16   4   2  563.84   15.90 
 -16   4  -2  586.64   15.30 
  16   4   2  573.94   16.30 
  18  -4   2   46.80    5.90 
  18  -4   2   54.39    7.70 
 -18  -4  -2   45.60    4.20 
 -18  -4  -2   53.19    5.90 
  18  -4   2   52.09    6.30 
 -18  -4  -2   52.19    4.20 
 -18  -4  -2   53.99    5.30 
  18   4   2   51.49    5.30 
  18   4   2   53.59    5.10 
  18   4   2   41.20    8.00 
  18   4   2   45.80    5.70 
  18   4   2   53.99   11.60 
  18   4   2   49.80    6.00 
 -18   4  -2   45.90    4.60 
  20  -4   2   44.30    5.40 
 -20  -4  -2   50.09    5.30 
 -20  -4  -2   40.70    4.60 
  20   4   2   46.70    5.40 
 -20   4  -2   44.50    4.10 
  20   4   2   39.50    4.70 
  20   4   2   43.00    5.50 
  20   4   2   36.50    6.00 
 -22  -4  -2  273.97   13.60 
  21  -5  -2  156.28   11.20 
 -21  -5   2  143.79    8.70 
  21  -5  -2  133.09    8.10 
  21   5  -2  109.99   12.00 
 -21   5   2  143.99    8.40 
 -19  -5   2    5.00    3.20 
  19  -5  -2    5.70    3.50 
  19  -5  -2    6.80    2.90 
 -19  -5   2    9.60    3.50 
 -19  -5   2    2.90    3.60 
  19  -5  -2    9.00    3.70 
  19  -5  -2    4.60    4.50 
 -19   5   2    7.80    3.50 
  19   5  -2    1.40    4.70 
 -19   5   2    1.80    3.00 
  19   5  -2   -1.10    3.90 
  19   5  -2   -3.60    5.10 
 -17  -5   2  346.77   12.10 
 -17  -5   2  339.87   10.30 
  17  -5  -2  316.87   13.60 
  17  -5  -2  330.97   14.30 
 -17  -5   2  337.37   10.80 
  17  -5  -2  335.87   12.10 
 -17  -5   2  318.37    9.60 
  17  -5  -2  335.97   10.30 
 -17  -5   2  332.57   10.40 
  17  -5  -2  319.57   12.00 
 -17  -5   2  332.47   11.30 
  17   5  -2  300.57   12.70 
 -17   5   2  339.67   11.80 
  17   5  -2  322.87   12.60 
  17   5  -2  335.97   14.60 
 -17   5   2  306.77   10.50 
 -15  -5   2  803.82   20.30 
  15  -5  -2  797.42   20.20 
  15  -5  -2  818.22   24.30 
 -15  -5   2  804.92   19.70 
 -15  -5   2  805.22   21.90 
 -15  -5   2  829.72   21.10 
 -15  -5   2  795.02   20.10 
  15  -5  -2  784.52   21.90 
  15  -5  -2  807.62   21.90 
  15  -5  -2  806.92   23.50 
 -15  -5   2  816.62   20.60 
  15  -5  -2  798.12   22.10 
  15   5  -2  797.72   22.60 
  15   5  -2  806.22   23.80 
 -15   5   2  825.32   21.80 
 -15   5   2  789.42   20.30 
  15   5  -2  757.62   22.40 
 -13  -5   2 1127.49   27.10 
  13  -5  -2 1093.09   29.80 
 -13  -5   2 1093.19   28.10 
 -13  -5   2 1109.99   26.70 
 -13  -5   2 1137.09   26.60 
  13  -5  -2 1070.49   28.10 
 -13  -5   2 1091.59   26.30 
  13  -5  -2 1089.19   29.30 
  13  -5  -2 1068.79   27.90 
  13  -5  -2 1082.29   26.30 
 -13  -5   2 1091.09   25.80 
  13   5  -2 1106.99   28.30 
  13   5  -2 1099.59   29.00 
 -13   5   2 1121.29   28.20 
  13   5  -2 1066.29   28.30 
 -13   5   2 1137.99   28.00 
 -13   5   2 1069.69   26.20 
  11  -5  -2  708.03   20.40 
  11  -5  -2  696.03   18.60 
  11  -5  -2  685.03   19.70 
 -11  -5   2  713.13   17.50 
  11  -5  -2  671.03   17.00 
 -11  -5   2  678.73   17.50 
 -11  -5   2  687.43   16.50 
 -11  -5   2  682.73   17.20 
 -11  -5   2  696.03   17.90 
  11   5  -2  681.83   18.40 
  11   5  -2  694.93   18.80 
 -11   5   2  665.93   16.80 
 -11   5   2  690.53   18.80 
  11   5  -2  671.33   18.90 
 -11   5   2  696.53   18.70 
  11   5  -2  696.93   17.80 
  11   5  -2  662.33   18.90 
  -9  -5   2    3.30    2.10 
   9  -5  -2   11.40    2.60 
  -9  -5   2    3.30    2.00 
  -9  -5   2    6.00    1.80 
   9  -5  -2    9.80    1.70 
   9  -5  -2    4.70    2.60 
  -9  -5   2    5.60    2.00 
  -9   5   2    8.20    2.50 
  -9   5   2    7.10    1.50 
   9   5  -2    3.20    2.10 
   9   5  -2    9.90    2.50 
   9   5  -2    5.80    2.20 
  -9   5   2    3.60    2.20 
   9   5  -2    7.70    2.10 
   9   5  -2    5.60    1.90 
  -7  -5   2  217.08    7.10 
  -7  -5   2  223.68    6.70 
   7  -5  -2  210.48    7.30 
   7  -5  -2  212.48    6.30 
   7  -5  -2  215.88    8.10 
   7   5  -2  221.78    7.10 
  -7   5   2  208.08    7.70 
  -7   5   2  218.48    7.90 
   7   5  -2  207.88    7.20 
   7   5  -2  203.78    7.40 
   7   5  -2  207.38    7.30 
   7   5  -2  208.38    7.00 
  -7   5   2  211.08    6.00 
   5  -5  -2  964.60   22.50 
  -5  -5   2  958.10   22.80 
   5  -5  -2  979.80   23.50 
  -5  -5   2  967.10   23.40 
  -5  -5   2  975.80   22.90 
   5   5  -2  970.20   23.30 
  -5   5   2  980.60   24.20 
   5   5  -2  943.21   23.10 
  -5   5   2  962.80   25.20 
   5   5  -2  950.80   23.70 
  -5   5   2  978.60   24.30 
   5   5  -2  983.00   23.40 
   5   5  -2  972.20   22.90 
   5   5  -2  941.11   23.40 
  -3  -5   2 1927.91   43.50 
   3  -5  -2 1957.70   42.80 
  -3  -5   2 1910.51   43.20 
   3  -5  -2 1903.51   43.80 
   3  -5  -2 1880.41   43.20 
   3   5  -2 1908.81   43.60 
  -3   5   2 1921.71   44.80 
   3   5  -2 1897.91   43.40 
  -3   5   2 1922.31   44.60 
   3   5  -2 1861.91   43.50 
   3   5  -2 1885.71   43.80 
   3   5  -2 1884.91   43.70 
   3   5  -2 1857.51   44.00 
  -3   5   2 1877.71   45.30 
   3   5  -2 1896.11   43.30 
   1  -5  -2 1184.98   27.90 
  -1  -5   2 1175.08   27.30 
   1  -5  -2 1187.58   26.80 
   1  -5  -2 1189.08   27.60 
  -1  -5   2 1178.38   28.00 
  -1   5   2 1159.88   28.90 
  -1   5   2 1182.18   29.40 
  -1   5   2 1171.68   28.00 
   1   5  -2 1160.68   27.90 
   1   5  -2 1190.88   28.10 
  -1   5   2 1187.88   28.70 
   1   5  -2 1160.38   28.30 
   1   5  -2 1185.38   27.30 
  -1   5   2 1171.78   28.70 
   1   5  -2 1160.48   27.70 
   1   5  -2 1198.88   27.40 
   1   5  -2 1198.48   27.40 
  -1  -5  -2  474.05   11.20 
  -1  -5  -2  471.65   12.30 
  -1  -5  -2  474.95   12.30 
   1  -5   2  474.95   12.70 
   1  -5   2  460.55   12.60 
   1   5   2  470.15   13.80 
   1   5   2  447.66   13.30 
  -1   5  -2  484.55   12.60 
  -1   5  -2  460.65   12.30 
   1   5   2  467.05   13.00 
   1   5   2  457.75   13.00 
  -1   5  -2  456.45   11.70 
   1   5   2  471.05   12.40 
  -1   5  -2  461.95   12.70 
  -3  -5  -2   45.00    3.20 
  -3  -5  -2   43.80    3.30 
   3  -5   2   41.50    3.60 
  -3  -5  -2   42.70    2.10 
   3  -5   2   38.90    3.50 
   3   5   2   44.10    4.40 
   3   5   2   46.90    3.70 
   3   5   2   50.49    3.30 
  -3   5  -2   50.49    3.40 
  -3   5  -2   38.90    3.40 
   3   5   2   42.40    3.50 
   3   5   2   41.20    4.20 
  -3   5  -2   45.90    2.80 
   5  -5   2  871.81   22.00 
  -5  -5  -2  878.51   20.10 
  -5  -5  -2  873.81   21.30 
  -5  -5  -2  875.71   20.70 
   5  -5   2  860.21   22.10 
  -5  -5  -2  880.71   21.70 
   5  -5   2  864.71   22.30 
  -5   5  -2  877.61   22.10 
   5   5   2  878.81   23.00 
   5   5   2  865.41   21.30 
   5   5   2  872.91   22.00 
   5   5   2  864.71   20.40 
   5   5   2  837.52   22.50 
  -5   5  -2  864.51   20.60 
  -5   5  -2  874.01   21.40 
   5   5   2  840.22   21.40 
   7  -5   2 1152.88   29.10 
  -7  -5  -2 1163.48   28.40 
   7  -5   2 1141.29   29.30 
  -7  -5  -2 1172.48   27.40 
  -7  -5  -2 1175.88   26.70 
   7  -5   2 1174.18   28.80 
   7   5   2 1167.28   29.90 
   7   5   2 1208.38   27.30 
  -7   5  -2 1163.98   27.20 
   7   5   2 1116.79   29.40 
   7   5   2 1181.38   28.00 
  -7   5  -2 1149.69   28.00 
   7   5   2 1152.08   28.00 
  -7   5  -2 1172.58   28.80 
   7   5   2 1159.28   28.70 
  -9  -5  -2 1432.46   32.90 
  -9  -5  -2 1452.75   33.70 
   9  -5   2 1416.66   36.00 
   9  -5   2 1452.85   35.10 
  -9  -5  -2 1465.45   34.80 
   9  -5   2 1435.26   35.70 
   9   5   2 1433.76   34.20 
  -9   5  -2 1328.17   34.00 
   9   5   2 1384.46   36.00 
   9   5   2 1471.35   35.10 
  -9   5  -2 1446.26   35.10 
   9   5   2 1466.05   34.40 
  -9   5  -2 1445.06   33.40 
   9   5   2 1496.05   33.70 
   9   5   2 1454.65   36.40 
 -11  -5  -2  541.75   13.40 
 -11  -5  -2  538.25   14.20 
  11  -5   2  532.55   15.50 
  11  -5   2  522.55   16.80 
 -11  -5  -2  545.25   15.40 
  11  -5   2  522.95   16.50 
  11   5   2  527.95   14.20 
  11   5   2  530.75   16.90 
  11   5   2  550.04   14.80 
  11   5   2  533.95   15.70 
  11   5   2  525.65   16.90 
  11   5   2  543.45   14.90 
 -11   5  -2  538.65   15.60 
 -11   5  -2  503.35   14.60 
 -11   5  -2  549.35   13.90 
  13  -5   2    6.30    3.20 
  13  -5   2    4.90    3.60 
 -13  -5  -2    1.60    2.20 
 -13  -5  -2    8.10    3.10 
  13  -5   2    1.40    3.30 
 -13  -5  -2    2.20    1.70 
  13   5   2    2.80    2.50 
  13   5   2    6.10    3.00 
  13   5   2   10.20    4.20 
 -13   5  -2    3.60    2.10 
  13   5   2    1.30    3.50 
  13   5   2    1.40    2.30 
 -13   5  -2    5.10    2.80 
  13   5   2    2.00    2.40 
  15  -5   2  171.38    9.70 
 -15  -5  -2  160.88    6.20 
  15  -5   2  166.68    8.50 
 -15  -5  -2  168.08    8.10 
 -15  -5  -2  171.48    7.20 
  15  -5   2  167.18   10.30 
  15   5   2  164.78    7.10 
  15   5   2  165.78   10.50 
  15   5   2  179.48   10.80 
  15   5   2  177.98    7.90 
 -15   5  -2  164.08    8.20 
 -15   5  -2  171.58    6.80 
  15   5   2  180.28    9.10 
  15   5   2  179.18    8.00 
 -17  -5  -2  637.34   18.70 
  17  -5   2  622.24   22.10 
  17  -5   2  648.84   19.10 
  17  -5   2  653.33   21.30 
 -17  -5  -2  652.83   17.60 
 -17   5  -2  650.53   17.20 
  17   5   2  625.04   17.70 
  17   5   2  642.14   20.10 
  17   5   2  630.44   18.40 
  17   5   2  619.44   18.30 
 -19  -5  -2  552.34   17.00 
  19  -5   2  547.35   17.30 
  19   5   2  523.95   17.40 
  19   5   2  528.95   18.50 
 -18  -6   2  552.24   17.40 
  18  -6  -2  538.95   19.30 
  18   6  -2  530.25   20.20 
 -18   6   2  554.84   17.20 
 -18   6   2  522.45   15.50 
  16  -6  -2  297.97   13.40 
 -16  -6   2  293.27   10.00 
 -16  -6   2  295.27   11.60 
  16  -6  -2  297.17   11.70 
 -16  -6   2  303.97   10.70 
  16  -6  -2  287.87   11.60 
  16   6  -2  274.67   12.00 
 -16   6   2  306.77   11.60 
  16   6  -2  284.97   13.30 
 -16   6   2  274.07    9.60 
  16   6  -2  283.67   12.20 
  14  -6  -2    7.60    2.30 
  14  -6  -2    9.50    4.20 
  14  -6  -2    4.50    3.90 
 -14  -6   2    3.40    2.60 
 -14  -6   2   12.30    3.80 
 -14  -6   2    8.70    2.00 
 -14  -6   2    6.10    3.00 
  14  -6  -2    2.70    3.40 
 -14  -6   2    5.50    2.40 
  14   6  -2    9.30    3.50 
 -14   6   2    7.90    2.30 
  14   6  -2    7.80    3.80 
  14   6  -2    6.40    3.60 
 -14   6   2    8.50    3.50 
 -12  -6   2  178.58    6.60 
 -12  -6   2  176.38    7.40 
 -12  -6   2  167.08    5.60 
 -12  -6   2  173.38    7.00 
 -12  -6   2  178.68    7.00 
  12  -6  -2  172.78    8.10 
  12  -6  -2  170.48    9.30 
 -12  -6   2  170.48    8.30 
  12  -6  -2  164.18    6.20 
  12  -6  -2  176.28    9.90 
  12   6  -2  167.88    7.90 
 -12   6   2  171.88    8.30 
  12   6  -2  159.88    8.30 
  12   6  -2  164.98    8.10 
 -12   6   2  174.38    8.40 
 -10  -6   2  777.42   18.70 
  10  -6  -2  821.52   23.30 
 -10  -6   2  776.22   21.60 
  10  -6  -2  789.12   19.50 
 -10  -6   2  828.82   20.10 
 -10  -6   2  799.12   19.70 
  10  -6  -2  808.32   21.20 
 -10  -6   2  804.02   20.50 
 -10  -6   2  804.72   20.10 
  10  -6  -2  803.92   22.40 
 -10   6   2  796.42   21.60 
  10   6  -2  766.02   20.70 
  10   6  -2  753.22   21.20 
  10   6  -2  787.32   20.40 
 -10   6   2  789.72   21.70 
  10   6  -2  782.72   21.00 
  -8  -6   2 1050.19   25.20 
   8  -6  -2 1078.79   27.60 
  -8  -6   2 1072.69   25.50 
  -8  -6   2 1065.19   25.90 
   8  -6  -2 1048.30   25.00 
   8  -6  -2 1077.69   26.40 
   8   6  -2 1048.00   26.20 
  -8   6   2 1035.70   27.10 
   8   6  -2 1011.70   26.50 
  -8   6   2 1070.39   27.10 
   8   6  -2 1014.80   25.90 
   8   6  -2 1049.20   25.90 
   6  -6  -2  985.00   25.50 
   6  -6  -2 1014.50   24.50 
  -6  -6   2  971.60   24.10 
  -6  -6   2 1000.30   23.50 
   6  -6  -2  982.80   23.20 
   6   6  -2  962.40   24.10 
   6   6  -2  967.90   24.50 
  -6   6   2  981.60   25.40 
   6   6  -2  955.20   23.90 
   6   6  -2  969.80   24.10 
  -6   6   2  985.60   25.30 
   4  -6  -2  248.38    8.00 
  -4  -6   2  236.08    7.80 
  -4  -6   2  243.28    7.30 
   4  -6  -2  235.88    6.80 
   4   6  -2  230.38    8.80 
   4   6  -2  231.68    7.60 
   4   6  -2  234.28    7.50 
  -4   6   2  239.68    9.70 
  -4   6   2  241.38    8.80 
  -4   6   2  250.67    9.00 
   4   6  -2  234.28    7.80 
   2  -6  -2  127.29    5.30 
  -2  -6   2  121.29    5.10 
  -2  -6   2  118.29    5.20 
   2  -6  -2  123.79    4.10 
  -2  -6   2  119.89    4.80 
   2   6  -2  120.69    4.90 
   2   6  -2  119.79    5.10 
  -2   6   2  124.49    6.10 
  -2   6   2  117.39    6.30 
   2   6  -2  116.89    5.20 
  -2   6   2  117.19    6.80 
   2   6  -2  120.99    6.60 
   0  -6  -2  633.04   16.10 
   0  -6  -2  633.24   15.00 
   0  -6  -2  644.54   16.40 
   0  -6   2  630.44   16.60 
   0  -6   2  654.83   16.70 
   0  -6   2  622.94   15.70 
   0   6   2  624.14   16.50 
   0   6   2  629.94   17.20 
   0   6   2  617.64   17.60 
   0   6   2  633.54   18.30 
   0   6   2  627.14   17.40 
   0   6  -2  627.54   16.40 
   0   6  -2  625.34   15.70 
   0   6  -2  649.54   16.80 
  -2  -6  -2 1391.66   31.80 
  -2  -6  -2 1442.16   33.40 
   2  -6   2 1388.86   33.70 
  -2  -6  -2 1402.66   33.30 
   2  -6   2 1381.36   33.70 
   2   6   2 1431.96   35.30 
   2   6   2 1409.16   34.30 
  -2   6  -2 1410.76   33.90 
   2   6   2 1390.26   33.40 
   2   6   2 1409.06   34.60 
   2   6   2 1389.66   33.80 
  -2   6  -2 1382.26   32.50 
  -2   6  -2 1386.86   33.20 
   4  -6   2 1143.69   28.90 
  -4  -6  -2 1184.68   26.80 
   4  -6   2 1176.28   29.10 
  -4  -6  -2 1191.48   28.60 
  -4  -6  -2 1187.08   28.40 
   4   6   2 1149.98   28.60 
   4   6   2 1160.18   28.30 
   4   6   2 1205.28   30.50 
  -4   6  -2 1134.69   28.20 
   4   6   2 1151.18   29.60 
   4   6   2 1185.78   29.30 
  -4   6  -2 1173.58   27.50 
  -4   6  -2 1155.98   29.10 
   6  -6   2  230.28    8.80 
  -6  -6  -2  243.58    8.40 
   6  -6   2  234.78    8.80 
  -6  -6  -2  231.18    7.90 
  -6  -6  -2  227.78    6.40 
   6   6   2  221.68    9.20 
   6   6   2  234.48    8.90 
  -6   6  -2  229.08    7.10 
  -6   6  -2  225.18    7.90 
   6   6   2  222.68    6.80 
   6   6   2  229.88    8.00 
   6   6   2  228.58    9.80 
  -6   6  -2  222.98    8.60 
  -8  -6  -2    4.80    2.20 
   8  -6   2    4.90    2.90 
  -8  -6  -2    5.30    1.50 
   8  -6   2    7.30    3.00 
  -8  -6  -2    4.20    2.60 
   8   6   2    6.10    2.30 
  -8   6  -2    4.10    1.80 
   8   6   2    6.40    3.30 
  -8   6  -2   10.40    2.90 
   8   6   2    9.10    2.90 
   8   6   2    5.90    3.00 
   8   6   2    9.20    2.10 
 -10  -6  -2  170.78    7.80 
  10  -6   2  185.58    8.40 
  10  -6   2  175.68    8.60 
 -10  -6  -2  169.98    5.70 
 -10  -6  -2  173.18    6.50 
  10   6   2  169.48    9.30 
  10   6   2  168.58    7.30 
  10   6   2  181.78    9.00 
  10   6   2  183.18    7.50 
  10   6   2  163.58    8.00 
 -10   6  -2  175.68    8.00 
  10   6   2  171.78    6.40 
 -10   6  -2  171.48    6.30 
 -12  -6  -2  594.24   17.30 
  12  -6   2  589.64   17.60 
  12  -6   2  587.44   18.60 
 -12  -6  -2  606.34   16.00 
 -12  -6  -2  581.44   14.90 
  12   6   2  580.74   19.40 
  12   6   2  573.54   15.90 
 -12   6  -2  600.64   15.60 
  12   6   2  606.84   18.80 
 -12   6  -2  595.84   17.60 
  12   6   2  583.24   17.90 
  12   6   2  603.94   16.80 
  12   6   2  603.84   17.00 
 -14  -6  -2  739.13   19.30 
  14  -6   2  732.73   21.10 
  14  -6   2  730.63   22.50 
 -14  -6  -2  733.33   20.60 
  14   6   2  738.83   20.40 
  14   6   2  729.33   20.20 
 -14   6  -2  726.73   18.90 
  14   6   2  721.03   21.50 
 -14   6  -2  739.13   21.00 
  14   6   2  716.33   19.40 
 -16  -6  -2  397.96   13.80 
  16  -6   2  409.16   14.30 
 -16  -6  -2  406.46   12.60 
  16   6   2  388.86   15.10 
 -16   6  -2  404.86   14.10 
  17   7  -2  115.99   10.90 
  15  -7  -2  519.25   18.50 
 -15  -7   2  496.35   16.70 
  15   7  -2  473.75   17.60 
 -15   7   2  520.75   16.80 
  13  -7  -2  563.24   18.90 
 -13  -7   2  552.34   15.90 
 -13  -7   2  541.05   17.10 
 -13  -7   2  545.75   15.20 
 -13   7   2  555.14   17.20 
  13   7  -2  484.15   17.50 
  13   7  -2  533.05   17.70 
  13   7  -2  548.95   16.90 
 -11  -7   2  288.67   11.50 
 -11  -7   2  307.47   10.40 
 -11  -7   2  296.27    9.30 
 -11  -7   2  309.87    9.90 
  11  -7  -2  295.47   12.60 
 -11   7   2  302.97   11.80 
  11   7  -2  288.57   10.90 
 -11   7   2  297.47   11.60 
  11   7  -2  282.27   10.70 
  -9  -7   2   22.80    3.40 
  -9  -7   2   18.90    2.70 
   9  -7  -2   20.40    2.60 
   9  -7  -2   18.00    3.50 
  -9  -7   2   16.20    3.70 
  -9  -7   2   18.30    3.10 
   9  -7  -2   19.20    4.20 
   9   7  -2   19.50    3.30 
   9   7  -2   15.30    3.10 
  -9   7   2   18.00    3.80 
   9   7  -2   18.50    3.00 
  -9   7   2   17.60    3.70 
   7  -7  -2  156.68    7.20 
  -7  -7   2  149.39    7.70 
  -7  -7   2  158.48    6.80 
   7  -7  -2  161.68    8.50 
  -7  -7   2  167.28    6.20 
   7  -7  -2  155.78    5.60 
  -7   7   2  151.38    7.90 
   7   7  -2  157.88    6.80 
   7   7  -2  153.48    6.70 
  -7   7   2  163.68    8.20 
   7   7  -2  152.88    6.80 
   5  -7  -2  474.25   12.50 
  -5  -7   2  491.55   13.80 
  -5  -7   2  479.35   14.80 
   5  -7  -2  508.85   15.40 
   5  -7  -2  494.75   14.10 
  -5  -7   2  500.95   13.20 
  -5   7   2  501.05   15.40 
   5   7  -2  495.05   13.90 
   5   7  -2  469.05   13.80 
  -5   7   2  489.15   15.20 
  -3  -7   2  756.02   19.90 
  -3  -7   2  780.52   19.30 
   3  -7  -2  758.92   18.60 
   3  -7  -2  790.42   20.30 
  -3  -7   2  749.03   20.80 
   3   7  -2  779.12   20.00 
  -3   7   2  801.72   21.70 
  -3   7   2  793.82   21.40 
  -3   7   2  791.92   22.70 
   1  -7  -2  720.43   18.90 
  -1  -7   2  731.23   18.90 
   1  -7  -2  721.43   17.30 
  -1  -7   2  728.23   18.10 
  -1  -7   2  714.23   18.70 
  -1   7   2  725.53   20.40 
   1   7  -2  717.43   18.70 
  -1   7   2  703.33   19.80 
  -1   7   2  745.53   21.30 
   1   7  -2  710.93   18.90 
  -1  -7  -2  167.38    5.20 
   1  -7   2  154.68    6.10 
   1  -7   2  165.58    7.00 
  -1  -7  -2  161.98    6.70 
   1  -7   2  166.88    8.60 
  -1  -7  -2  167.18    8.50 
   1  -7   2  155.38    6.50 
   1   7   2  158.28    6.80 
   1   7   2  168.28    7.90 
   1   7   2  162.28    7.30 
   1   7   2  162.18    8.00 
  -1   7  -2  162.88    7.00 
  -1   7  -2  163.58    6.60 
  -1   7  -2  172.28    6.00 
   1   7   2  167.88    8.80 
   3  -7   2   29.50    3.70 
  -3  -7  -2   22.30    2.30 
   3  -7   2   22.70    3.40 
   3  -7   2   20.90    2.70 
  -3  -7  -2   21.60    3.10 
  -3  -7  -2   24.40    3.20 
   3   7   2   24.00    3.10 
  -3   7  -2   21.50    2.50 
   3   7   2   22.90    3.60 
   3   7   2   21.20    4.10 
   3   7   2   23.80    3.80 
  -3   7  -2   27.50    3.60 
  -5  -7  -2  332.67    8.70 
  -5  -7  -2  341.47   11.00 
  -5  -7  -2  344.67   10.70 
   5  -7   2  326.37   11.50 
   5  -7   2  327.07   11.40 
   5   7   2  335.47   12.90 
   5   7   2  324.47   11.70 
   5   7   2  320.97   10.60 
   5   7   2  335.07   12.00 
  -5   7  -2  329.57   11.40 
  -5   7  -2  328.77    9.60 
  -7  -7  -2  743.83   20.30 
   7  -7   2  752.62   20.80 
  -7  -7  -2  768.42   20.00 
  -7  -7  -2  765.82   17.90 
   7  -7   2  719.93   21.00 
   7   7   2  742.43   22.30 
  -7   7  -2  724.13   18.60 
  -7   7  -2  734.43   20.80 
   7   7   2  738.23   21.00 
   7   7   2  753.52   21.40 
   7   7   2  740.43   19.80 
   9  -7   2  656.03   19.80 
  -9  -7  -2  664.53   18.40 
  -9  -7  -2  665.13   18.90 
   9  -7   2  693.93   19.50 
   9   7   2  646.94   17.00 
  -9   7  -2  644.84   17.10 
  -9   7  -2  685.63   19.50 
   9   7   2  636.54   18.20 
   9   7   2  690.13   20.10 
   9   7   2  658.73   19.50 
  11  -7   2  258.97   10.80 
 -11  -7  -2  259.17   10.30 
  11   7   2  253.07    9.70 
 -11   7  -2  260.77   10.70 
 -11   7  -2  244.78    8.40 
  11   7   2  247.08   11.00 
  11   7   2  237.38    8.30 
 -13  -7  -2   11.90    4.00 
  13  -7   2   14.40    4.30 
  13   7   2    8.70    4.00 
 -13   7  -2    7.40    3.70 
 -10  -8   2  284.47   11.60 
  10  -8  -2  284.87   12.80 
 -10   8   2  278.57   13.60 
  -8  -8   2  592.84   16.50 
  -8  -8   2  565.84   17.70 
   8  -8  -2  576.64   18.70 
  -8   8   2  582.34   18.30 
  -6  -8   2  433.06   14.40 
   6  -8  -2  463.85   15.60 
   6  -8  -2  454.85   14.20 
  -6  -8   2  443.56   13.40 
  -6   8   2  446.16   15.10 
   6   8  -2  449.56   13.50 
   4  -8  -2   74.29    7.10 
   4  -8  -2   83.69    5.70 
  -4   8   2   84.69    6.80 
   2  -8  -2   23.50    3.60 
  -2   8   2   26.70    4.40 
  -2   8   2   24.40    4.10 
   0  -8  -2  371.26   11.90 
   0   8   2  379.76   13.40 
   0   8   2  370.86   12.70 
  -2  -8  -2  602.44   18.40 
   2  -8   2  588.24   17.20 
   2   8   2  599.24   18.20 
  -2   8  -2  578.04   17.20 
  -2   8  -2  584.54   15.60 
   2   8   2  598.94   18.30 
   4  -8   2  497.95   15.50 
  -4   8  -2  500.85   13.50 
   4   8   2  478.55   14.70 
  -4   8  -2  485.25   15.40 
   4   8   2  497.55   16.10 
   4   8   2  499.55   16.20 
  -6  -8  -2  175.38    8.20 
   6  -8   2  172.88    8.90 
   6  -8   2  169.08   13.00 
  -6   8  -2  166.68    6.60 
  -6   8  -2  171.68    8.60 
   6   8   2  166.18    9.10 
  -8  -8  -2    2.30    3.20 
   8  -8   2   -1.70    3.50 
  -8   8  -2    1.30    3.30 
  -8   8  -2    5.00    3.00 
   8   8   2    4.20    3.60 
  24   0  -3   24.30    5.70 
  24   0  -3   33.90    5.10 
 -24   0   3   27.20    4.10 
 -24   0   3   28.20    4.30 
  24   0  -3   31.40    5.10 
  22   0  -3   44.40    6.40 
 -22   0   3   49.40    4.40 
 -22   0   3   46.60    4.10 
  22   0  -3   45.20    5.40 
  22   0  -3   40.50    5.00 
 -22   0   3   39.40    4.30 
  22   0  -3   50.29    6.60 
  20   0  -3  950.00   25.70 
 -20   0   3  932.41   23.90 
  20   0  -3  907.21   26.70 
  20   0  -3  947.71   25.50 
 -20   0   3  945.31   23.70 
  20   0  -3  971.50   27.40 
 -20   0   3  933.81   23.40 
 -18   0   3 1595.24   38.10 
 -18   0   3 1554.84   37.50 
  18   0  -3 1627.34   41.10 
  18   0  -3 1579.24   40.80 
 -18   0   3 1594.34   37.80 
  18   0  -3 1644.64   39.90 
 -18   0   3 1591.64   37.50 
  18   0  -3 1638.04   39.90 
 -16   0   3  911.71   22.20 
  16   0  -3  915.81   25.30 
  16   0  -3  911.71   24.40 
 -16   0   3  900.91   22.10 
  16   0  -3  908.31   25.30 
 -16   0   3  896.31   22.60 
 -16   0   3  885.51   22.40 
  16   0  -3  942.71   24.50 
 -14   0   3  443.36   12.30 
  14   0  -3  466.35   14.20 
 -14   0   3  456.55   11.80 
 -14   0   3  441.06   12.00 
  14   0  -3  457.25   14.80 
  14   0  -3  447.06   14.70 
 -14   0   3  442.46   11.80 
 -14   0   3  451.35   11.90 
  12   0  -3   90.39    5.60 
 -12   0   3   98.09    4.60 
  12   0  -3  103.99    5.70 
 -12   0   3   96.09    3.90 
  12   0  -3   92.99    6.30 
  12   0  -3   89.79    6.10 
 -12   0   3   98.39    3.80 
 -12   0   3   98.39    4.20 
 -12   0   3   97.69    4.10 
  10   0  -3 1236.58   30.40 
 -10   0   3 1240.78   28.50 
 -10   0   3 1268.37   29.00 
  10   0  -3 1227.58   28.30 
  10   0  -3 1211.28   30.70 
 -10   0   3 1236.78   28.60 
 -10   0   3 1271.17   28.40 
  10   0  -3 1233.08   30.40 
  10   0  -3 1191.18   30.80 
  10   0  -3 1257.67   28.70 
 -10   0   3 1241.08   28.40 
  -8   0   3 2454.75   56.29 
   8   0  -3 2487.85   58.19 
   8   0  -3 2595.94   56.59 
  -8   0   3 2577.14   57.09 
  -8   0   3 2610.44   56.59 
  -8   0   3 2602.24   57.19 
   8   0  -3 2416.36   58.49 
  -8   0   3 2585.64   56.69 
   8   0  -3 2465.35   58.39 
   8   0  -3 2443.76   58.29 
   8   0  -3 2618.94   56.99 
  -8   0   3 2573.74   56.69 
   6   0  -3 4345.87  101.09 
   6   0  -3 4545.85  100.09 
   6   0  -3 4374.56  100.59 
   6   0  -3 4420.06  101.19 
   6   0  -3 4734.13  100.29 
  -6   0   3 4557.34  100.19 
  -6   0   3 4587.54  100.69 
  -6   0   3 4462.75   99.59 
  -6   0   3 4678.53   99.79 
   6   0  -3 4731.83  101.69 
   6   0  -3 4188.88  101.19 
   4   0  -3  836.22   19.60 
  -4   0   3  812.72   18.60 
  -4   0   3  812.42   19.90 
   4   0  -3  847.62   18.80 
  -4   0   3  803.42   19.00 
   4   0  -3  815.12   19.80 
   4   0  -3  831.22   19.10 
   4   0  -3  820.12   20.00 
   4   0  -3  823.52   19.80 
  -4   0   3  794.32   18.80 
   4   0  -3  795.32   19.00 
   2   0  -3   10.20    1.70 
   2   0  -3   11.10    1.10 
  -2   0   3   17.20    2.20 
   2   0  -3   15.50    1.40 
  -2   0   3   16.40    1.80 
  -2   0   3   14.50    1.40 
   2   0  -3   12.00    1.80 
   0   0  -3  290.57    7.20 
   0   0  -3  277.37    8.00 
   0   0   3  283.77    8.60 
   0   0   3  276.37    6.90 
   0   0  -3  273.47    7.40 
   0   0  -3  281.47    7.10 
   0   0   3  284.67    7.80 
   2   0   3 3487.35   78.89 
  -2   0  -3 3377.56   78.69 
  -2   0  -3 3373.76   77.79 
   2   0   3 3513.75   79.49 
  -2   0  -3 3430.36   77.89 
  -2   0  -3 3554.04   78.29 
   2   0   3 3590.24   77.99 
   2   0   3 3688.93   77.59 
  -2   0  -3 3581.14   77.69 
  -4   0  -3 3414.36   79.39 
   4   0   3 3667.13   80.49 
   4   0   3 3488.25   79.99 
  -4   0  -3 3464.75   78.29 
  -4   0  -3 3547.55   78.49 
  -4   0  -3 3588.54   78.19 
   4   0   3 3550.44   78.89 
   4   0   3 3618.14   78.29 
  -4   0  -3 3512.05   78.69 
  -6   0  -3 3013.10   65.29 
   6   0   3 3026.00   65.29 
  -6   0  -3 2887.61   65.29 
   6   0   3 2994.30   65.59 
  -6   0  -3 2906.91   65.59 
  -6   0  -3 2957.40   65.99 
  -6   0  -3 2981.30   65.49 
  -6   0  -3 2863.01   66.59 
   6   0   3 2905.11   66.49 
   6   0   3 2867.01   67.59 
   6   0   3 3023.10   67.79 
  -8   0  -3  576.34   12.80 
   8   0   3  530.35   12.90 
   8   0   3  535.75   15.10 
   8   0   3  505.05   12.30 
  -8   0  -3  529.25   13.20 
   8   0   3  515.55   14.00 
  -8   0  -3  516.15   12.30 
  -8   0  -3  514.25   12.30 
  -8   0  -3  518.85   13.80 
  -8   0  -3  518.45   12.70 
  10   0   3  437.66   11.30 
  10   0   3  454.05   11.50 
 -10   0  -3  440.76   11.60 
  10   0   3  409.46   13.30 
 -10   0  -3  429.96   10.50 
 -10   0  -3  437.66   10.90 
  10   0   3  432.76   12.80 
 -10   0  -3  423.76   12.00 
  12   0   3  882.31   20.90 
 -12   0  -3  844.32   19.60 
  12   0   3  812.42   23.30 
  12   0   3  801.42   22.30 
 -12   0  -3  828.22   20.80 
 -12   0  -3  853.91   20.10 
  12   0   3  869.01   22.80 
 -12   0  -3  818.82   21.20 
  14   0   3 1574.54   40.40 
 -14   0  -3 1586.44   38.80 
  14   0   3 1743.33   40.50 
  14   0   3 1639.64   41.30 
 -14   0  -3 1612.94   37.00 
 -14   0  -3 1613.04   38.50 
  14   0   3 1630.44   38.60 
 -14   0  -3 1622.64   37.70 
 -16   0  -3 1336.37   32.50 
  16   0   3 1404.46   35.80 
  16   0   3 1318.17   32.70 
 -16   0  -3 1337.17   31.60 
  16   0   3 1336.57   35.00 
 -16   0  -3 1290.77   30.90 
 -18   0  -3  259.47    8.70 
  18   0   3  276.57   12.70 
 -18   0  -3  258.27    9.60 
  18   0   3  248.68   12.00 
  20   0   3   15.60    5.40 
 -20   0  -3    9.60    2.80 
  20   0   3   13.50    5.00 
 -20   0  -3   13.00    3.60 
  25   1  -3  456.15   17.80 
  23  -1  -3  700.33   20.50 
  23  -1  -3  710.83   21.00 
  23  -1  -3  683.03   22.40 
 -23  -1   3  711.13   21.30 
  23  -1  -3  710.23   23.30 
 -23  -1   3  703.23   19.20 
 -23  -1   3  682.23   19.10 
  23   1  -3  705.43   20.90 
 -23   1   3  691.03   18.90 
  23   1  -3  744.73   23.00 
  23   1  -3  701.23   22.90 
  23   1  -3  686.33   20.60 
 -23   1   3  664.43   19.00 
  21  -1  -3  734.33   23.00 
 -21  -1   3  738.73   19.80 
 -21  -1   3  739.63   19.90 
  21  -1  -3  760.02   21.50 
 -21  -1   3  755.72   19.50 
  21  -1  -3  748.93   23.50 
  21  -1  -3  768.02   21.90 
 -21  -1   3  742.53   19.80 
  21   1  -3  779.02   23.40 
 -21   1   3  723.03   19.80 
  21   1  -3  729.73   21.50 
 -21   1   3  739.83   19.60 
  21   1  -3  749.03   21.40 
  21   1  -3  754.12   23.20 
 -19  -1   3  177.48    7.80 
  19  -1  -3  181.98    8.80 
 -19  -1   3  170.38    7.50 
  19  -1  -3  176.38   10.20 
 -19  -1   3  171.38    7.30 
  19  -1  -3  181.68    9.20 
 -19  -1   3  173.98    7.30 
  19  -1  -3  180.98   10.40 
 -19   1   3  168.98    7.10 
 -19   1   3  166.38    7.40 
  19   1  -3  175.18   10.00 
  19   1  -3  178.48    8.70 
  19   1  -3  185.78   10.20 
  19   1  -3  184.08    9.00 
 -17  -1   3  141.19    6.20 
 -17  -1   3  144.19    5.90 
  17  -1  -3  147.69    9.30 
 -17  -1   3  153.18    6.30 
 -17  -1   3  149.09    6.70 
 -17  -1   3  148.09    6.50 
  17  -1  -3  144.69    9.10 
  17  -1  -3  151.88    8.20 
  17  -1  -3  150.48    7.80 
 -17   1   3  155.58    6.60 
  17   1  -3  160.58    9.20 
  17   1  -3  147.69    8.80 
 -17   1   3  152.48    6.00 
 -17   1   3  147.69    6.20 
  17   1  -3  153.28    8.00 
  17   1  -3  147.19    7.60 
 -15  -1   3  804.82   19.90 
  15  -1  -3  788.82   21.70 
 -15  -1   3  783.02   19.70 
  15  -1  -3  788.52   22.80 
 -15  -1   3  787.72   19.40 
  15  -1  -3  798.42   23.10 
 -15  -1   3  766.82   19.50 
 -15  -1   3  771.92   19.50 
  15  -1  -3  811.12   21.60 
 -15   1   3  770.32   19.30 
 -15   1   3  782.62   19.30 
 -15   1   3  783.02   19.90 
  15   1  -3  811.02   22.50 
  15   1  -3  798.62   21.60 
  15   1  -3  837.52   22.80 
 -15   1   3  788.22   19.60 
  15   1  -3  799.82   21.50 
 -13  -1   3 1632.24   38.50 
 -13  -1   3 1665.83   38.20 
  13  -1  -3 1652.23   38.10 
 -13  -1   3 1675.43   38.00 
  13  -1  -3 1650.23   40.10 
  13  -1  -3 1631.34   40.10 
  13  -1  -3 1652.73   38.20 
  13  -1  -3 1590.44   40.80 
  13  -1  -3 1654.53   41.00 
 -13  -1   3 1599.74   38.10 
  13   1  -3 1670.53   40.20 
 -13   1   3 1641.54   38.10 
  13   1  -3 1723.53   41.10 
 -13   1   3 1627.64   38.50 
 -13   1   3 1646.74   38.00 
  13   1  -3 1739.43   41.20 
 -13   1   3 1656.53   38.20 
  13   1  -3 1709.83   40.50 
 -13   1   3 1649.93   37.70 
  11  -1  -3 2237.88   52.69 
  11  -1  -3 2184.18   52.09 
  11  -1  -3 2206.98   50.49 
 -11  -1   3 2200.48   50.39 
 -11  -1   3 2221.48   50.69 
  11  -1  -3 2207.98   52.49 
 -11  -1   3 2194.58   49.90 
 -11  -1   3 2234.48   50.39 
 -11  -1   3 2230.68   50.29 
  11   1  -3 2254.77   52.89 
 -11   1   3 2163.88   50.29 
  11   1  -3 2267.07   52.49 
  11   1  -3 2253.27   52.59 
  11   1  -3 2235.68   50.39 
 -11   1   3 2269.37   50.69 
 -11   1   3 2228.38   50.29 
 -11   1   3 2256.97   49.90 
 -11   1   3 2186.08   50.69 
  11   1  -3 2279.77   53.09 
 -11   1   3 2222.78   50.19 
  -9  -1   3 1596.44   36.80 
   9  -1  -3 1613.84   37.90 
  -9  -1   3 1624.44   36.60 
   9  -1  -3 1558.64   38.00 
   9  -1  -3 1598.84   36.60 
   9  -1  -3 1596.74   38.00 
   9  -1  -3 1671.23   36.90 
  -9  -1   3 1577.54   36.50 
  -9  -1   3 1624.54   36.50 
  -9  -1   3 1641.54   36.40 
   9  -1  -3 1638.34   38.30 
  -9   1   3 1627.44   36.90 
  -9   1   3 1579.84   36.80 
   9   1  -3 1611.74   38.80 
  -9   1   3 1605.24   36.30 
   9   1  -3 1652.43   36.50 
  -9   1   3 1589.14   36.40 
  -9   1   3 1581.64   36.20 
   9   1  -3 1426.76   38.10 
  -9   1   3 1612.44   36.00 
   9   1  -3 1598.14   38.50 
  -7  -1   3   55.99    2.70 
   7  -1  -3   59.99    3.40 
  -7  -1   3   64.29    3.20 
   7  -1  -3   55.59    3.00 
   7  -1  -3   59.09    2.10 
   7  -1  -3   57.79    3.80 
   7  -1  -3   64.39    2.70 
   7  -1  -3   63.69    3.80 
   7  -1  -3   64.19    3.60 
  -7  -1   3   52.09    3.00 
   7   1  -3   59.79    4.30 
  -7   1   3   58.09    3.40 
   7   1  -3   59.39    2.50 
  -7   1   3   60.69    2.20 
  -7   1   3   52.29    2.40 
   7   1  -3   58.39    4.10 
   7   1  -3   61.59    2.70 
   7   1  -3   54.59    4.20 
  -7   1   3   54.39    2.40 
  -7   1   3   55.59    2.60 
  -7   1   3   56.89    3.00 
   5  -1  -3 1834.22   41.60 
   5  -1  -3 1971.20   41.10 
   5  -1  -3 1887.41   42.20 
  -5  -1   3 1785.32   41.70 
  -5  -1   3 1887.71   41.40 
  -5  -1   3 1870.71   42.30 
   5  -1  -3 1928.81   42.30 
   5  -1  -3 1861.01   42.50 
  -5   1   3 1860.81   41.70 
   5   1  -3 1697.33   42.80 
  -5   1   3 1866.31   42.40 
   5   1  -3 1735.13   43.00 
  -5   1   3 1869.31   41.10 
   5   1  -3 1958.90   41.70 
  -5   1   3 1847.72   41.00 
   5   1  -3 1862.51   41.50 
   5   1  -3 1615.94   42.60 
   5   1  -3 1932.71   42.70 
  -5   1   3 1759.92   41.50 
  -3  -1   3 3103.69   67.89 
   3  -1  -3 3081.89   68.39 
   3  -1  -3 3163.38   68.79 
  -3  -1   3 3114.99   67.79 
  -3  -1   3 3081.99   68.99 
   3  -1  -3 3050.39   68.69 
   3  -1  -3 3193.38   67.69 
   3  -1  -3 3037.40   67.99 
  -3   1   3 3066.19   68.39 
   3   1  -3 3119.09   69.29 
   3   1  -3 3108.49   67.99 
   3   1  -3 3117.49   68.19 
  -3   1   3 3035.40   67.99 
  -3   1   3 3122.49   69.19 
  -3   1   3 3073.19   68.39 
   3   1  -3 2800.52   69.19 
   3   1  -3 2708.33   68.89 
  -1  -1   3 3090.59   68.29 
   1  -1  -3 3091.79   67.59 
  -1  -1   3 2888.71   67.39 
   1  -1  -3 3138.69   67.99 
   1  -1  -3 3178.98   66.99 
   1  -1  -3 3075.29   67.19 
  -1   1   3 3154.08   67.59 
   1   1  -3 2904.01   68.29 
   1   1  -3 3172.88   67.39 
  -1   1   3 3160.28   67.99 
   1   1  -3 2640.54   67.89 
   1   1  -3 3091.89   67.09 
  -1   1   3 3024.50   68.59 
   1   1  -3 3053.59   67.09 
   1   1  -3 2673.23   67.69 
  -1   1   3 3035.70   66.99 
  -1  -1  -3 2783.72   61.49 
   1  -1   3 2756.82   62.19 
   1  -1   3 2780.72   62.69 
  -1  -1  -3 2760.62   61.69 
  -1  -1  -3 2783.12   62.29 
  -1  -1  -3 2865.91   61.39 
   1   1   3 2924.21   61.69 
   1   1   3 2775.72   63.39 
  -1   1  -3 2842.42   61.79 
   1   1   3 2812.42   61.99 
  -1   1  -3 2690.53   61.39 
  -1   1  -3 2329.87   61.89 
  -1   1  -3 2833.42   61.39 
  -1   1  -3 2706.43   62.69 
   1   1   3 2825.12   62.59 
  -3  -1  -3  183.38    5.10 
   3  -1   3  185.68    6.40 
  -3  -1  -3  183.28    5.00 
   3  -1   3  174.98    5.00 
  -3  -1  -3  179.48    5.10 
  -3  -1  -3  211.48    6.00 
   3  -1   3  182.98    6.20 
   3   1   3  182.88    7.30 
   3   1   3  189.88    5.10 
  -3   1  -3  184.98    4.90 
  -3   1  -3  176.88    6.10 
   3   1   3  188.48    6.50 
  -3   1  -3  181.38    4.90 
  -3   1  -3  185.88    5.40 
   3   1   3  185.48    5.20 
   3   1   3  186.68    5.60 
  -5  -1  -3  281.57    8.20 
  -5  -1  -3  290.57    7.30 
  -5  -1  -3  290.37    6.70 
   5  -1   3  276.77    9.00 
  -5  -1  -3  292.97    7.00 
   5  -1   3  288.37    7.90 
  -5  -1  -3  279.57    7.30 
  -5  -1  -3  283.97    7.50 
   5  -1   3  288.87    8.90 
  -5   1  -3  283.07    7.70 
  -5   1  -3  286.87    7.10 
  -5   1  -3  280.07    7.20 
   5   1   3  299.27    9.30 
   5   1   3  291.27    9.90 
  -5   1  -3  276.77    8.50 
   5   1   3  286.17    7.30 
   5   1   3  291.47    8.20 
   5   1   3  287.97    7.50 
   7  -1   3 1390.96   33.40 
  -7  -1  -3 1397.16   32.30 
  -7  -1  -3 1399.76   32.30 
  -7  -1  -3 1428.96   32.70 
  -7  -1  -3 1476.05   31.80 
   7  -1   3 1472.85   32.20 
   7  -1   3 1406.96   34.20 
  -7  -1  -3 1436.56   32.10 
   7  -1   3 1316.27   34.40 
  -7  -1  -3 1411.56   33.30 
   7   1   3 1423.96   32.70 
  -7   1  -3 1430.36   32.80 
   7   1   3 1510.65   35.50 
   7   1   3 1417.76   33.50 
  -7   1  -3 1382.16   33.50 
  -7   1  -3 1435.76   32.10 
   7   1   3 1459.75   34.90 
   7   1   3 1432.06   32.30 
   9  -1   3 2481.65   54.79 
   9  -1   3 2376.46   56.69 
  -9  -1  -3 2431.76   55.19 
  -9  -1  -3 2399.36   54.69 
  -9  -1  -3 2479.35   54.59 
   9  -1   3 2349.06   56.39 
   9  -1   3 2369.56   57.29 
  -9  -1  -3 2447.16   55.89 
  -9  -1  -3 2507.45   54.09 
   9   1   3 2500.35   55.29 
  -9   1  -3 2434.16   54.49 
   9   1   3 2411.96   54.69 
  -9   1  -3 2443.96   54.79 
   9   1   3 2431.66   54.59 
  -9   1  -3 2354.86   55.89 
  -9   1  -3 2382.66   55.29 
   9   1   3 2521.05   58.09 
   9   1   3 2517.95   57.99 
   9   1   3 2481.25   56.49 
 -11  -1  -3 1535.45   33.90 
 -11  -1  -3 1476.65   35.70 
  11  -1   3 1446.26   36.60 
  11  -1   3 1511.95   36.80 
 -11  -1  -3 1509.65   35.20 
  11  -1   3 1544.65   37.60 
 -11  -1  -3 1511.05   34.50 
 -11  -1  -3 1503.75   34.50 
  11  -1   3 1562.54   35.10 
  11   1   3 1500.35   38.40 
  11   1   3 1478.35   34.40 
  11   1   3 1470.35   34.40 
 -11   1  -3 1481.75   34.20 
  11   1   3 1558.44   36.90 
  11   1   3 1556.54   35.40 
 -11   1  -3 1519.25   34.60 
  11   1   3 1461.85   37.90 
 -11   1  -3 1494.35   35.20 
 -11   1  -3 1492.05   35.80 
  13  -1   3  458.75   14.70 
 -13  -1  -3  453.15   13.30 
 -13  -1  -3  469.65   12.90 
  13  -1   3  478.15   14.60 
 -13  -1  -3  457.85   12.10 
  13  -1   3  472.35   15.30 
 -13   1  -3  469.25   13.00 
  13   1   3  485.15   15.10 
  13   1   3  513.55   16.10 
  13   1   3  473.25   13.20 
  13   1   3  427.46   16.10 
 -13   1  -3  470.55   13.50 
  13   1   3  462.25   12.10 
 -13   1  -3  468.85   11.80 
 -13   1  -3  479.55   12.30 
  15  -1   3   -0.80    3.40 
  15  -1   3    0.90    3.20 
 -15  -1  -3    3.40    2.60 
 -15  -1  -3    4.80    1.90 
  15  -1   3   10.50    3.70 
 -15  -1  -3    5.20    2.50 
 -15   1  -3    8.70    2.60 
  15   1   3    5.50    4.60 
 -15   1  -3    4.10    1.60 
  15   1   3    2.60    3.40 
  15   1   3    3.80    2.50 
 -15   1  -3    5.40    2.00 
  17  -1   3  370.46   12.70 
  17  -1   3  350.76   13.30 
 -17  -1  -3  352.86   10.20 
 -17  -1  -3  341.47   11.10 
 -17  -1  -3  346.67   11.50 
  17  -1   3  345.37   13.70 
  17   1   3  369.26   15.10 
 -17   1  -3  329.87    9.70 
  17   1   3  333.17   11.70 
 -17   1  -3  342.57   10.40 
 -17   1  -3  343.77   11.40 
  17   1   3  349.96   14.00 
  19  -1   3  751.92   23.10 
 -19  -1  -3  762.72   20.50 
 -19  -1  -3  754.02   19.50 
  19  -1   3  773.42   23.40 
  19   1   3  800.22   24.80 
 -19   1  -3  758.62   19.80 
  19   1   3  756.12   23.90 
 -19   1  -3  791.12   20.90 
 -19   1  -3  732.33   18.90 
  19   1   3  734.13   21.20 
 -21  -1  -3  881.11   23.50 
 -21  -1  -3  858.01   22.70 
 -21   1  -3  899.61   23.80 
 -21   1  -3  810.72   21.60 
  21   1   3  943.91   27.80 
 -24  -2   3   49.10    5.30 
  24  -2  -3   61.39    7.70 
 -24  -2   3   53.49    5.20 
  24  -2  -3   57.69    7.40 
  24  -2  -3   50.89    6.90 
  24   2  -3   55.39    7.50 
 -22  -2   3   97.89    6.90 
 -22  -2   3  108.49    7.10 
 -22  -2   3   99.29    6.90 
  22  -2  -3   99.39    8.20 
  22  -2  -3   96.19    7.60 
  22  -2  -3   94.99    9.30 
  22  -2  -3   92.99    9.60 
  22   2  -3   97.69    8.10 
  22   2  -3   93.39    7.70 
  22   2  -3   83.29    9.60 
 -22   2   3   94.79    6.60 
 -22   2   3   98.79   10.10 
 -20  -2   3  666.43   18.80 
 -20  -2   3  698.73   18.90 
  20  -2  -3  715.73   20.50 
  20  -2  -3  696.43   20.80 
 -20  -2   3  697.43   18.80 
  20  -2  -3  711.03   23.20 
 -20  -2   3  654.43   18.10 
  20  -2  -3  669.03   22.30 
 -20  -2   3  705.83   18.40 
  20   2  -3  764.92   22.90 
  20   2  -3  685.33   22.20 
 -20   2   3  731.03   18.60 
 -20   2   3  689.43   18.70 
  20   2  -3  695.53   20.40 
  20   2  -3  704.43   20.80 
  18  -2  -3 1390.56   37.40 
  18  -2  -3 1365.56   35.20 
  18  -2  -3 1365.86   34.80 
  18  -2  -3 1341.67   36.70 
 -18  -2   3 1331.97   33.20 
 -18  -2   3 1396.06   32.90 
 -18  -2   3 1371.56   33.20 
 -18  -2   3 1396.96   33.30 
 -18  -2   3 1318.67   32.70 
 -18   2   3 1454.95   33.10 
 -18   2   3 1357.46   33.20 
  18   2  -3 1375.16   34.90 
  18   2  -3 1364.46   35.10 
  18   2  -3 1479.55   37.30 
  18   2  -3 1374.36   36.80 
  16  -2  -3 1080.49   27.90 
 -16  -2   3 1024.70   25.70 
  16  -2  -3 1088.99   26.40 
  16  -2  -3 1073.29   29.20 
  16  -2  -3 1061.49   29.50 
 -16  -2   3 1035.20   26.10 
 -16  -2   3 1080.39   26.10 
 -16  -2   3 1039.00   25.70 
  16  -2  -3 1096.59   28.10 
 -16  -2   3 1081.89   26.30 
  16   2  -3 1091.99   28.20 
  16   2  -3 1065.19   29.60 
  16   2  -3 1083.59   28.00 
 -16   2   3 1117.09   26.00 
 -16   2   3 1087.29   26.30 
  16   2  -3 1091.19   29.80 
 -16   2   3 1047.60   26.00 
  14  -2  -3  162.58    6.00 
  14  -2  -3  159.78    8.30 
  14  -2  -3  161.08    5.80 
 -14  -2   3  163.58    6.20 
  14  -2  -3  170.88    8.40 
 -14  -2   3  167.48    6.20 
  14  -2  -3  166.18    7.60 
  14  -2  -3  161.18    7.60 
 -14  -2   3  156.08    6.00 
 -14  -2   3  162.38    6.40 
  14   2  -3  180.68    8.20 
  14   2  -3  158.68    8.70 
 -14   2   3  172.78    6.00 
 -14   2   3  161.48    6.20 
 -14   2   3  168.58    6.40 
  14   2  -3  162.98    9.20 
 -12  -2   3   14.80    2.30 
 -12  -2   3   13.10    2.10 
  12  -2  -3   21.00    2.10 
  12  -2  -3   15.10    3.00 
 -12  -2   3   14.90    2.20 
  12  -2  -3   17.30    3.20 
  12  -2  -3   13.40    2.90 
  12  -2  -3   11.40    2.60 
 -12  -2   3   14.00    2.00 
  12   2  -3   13.00    3.00 
  12   2  -3   14.90    2.00 
  12   2  -3   10.40    3.50 
  12   2  -3   15.10    3.20 
 -12   2   3   17.60    2.30 
  12   2  -3   11.50    2.80 
 -12   2   3   13.20    2.20 
 -12   2   3   16.80    2.20 
 -12   2   3   17.40    2.10 
  10  -2  -3 1021.60   25.80 
 -10  -2   3 1032.10   24.60 
  10  -2  -3 1044.60   25.80 
  10  -2  -3 1024.90   26.10 
  10  -2  -3 1001.50   24.40 
 -10  -2   3 1037.00   24.30 
  10  -2  -3 1065.49   24.30 
  10  -2  -3 1060.19   26.30 
 -10  -2   3 1022.20   24.50 
 -10  -2   3 1027.60   24.70 
 -10   2   3 1028.20   24.60 
 -10   2   3 1048.10   24.00 
  10   2  -3 1070.99   26.50 
 -10   2   3 1056.49   25.00 
 -10   2   3 1041.50   24.10 
  10   2  -3 1059.29   24.60 
  10   2  -3 1029.50   26.40 
 -10   2   3 1051.39   24.70 
  10   2  -3 1074.29   25.80 
  10   2  -3  992.40   26.70 
  -8  -2   3 3144.69   69.09 
  -8  -2   3 3037.60   69.39 
  -8  -2   3 3132.79   69.39 
   8  -2  -3 3083.19   70.39 
   8  -2  -3 3152.58   70.59 
  -8  -2   3 3045.40   69.19 
   8  -2  -3 3101.59   70.39 
   8  -2  -3 3030.40   69.19 
   8  -2  -3 3123.69   69.19 
  -8   2   3 3072.99   68.59 
   8   2  -3 3136.69   71.09 
  -8   2   3 3162.68   69.89 
   8   2  -3 3046.70   70.69 
   8   2  -3 3246.68   69.39 
   8   2  -3 3115.79   69.39 
  -8   2   3 3030.90   69.29 
  -8   2   3 3140.09   69.49 
   8   2  -3 2798.52   70.59 
  -6  -2   3 2246.18   51.19 
   6  -2  -3 2251.57   51.79 
  -6  -2   3 2279.17   50.79 
   6  -2  -3 2323.07   51.19 
   6  -2  -3 2288.77   50.89 
   6  -2  -3 2291.17   51.79 
   6   2  -3 2277.37   51.49 
   6   2  -3 2201.98   52.49 
  -6   2   3 2155.18   50.79 
   6   2  -3 2338.77   51.09 
  -6   2   3 2310.47   51.29 
  -6   2   3 2260.97   51.69 
   6   2  -3 2168.48   51.99 
  -4  -2   3 1315.27   30.30 
  -4  -2   3 1320.47   31.00 
   4  -2  -3 1360.36   30.50 
   4  -2  -3 1339.77   31.10 
   4  -2  -3 1391.66   31.00 
  -4  -2   3 1367.26   30.40 
   4  -2  -3 1352.76   31.10 
  -4   2   3 1231.98   30.30 
   4   2  -3 1325.47   30.30 
   4   2  -3 1240.18   31.60 
   4   2  -3 1387.46   30.80 
   4   2  -3 1347.47   31.10 
  -4   2   3 1359.56   31.60 
  -4   2   3 1349.56   31.30 
  -4   2   3 1364.16   31.10 
  -2  -2   3   18.30    1.50 
   2  -2  -3   15.40    1.60 
   2  -2  -3   16.90    2.00 
   2  -2  -3   19.60    1.20 
  -2   2   3   17.70    2.30 
  -2   2   3   15.00    2.20 
   0  -2   3  706.03   16.70 
   0  -2   3  693.03   17.40 
   0  -2  -3  755.02   16.50 
   0  -2   3  717.63   17.80 
   0  -2  -3  722.53   17.20 
   0  -2  -3  734.83   17.50 
   0  -2  -3  739.53   16.80 
   0   2   3  740.33   18.10 
   0   2  -3  693.33   18.20 
   0   2  -3  717.13   16.90 
   0   2  -3  730.03   17.30 
   0   2   3  757.42   17.40 
   0   2  -3  718.33   16.40 
   0   2   3  690.53   18.40 
   0   2   3  740.43   17.70 
   2  -2   3 1555.74   36.70 
  -2  -2  -3 1618.44   35.60 
  -2  -2  -3 1585.54   36.40 
   2  -2   3 1606.44   35.50 
  -2  -2  -3 1599.34   35.50 
   2  -2   3 1495.75   36.70 
  -2  -2  -3 1540.25   35.90 
   2   2   3 1641.14   36.00 
   2   2   3 1619.64   36.10 
  -2   2  -3 1462.75   37.00 
  -2   2  -3 1619.54   35.60 
  -2   2  -3 1617.04   36.10 
   2   2   3 1559.84   37.10 
   2   2   3 1624.54   36.60 
   2   2   3 1548.25   37.50 
   4  -2   3 3756.72   88.89 
   4  -2   3 3748.32   89.89 
  -4  -2  -3 4077.69   88.49 
  -4  -2  -3 3949.00   89.19 
  -4  -2  -3 4086.89   88.69 
  -4  -2  -3 4141.59   87.99 
  -4  -2  -3 4003.10   88.69 
   4  -2   3 4043.60   89.79 
   4   2   3 3927.31   90.59 
   4   2   3 4086.59   89.49 
  -4   2  -3 4090.59   88.29 
  -4   2  -3 3555.94   89.59 
   4   2   3 3967.60   90.19 
  -4   2  -3 4100.09   88.99 
   4   2   3 4112.29   88.69 
   4   2   3 4111.09   88.89 
  -6  -2  -3 2366.76   54.29 
  -6  -2  -3 2382.96   53.59 
  -6  -2  -3 2395.66   53.39 
  -6  -2  -3 2451.75   52.99 
   6  -2   3 2352.66   54.99 
  -6  -2  -3 2398.26   53.59 
   6  -2   3 2280.87   54.39 
   6  -2   3 2380.56   55.39 
   6   2   3 2436.46   55.79 
   6   2   3 2404.36   53.59 
  -6   2  -3 2426.86   53.29 
   6   2   3 2421.86   53.99 
  -6   2  -3 2366.66   53.89 
   6   2   3 2360.46   55.99 
  -6   2  -3 2253.87   54.69 
   6   2   3 2440.36   54.79 
  -8  -2  -3  188.18    6.60 
  -8  -2  -3  188.38    5.90 
   8  -2   3  184.58    7.80 
  -8  -2  -3  181.18    5.60 
   8  -2   3  185.88    7.10 
  -8  -2  -3  190.08    5.50 
   8  -2   3  189.28    7.30 
  -8  -2  -3  192.58    5.20 
   8   2   3  197.38    5.70 
   8   2   3  189.68    8.30 
   8   2   3  179.78    5.70 
   8   2   3  190.08    6.20 
  -8   2  -3  187.08    5.40 
   8   2   3  185.88    8.70 
  -8   2  -3  184.58    7.00 
   8   2   3  183.68    6.90 
  -8   2  -3  179.88    6.00 
 -10  -2  -3   92.49    4.90 
  10  -2   3   96.49    5.70 
 -10  -2  -3   96.49    3.80 
 -10  -2  -3   97.09    4.30 
  10  -2   3   99.29    5.70 
 -10  -2  -3  104.49    3.70 
  10  -2   3  101.59    6.50 
  10   2   3  101.19    4.00 
  10   2   3  104.69    7.50 
 -10   2  -3   99.49    3.70 
  10   2   3  100.49    7.20 
 -10   2  -3  100.99    4.60 
  10   2   3  100.39    5.70 
 -10   2  -3  100.89    5.40 
  10   2   3   99.69    4.10 
  10   2   3   97.89    4.70 
  12  -2   3 1066.49   28.00 
 -12  -2  -3 1072.69   26.50 
  12  -2   3 1063.69   27.50 
 -12  -2  -3 1075.29   24.90 
  12  -2   3 1101.19   27.30 
 -12  -2  -3 1054.29   25.10 
 -12  -2  -3 1072.89   25.70 
  12   2   3 1063.69   25.20 
  12   2   3  903.21   28.10 
  12   2   3 1101.19   27.90 
  12   2   3 1050.69   25.30 
 -12   2  -3 1083.99   26.00 
  12   2   3 1079.19   26.20 
  12   2   3 1124.09   29.90 
 -12   2  -3 1049.59   24.80 
 -14  -2  -3 1405.06   33.40 
  14  -2   3 1431.76   34.90 
 -14  -2  -3 1422.86   32.50 
  14  -2   3 1402.66   35.30 
  14  -2   3 1387.06   35.70 
 -14  -2  -3 1378.66   32.60 
 -14  -2  -3 1407.96   34.00 
  14   2   3 1361.06   32.80 
 -14   2  -3 1374.26   32.30 
  14   2   3 1367.26   37.80 
  14   2   3 1409.56   34.10 
  14   2   3 1422.56   36.00 
 -14   2  -3 1387.76   33.60 
 -14   2  -3 1418.06   32.80 
  14   2   3 1362.56   32.80 
 -16  -2  -3  954.60   24.20 
 -16  -2  -3  950.40   24.80 
  16  -2   3  954.80   26.20 
  16  -2   3  979.20   25.70 
  16  -2   3  953.50   26.70 
 -16  -2  -3  989.90   23.30 
  16   2   3  974.50   25.20 
  16   2   3  950.40   27.30 
 -16   2  -3  930.81   23.10 
 -16   2  -3  935.11   24.50 
  16   2   3  975.00   29.20 
 -16   2  -3  946.61   23.70 
  16   2   3  989.80   25.20 
 -18  -2  -3  373.86   12.60 
  18  -2   3  386.46   14.60 
  18  -2   3  374.46   14.20 
 -18  -2  -3  383.16   11.00 
  18  -2   3  391.96   13.60 
 -18  -2  -3  377.96   12.10 
 -18   2  -3  371.56   10.80 
 -18   2  -3  377.66   12.60 
  18   2   3  416.06   17.30 
  18   2   3  357.76   15.20 
  18   2   3  370.56   13.10 
 -18   2  -3  392.76   11.60 
  20  -2   3    3.30    5.50 
 -20  -2  -3    1.70    2.40 
  20  -2   3    5.50    4.70 
 -20  -2  -3    1.60    4.90 
 -20  -2  -3    1.30    3.20 
 -20   2  -3    4.90    3.40 
  20   2   3    1.40    3.70 
 -20   2  -3    0.90    3.30 
 -20   2  -3    1.50    2.40 
  20   2   3   -7.60    5.10 
  22   2   3  142.09    9.50 
 -23  -3   3  656.43   18.20 
  23  -3  -3  675.03   20.30 
 -23  -3   3  649.54   18.70 
  23  -3  -3  649.43   22.30 
  23   3  -3  610.24   22.40 
 -23   3   3  639.54   18.90 
  21  -3  -3  505.85   20.40 
  21  -3  -3  516.85   16.80 
 -21  -3   3  482.45   14.10 
 -21  -3   3  467.95   15.20 
 -21  -3   3  498.75   14.90 
 -21  -3   3  498.85   15.10 
 -21  -3   3  508.85   14.80 
  21  -3  -3  516.65   16.20 
  21  -3  -3  492.15   18.50 
 -21   3   3  503.55   14.80 
  21   3  -3  503.85   17.10 
  21   3  -3  483.85   16.30 
  21   3  -3  498.85   19.20 
  19  -3  -3  144.69    8.00 
 -19  -3   3  139.49    6.20 
 -19  -3   3  134.29    7.10 
  19  -3  -3  153.38    9.90 
 -19  -3   3  141.19    7.20 
  19  -3  -3  142.99    8.50 
 -19  -3   3  138.39    6.70 
 -19  -3   3  134.59    7.30 
  19  -3  -3  138.19   10.10 
  19   3  -3  125.19    8.30 
  19   3  -3  129.09   10.80 
 -19   3   3  138.99    7.00 
  19   3  -3  145.99    9.00 
  17  -3  -3   70.89    6.10 
  17  -3  -3   65.09    6.30 
  17  -3  -3   58.79    5.00 
  17  -3  -3   65.99    7.50 
 -17  -3   3   69.09    5.30 
 -17  -3   3   67.59    5.30 
 -17  -3   3   68.89    5.00 
 -17  -3   3   66.09    4.30 
 -17  -3   3   72.09    5.30 
  17  -3  -3   76.29    7.50 
  17  -3  -3   66.39    4.40 
  17   3  -3   54.89    6.70 
  17   3  -3   64.09    8.50 
 -17   3   3   74.59    5.30 
  17   3  -3   62.89    6.40 
 -17   3   3   64.29    5.10 
  15  -3  -3  816.92   23.70 
  15  -3  -3  819.82   23.40 
  15  -3  -3  821.92   22.30 
 -15  -3   3  816.42   20.30 
  15  -3  -3  838.22   22.50 
 -15  -3   3  831.52   20.80 
 -15  -3   3  842.42   20.50 
 -15  -3   3  807.42   20.90 
  15  -3  -3  841.92   20.70 
 -15  -3   3  854.01   20.90 
 -15   3   3  866.61   21.10 
  15   3  -3  745.73   24.20 
 -15   3   3  844.72   21.30 
  15   3  -3  880.41   23.20 
  15   3  -3  830.22   23.20 
  13  -3  -3  954.00   26.00 
  13  -3  -3  984.00   25.30 
  13  -3  -3  985.50   23.60 
 -13  -3   3  971.00   23.80 
  13  -3  -3  983.90   25.30 
 -13  -3   3  986.60   23.90 
 -13  -3   3  999.20   23.60 
 -13  -3   3  958.50   23.90 
  13  -3  -3  957.70   26.10 
  13   3  -3  975.60   26.00 
 -13   3   3  990.10   23.90 
  13   3  -3 1020.20   26.10 
 -13   3   3 1016.80   24.50 
  13   3  -3  995.30   26.90 
 -13   3   3  970.70   24.30 
  13   3  -3  932.41   29.20 
  13   3  -3  987.70   23.90 
  11  -3  -3 1772.52   42.70 
  11  -3  -3 1754.32   42.10 
 -11  -3   3 1743.43   40.90 
 -11  -3   3 1794.82   40.90 
  11  -3  -3 1753.62   40.60 
 -11  -3   3 1790.12   40.50 
 -11  -3   3 1801.82   40.80 
  11  -3  -3 1742.13   42.70 
  11  -3  -3 1765.22   42.00 
  11   3  -3 1758.62   42.80 
  11   3  -3 1727.23   41.90 
  11   3  -3 1697.93   42.50 
 -11   3   3 1824.92   41.50 
 -11   3   3 1727.93   40.70 
  11   3  -3 1806.12   42.90 
 -11   3   3 1776.22   41.20 
  11   3  -3 1781.22   40.90 
   9  -3  -3 1381.96   33.00 
  -9  -3   3 1375.46   32.10 
  -9  -3   3 1398.56   31.80 
   9  -3  -3 1409.26   31.90 
   9  -3  -3 1385.76   33.40 
  -9  -3   3 1354.46   32.10 
   9   3  -3 1345.87   32.20 
  -9   3   3 1400.06   32.80 
   9   3  -3 1379.46   33.30 
   9   3  -3 1417.66   32.20 
  -9   3   3 1298.47   31.70 
  -9   3   3 1380.16   32.40 
   9   3  -3 1389.46   33.00 
   9   3  -3 1320.37   33.60 
   7  -3  -3   13.20    1.70 
  -7  -3   3   11.10    1.60 
   7  -3  -3    9.70    2.10 
   7  -3  -3    6.80    1.90 
  -7  -3   3    9.10    1.60 
   7  -3  -3    8.80    1.40 
   7   3  -3    6.60    1.40 
   7   3  -3   17.10    1.90 
   7   3  -3   11.90    2.00 
   7   3  -3    9.90    1.70 
  -7   3   3   13.50    1.50 
  -7   3   3    9.90    1.90 
   7   3  -3    9.00    2.20 
  -7   3   3    8.60    2.00 
  -5  -3   3  751.52   17.70 
  -5  -3   3  716.63   17.90 
   5  -3  -3  753.12   18.40 
   5  -3  -3  764.62   17.70 
   5  -3  -3  746.23   17.90 
   5  -3  -3  749.23   18.60 
   5   3  -3  716.13   17.60 
   5   3  -3  744.63   18.50 
   5   3  -3  750.82   18.10 
  -5   3   3  740.23   19.10 
  -5   3   3  714.63   17.10 
  -5   3   3  735.83   18.80 
   5   3  -3  772.02   18.10 
  -5   3   3  741.63   18.50 
   3  -3  -3 2508.05   54.59 
  -3  -3   3 2456.55   54.59 
   3  -3  -3 2469.65   54.99 
   3  -3  -3 2450.75   55.19 
  -3  -3   3 2328.07   54.59 
  -3  -3   3 2372.76   55.09 
   3   3  -3 2437.96   54.89 
   3   3  -3 2478.75   55.09 
  -3   3   3 2451.95   55.59 
  -3   3   3 2416.66   55.89 
  -3   3   3 2502.85   55.99 
   3   3  -3 2391.06   54.19 
   3   3  -3 2385.36   54.49 
   1  -3  -3 2762.72   60.79 
  -1  -3   3 2552.44   60.79 
   1  -3  -3 2710.63   60.79 
  -1  -3   3 2556.44   60.79 
   1  -3  -3 2761.12   60.19 
  -1  -3   3 2598.34   60.99 
  -1   3   3 2762.62   61.19 
  -1   3   3 2720.63   61.49 
   1   3  -3 2759.52   59.89 
   1   3  -3 2642.14   60.09 
   1   3  -3 2732.53   60.29 
  -1   3   3 2766.32   61.59 
  -1   3   3 2704.83   61.79 
   1   3  -3 2716.63   60.89 
   1  -3   3 1179.38   28.10 
  -1  -3  -3 1197.48   26.70 
   1  -3   3 1153.58   28.20 
  -1  -3  -3 1171.68   27.70 
  -1  -3  -3 1159.28   27.50 
  -1  -3  -3 1206.28   27.00 
   1   3   3 1189.78   28.40 
   1   3   3 1171.48   28.70 
   1   3   3 1217.48   27.60 
  -1   3  -3 1172.68   27.10 
   1   3   3 1184.38   27.90 
  -1   3  -3 1202.78   27.70 
   1   3   3 1168.58   28.60 
  -3  -3  -3  411.76   11.10 
   3  -3   3  411.16   11.10 
   3  -3   3  416.56   11.80 
  -3  -3  -3  416.46   10.20 
  -3  -3  -3  412.16   10.70 
   3  -3   3  412.56   11.50 
  -3  -3  -3  408.66   10.10 
   3   3   3  404.86   12.00 
  -3   3  -3  420.96   10.30 
   3   3   3  405.46   12.20 
   3   3   3  417.46   11.10 
   3   3   3  425.36   11.80 
   3   3   3  417.26   10.70 
  -3   3  -3  418.16   11.00 
  -5  -3  -3  319.97    8.30 
   5  -3   3  317.17    9.60 
  -5  -3  -3  316.77    9.20 
  -5  -3  -3  314.67    8.60 
   5  -3   3  313.87    9.70 
   5  -3   3  323.47   10.20 
  -5  -3  -3  325.57    8.20 
  -5   3  -3  320.27    8.30 
   5   3   3  323.27    9.10 
   5   3   3  327.17    9.80 
  -5   3  -3  309.47    9.80 
   5   3   3  309.17    8.60 
  -5   3  -3  321.57    9.00 
   5   3   3  295.27   10.00 
  -7  -3  -3 1228.08   28.10 
  -7  -3  -3 1272.97   27.70 
  -7  -3  -3 1219.58   29.30 
  -7  -3  -3 1226.78   28.60 
  -7  -3  -3 1216.48   28.40 
   7  -3   3 1239.18   30.40 
   7  -3   3 1207.08   29.80 
   7  -3   3 1198.48   29.80 
   7   3   3 1245.88   29.10 
   7   3   3 1239.18   28.60 
   7   3   3 1196.98   30.90 
   7   3   3 1266.97   30.10 
  -7   3  -3 1235.38   28.10 
  -7   3  -3 1176.18   29.80 
  -7   3  -3 1217.48   28.90 
   7   3   3 1158.08   30.10 
   9  -3   3 1271.47   32.10 
  -9  -3  -3 1306.57   30.10 
  -9  -3  -3 1296.47   30.60 
  -9  -3  -3 1300.27   31.50 
   9  -3   3 1322.87   32.10 
  -9  -3  -3 1356.86   29.80 
   9  -3   3 1340.37   32.80 
   9   3   3 1216.78   32.10 
  -9   3  -3 1286.47   31.00 
   9   3   3 1326.77   31.30 
   9   3   3 1298.07   33.60 
   9   3   3 1310.77   30.70 
   9   3   3 1337.17   32.40 
   9   3   3 1320.17   30.60 
  -9   3  -3 1312.47   30.10 
  11  -3   3 1560.24   37.60 
 -11  -3  -3 1524.75   37.10 
 -11  -3  -3 1557.04   35.70 
  11  -3   3 1522.25   37.90 
 -11  -3  -3 1541.65   36.20 
  11  -3   3 1567.94   38.50 
 -11  -3  -3 1548.65   35.30 
  11   3   3 1540.45   40.00 
 -11   3  -3 1541.05   36.50 
  11   3   3 1549.24   36.10 
  11   3   3 1554.54   38.20 
 -11   3  -3 1546.95   35.60 
  11   3   3 1564.54   36.90 
  11   3   3 1556.84   36.30 
  13  -3   3  291.17   10.50 
  13  -3   3  298.57   11.50 
 -13  -3  -3  286.07    9.00 
 -13  -3  -3  279.27    8.00 
 -13  -3  -3  277.57    9.80 
  13  -3   3  285.67   10.80 
 -13  -3  -3  271.97    8.20 
  13   3   3  289.87   11.20 
  13   3   3  282.17    8.90 
 -13   3  -3  271.37    8.20 
  13   3   3  279.27    8.80 
  13   3   3  280.77    9.80 
 -13   3  -3  267.47    9.30 
  13   3   3  302.67   13.50 
  15  -3   3   10.30    4.20 
 -15  -3  -3    3.90    2.00 
  15  -3   3    7.90    3.60 
 -15  -3  -3    6.20    3.00 
  15  -3   3    5.90    3.40 
 -15  -3  -3    4.30    1.80 
 -15  -3  -3    9.90    2.70 
 -15   3  -3    5.10    2.70 
  15   3   3    5.20    2.30 
  15   3   3    8.00    3.90 
  15   3   3    7.60    3.10 
 -15   3  -3    6.40    2.10 
  15   3   3   -0.10    4.90 
  15   3   3    9.10    2.40 
 -17  -3  -3  191.68    6.70 
 -17  -3  -3  189.48    8.70 
  17  -3   3  185.78    9.40 
 -17  -3  -3  194.38    7.90 
  17  -3   3  178.88   10.30 
  17  -3   3  210.18   10.20 
  17   3   3  164.78   12.70 
  17   3   3  186.98   11.00 
  17   3   3  178.58    7.50 
  17   3   3  187.18    9.10 
 -17   3  -3  184.78    8.40 
 -17   3  -3  190.78    6.90 
 -19  -3  -3  758.12   20.10 
  19  -3   3  726.83   22.60 
 -19  -3  -3  727.63   20.80 
  19  -3   3  744.13   21.70 
 -19  -3  -3  748.13   20.50 
  19   3   3  798.72   26.00 
 -19   3  -3  727.93   20.80 
  19   3   3  738.13   21.80 
 -19   3  -3  708.33   19.00 
 -21  -3  -3  575.54   18.00 
  21   3   3  593.04   19.40 
 -21   3  -3  633.24   20.00 
  22  -4  -3   45.90    7.00 
 -22  -4   3   45.80    5.40 
  22  -4  -3   43.40    5.70 
 -22  -4   3   49.30    4.90 
 -22   4   3   47.60    6.30 
  22   4  -3   42.30    7.90 
 -20  -4   3  554.04   17.00 
 -20  -4   3  585.34   16.00 
 -20  -4   3  568.14   16.10 
 -20  -4   3  543.05   16.50 
 -20  -4   3  558.14   16.40 
  20  -4  -3  572.94   17.90 
  20  -4  -3  550.44   19.60 
  20  -4  -3  563.94   17.30 
 -20   4   3  571.54   16.20 
  20   4  -3  538.45   18.00 
  20   4  -3  544.65   18.50 
  20   4  -3  505.35   20.60 
 -20   4   3  534.35   16.30 
  18  -4  -3  866.01   25.90 
  18  -4  -3  893.01   23.60 
 -18  -4   3  886.61   22.50 
  18  -4  -3  879.71   26.40 
 -18  -4   3  901.51   22.20 
  18  -4  -3  872.81   22.30 
  18  -4  -3  867.61   24.30 
 -18  -4   3  889.71   22.00 
 -18  -4   3  895.51   22.70 
  18  -4  -3  871.51   24.00 
 -18  -4   3  890.61   23.00 
 -18   4   3  894.11   22.80 
  18   4  -3  767.02   26.70 
  18   4  -3  874.71   25.30 
 -18   4   3  892.11   23.20 
  18   4  -3  891.11   25.00 
 -16  -4   3  709.93   17.70 
  16  -4  -3  685.83   21.30 
 -16  -4   3  690.33   17.40 
 -16  -4   3  694.83   18.00 
  16  -4  -3  687.23   18.80 
  16  -4  -3  658.73   19.60 
  16  -4  -3  673.63   17.70 
  16  -4  -3  670.03   20.80 
 -16  -4   3  706.23   18.10 
  16  -4  -3  694.33   19.50 
 -16   4   3  687.33   18.80 
  16   4  -3  682.83   21.90 
  16   4  -3  659.73   20.50 
 -16   4   3  672.93   18.10 
  16   4  -3  680.53   20.40 
 -14  -4   3  178.28    6.20 
 -14  -4   3  178.18    6.70 
 -14  -4   3  171.58    7.00 
 -14  -4   3  181.98    7.10 
 -14  -4   3  180.28    7.10 
  14  -4  -3  177.18    8.20 
  14  -4  -3  184.98    6.50 
  14  -4  -3  168.48    8.10 
  14  -4  -3  176.08    9.10 
  14  -4  -3  169.28    8.90 
  14   4  -3  184.18    9.40 
 -14   4   3  184.68    7.70 
 -14   4   3  161.78    6.70 
  14   4  -3  182.88    6.90 
  14   4  -3  167.48    8.70 
 -14   4   3  184.98    7.60 
  14   4  -3  170.18    8.80 
 -12  -4   3   33.90    3.20 
  12  -4  -3   28.40    4.00 
 -12  -4   3   37.40    3.40 
  12  -4  -3   34.50    4.00 
  12  -4  -3   41.10    5.30 
 -12  -4   3   36.40    3.10 
  12  -4  -3   32.00    3.20 
 -12  -4   3   29.90    3.30 
  12  -4  -3   32.40    3.90 
 -12   4   3   38.50    4.20 
  12   4  -3   36.00    5.00 
 -12   4   3   39.00    4.40 
  12   4  -3   33.80    4.30 
  12   4  -3   33.30    3.60 
 -12   4   3   29.40    2.80 
  12   4  -3   39.40    5.00 
  10  -4  -3  668.43   16.40 
 -10  -4   3  663.53   16.80 
 -10  -4   3  659.63   16.70 
  10  -4  -3  654.63   18.60 
 -10  -4   3  650.03   16.80 
  10  -4  -3  651.53   18.30 
  10  -4  -3  656.03   17.70 
 -10  -4   3  673.03   16.40 
 -10   4   3  681.13   17.50 
  10   4  -3  628.34   17.50 
 -10   4   3  652.53   17.60 
  10   4  -3  659.13   16.80 
  10   4  -3  659.53   18.20 
 -10   4   3  598.74   15.90 
  10   4  -3  667.83   17.80 
  -8  -4   3 1862.31   41.40 
  -8  -4   3 1778.22   41.80 
   8  -4  -3 1807.42   42.50 
   8  -4  -3 1836.62   41.40 
  -8  -4   3 1806.52   41.60 
   8  -4  -3 1777.02   42.90 
   8   4  -3 1846.82   42.70 
  -8   4   3 1824.52   42.70 
  -8   4   3 1761.12   40.80 
   8   4  -3 1824.92   42.20 
  -8   4   3 1827.32   42.50 
   8   4  -3 1788.52   41.80 
   8   4  -3 1731.93   41.90 
   6  -4  -3 1818.42   40.70 
  -6  -4   3 1761.02   40.70 
   6  -4  -3 1788.52   41.60 
  -6  -4   3 1795.02   40.70 
   6  -4  -3 1773.02   40.70 
   6  -4  -3 1791.12   42.00 
   6   4  -3 1730.43   40.80 
  -6   4   3 1783.52   42.00 
   6   4  -3 1814.92   41.40 
  -6   4   3 1807.22   41.90 
   6   4  -3 1724.23   40.90 
   6   4  -3 1783.32   41.20 
   4  -4  -3  708.13   16.50 
   4  -4  -3  692.03   17.40 
  -4  -4   3  668.63   16.90 
   4  -4  -3  704.93   16.80 
  -4  -4   3  702.83   16.70 
  -4   4   3  687.33   18.10 
  -4   4   3  684.93   18.30 
   4   4  -3  676.73   17.20 
   4   4  -3  683.53   16.90 
  -4   4   3  693.03   17.90 
   4   4  -3  671.73   16.60 
   2  -4  -3   17.60    2.10 
  -2  -4   3   15.70    2.00 
   2  -4  -3   17.90    2.00 
  -2  -4   3   19.50    1.90 
  -2  -4   3   25.20    2.50 
   2  -4  -3   17.60    2.30 
  -2   4   3   17.40    2.60 
   2   4  -3   19.70    2.30 
   2   4  -3   19.40    1.90 
   2   4  -3   19.30    2.00 
  -2   4   3   18.70    2.60 
  -2   4   3   19.70    2.60 
  -2   4   3   27.80    3.10 
   2   4  -3   17.10    1.90 
   0  -4  -3  360.66    9.90 
   0  -4   3  356.36   10.20 
   0  -4  -3  361.36    9.90 
   0  -4  -3  361.06    9.10 
   0  -4   3  358.66   10.20 
   0   4   3  361.36   10.90 
   0   4  -3  349.57   10.00 
   0   4   3  357.56   10.90 
   0   4   3  373.26   10.90 
   0   4  -3  352.06    9.30 
   0   4   3  359.36   10.30 
  -2  -4  -3 1365.56   31.90 
   2  -4   3 1341.27   32.20 
   2  -4   3 1318.87   32.40 
  -2  -4  -3 1349.27   31.60 
  -2  -4  -3 1352.96   30.80 
   2   4   3 1310.97   32.60 
  -2   4  -3 1369.46   31.10 
   2   4   3 1370.26   33.00 
  -2   4  -3 1343.67   31.80 
   2   4   3 1357.16   31.70 
   2   4   3 1404.56   33.00 
   2   4   3 1353.06   32.10 
  -4  -4  -3 2231.68   51.19 
  -4  -4  -3 2257.87   51.59 
   4  -4   3 2221.28   52.49 
  -4  -4  -3 2263.27   50.39 
  -4  -4  -3 2274.67   50.39 
   4  -4   3 2213.18   51.99 
   4   4   3 2250.37   51.19 
   4   4   3 2143.89   52.09 
   4   4   3 2329.77   52.69 
  -4   4  -3 2257.67   50.59 
  -4   4  -3 2269.57   51.49 
   4   4   3 2187.38   52.79 
   4   4   3 2253.27   51.69 
  -6  -4  -3 1470.25   33.30 
  -6  -4  -3 1464.05   34.20 
  -6  -4  -3 1481.65   34.80 
  -6  -4  -3 1461.15   33.60 
   6  -4   3 1462.35   35.80 
   6  -4   3 1431.76   35.20 
   6   4   3 1477.95   34.20 
   6   4   3 1471.85   34.70 
   6   4   3 1385.86   35.00 
   6   4   3 1416.66   36.20 
  -6   4  -3 1461.95   33.60 
   6   4   3 1512.45   35.80 
  -6   4  -3 1497.65   34.50 
  -8  -4  -3  187.38    6.50 
  -8  -4  -3  188.78    6.20 
  -8  -4  -3  191.18    5.80 
   8  -4   3  193.48    7.80 
  -8  -4  -3  190.28    7.20 
   8  -4   3  199.98    8.40 
   8   4   3  196.08    6.60 
   8   4   3  181.98    9.00 
   8   4   3  181.08    7.30 
   8   4   3  189.68    7.20 
  -8   4  -3  196.68    6.10 
  -8   4  -3  185.68    6.90 
   8   4   3  195.98    8.10 
  10  -4   3  122.19    7.20 
 -10  -4  -3  111.99    4.40 
 -10  -4  -3  112.09    5.10 
 -10  -4  -3  115.79    5.90 
  10  -4   3  113.99    6.60 
 -10  -4  -3  119.69    5.00 
  10   4   3  116.09    5.30 
  10   4   3  113.99    5.20 
  10   4   3  117.79    6.80 
  10   4   3  111.09    5.90 
 -10   4  -3  118.99    4.70 
 -10   4  -3  115.59    5.60 
  10   4   3  104.39    8.10 
 -12  -4  -3  669.73   16.60 
 -12  -4  -3  665.33   18.40 
  12  -4   3  674.43   19.70 
  12  -4   3  680.23   19.00 
 -12  -4  -3  674.63   17.30 
  12   4   3  657.43   21.50 
 -12   4  -3  670.03   16.70 
  12   4   3  675.23   17.60 
 -12   4  -3  642.34   17.80 
  12   4   3  672.73   19.90 
  12   4   3  668.13   18.40 
  12   4   3  660.43   17.40 
 -14  -4  -3  954.70   23.10 
  14  -4   3  954.30   25.40 
 -14  -4  -3  975.60   23.80 
 -14  -4  -3  942.91   24.90 
  14  -4   3  960.40   26.50 
  14   4   3  956.30   25.20 
 -14   4  -3  950.60   23.20 
  14   4   3  964.80   27.00 
  14   4   3  929.01   24.00 
  14   4   3  918.71   28.70 
  14   4   3  942.31   23.90 
 -14   4  -3  934.31   24.40 
  16  -4   3  747.83   21.50 
 -16  -4  -3  760.62   21.00 
  16  -4   3  767.62   22.80 
 -16  -4  -3  774.02   19.90 
  16   4   3  748.73   20.10 
 -16   4  -3  755.82   20.70 
  16   4   3  744.23   25.70 
  16   4   3  746.93   23.60 
  16   4   3  732.13   20.00 
  16   4   3  739.13   21.50 
 -16   4  -3  774.42   19.30 
  18  -4   3  225.08   10.70 
 -18  -4  -3  216.08    8.70 
 -18  -4  -3  219.38    9.80 
  18   4   3  217.58   10.60 
  18   4   3  206.28    9.00 
 -18   4  -3  221.28    8.00 
  18   4   3  210.58    8.90 
 -18   4  -3  220.18    9.90 
  18   4   3  189.68   14.10 
  20  -4   3    4.70    4.40 
 -20  -4  -3    2.90    3.80 
  20   4   3    0.10    4.20 
 -21  -5   3  384.66   15.20 
 -21   5   3  408.26   13.60 
  21   5  -3  323.17   17.30 
 -19  -5   3   74.19    6.30 
  19  -5  -3   71.99    6.90 
  19  -5  -3   67.39    9.10 
 -19  -5   3   75.09    6.80 
 -19  -5   3   81.19    7.30 
  19  -5  -3   90.09    7.60 
 -19   5   3   76.59    6.90 
 -19   5   3   68.29    6.30 
  19   5  -3   69.19    8.60 
  19   5  -3   61.99    7.20 
  17  -5  -3   66.99    4.90 
 -17  -5   3   73.99    6.80 
 -17  -5   3   74.49    5.50 
 -17  -5   3   78.39    6.00 
 -17  -5   3   68.29    6.20 
 -17  -5   3   76.39    6.70 
  17  -5  -3   68.69    6.70 
  17  -5  -3   66.29    7.00 
 -17  -5   3   70.09    5.90 
  17  -5  -3   71.79   11.40 
  17  -5  -3   67.69    8.30 
  17  -5  -3   76.19    6.50 
  17   5  -3   61.29    7.60 
 -17   5   3   57.09    5.50 
  17   5  -3   55.49    6.70 
  17   5  -3   61.19    7.40 
 -17   5   3   73.99    6.50 
 -15  -5   3  368.96   11.10 
  15  -5  -3  352.96   10.60 
  15  -5  -3  352.76   13.80 
 -15  -5   3  356.36   11.10 
 -15  -5   3  355.56   10.70 
  15  -5  -3  350.06   12.60 
 -15  -5   3  340.57    9.90 
  15  -5  -3  343.37   14.00 
 -15  -5   3  344.07   11.30 
  15  -5  -3  349.27   12.40 
 -15   5   3  359.36   12.20 
  15   5  -3  339.67   13.20 
 -15   5   3  373.26   12.30 
 -15   5   3  333.77   10.70 
  15   5  -3  329.67   13.20 
  15   5  -3  330.87   13.50 
  13  -5  -3  876.01   21.70 
 -13  -5   3  877.41   22.00 
 -13  -5   3  895.91   22.10 
 -13  -5   3  902.51   21.70 
 -13  -5   3  849.61   22.30 
  13  -5  -3  878.51   24.70 
  13  -5  -3  866.91   25.00 
  13  -5  -3  887.01   23.60 
  13  -5  -3  880.61   23.60 
 -13   5   3  853.81   21.80 
  13   5  -3  874.51   23.90 
 -13   5   3  885.11   23.30 
 -13   5   3  897.01   23.40 
  13   5  -3  847.62   22.20 
  13   5  -3  849.02   24.20 
  13   5  -3  831.22   23.70 
 -11  -5   3  958.50   24.30 
  11  -5  -3  991.10   26.30 
  11  -5  -3  988.90   26.70 
  11  -5  -3  963.70   23.70 
 -11  -5   3 1017.10   23.80 
 -11  -5   3 1011.50   24.20 
  11  -5  -3  979.50   25.30 
 -11  -5   3  975.60   24.20 
  11   5  -3  888.71   24.90 
  11   5  -3  972.00   24.30 
 -11   5   3  987.20   25.30 
  11   5  -3  999.10   25.30 
  11   5  -3  982.60   25.80 
 -11   5   3  961.90   25.20 
  -9  -5   3  664.93   16.70 
   9  -5  -3  642.24   18.20 
  -9  -5   3  634.24   16.20 
   9  -5  -3  628.64   16.00 
  -9  -5   3  633.64   16.80 
   9  -5  -3  634.54   17.50 
   9   5  -3  645.14   17.50 
  -9   5   3  644.24   17.70 
   9   5  -3  617.64   16.90 
   9   5  -3  614.14   16.60 
  -9   5   3  643.64   17.60 
   7  -5  -3   19.90    3.10 
   7  -5  -3   22.30    2.30 
   7  -5  -3   21.80    3.00 
  -7  -5   3   19.70    2.70 
  -7  -5   3   19.00    2.40 
   7   5  -3   19.70    2.40 
  -7   5   3   22.60    3.20 
   7   5  -3   19.60    2.60 
  -7   5   3   30.90    3.50 
   7   5  -3   18.70    2.70 
   5  -5  -3  741.83   17.70 
   5  -5  -3  748.13   18.80 
  -5  -5   3  718.53   18.00 
  -5  -5   3  691.73   20.60 
   5   5  -3  729.43   18.50 
  -5   5   3  749.53   19.50 
  -5   5   3  730.83   19.50 
  -5   5   3  750.22   20.30 
   5   5  -3  711.93   17.90 
   5   5  -3  711.83   18.20 
   3  -5  -3 1183.98   27.00 
   3  -5  -3 1164.58   27.50 
  -3  -5   3 1151.88   27.30 
   3  -5  -3 1181.28   28.10 
  -3  -5   3 1150.58   27.80 
   3   5  -3 1125.49   27.30 
  -3   5   3 1151.98   29.00 
  -3   5   3 1189.68   29.60 
  -3   5   3 1184.98   29.00 
   3   5  -3 1167.98   28.10 
   1  -5  -3 1361.56   31.90 
  -1  -5   3 1355.26   31.20 
   1  -5  -3 1339.17   30.80 
   1  -5  -3 1349.07   31.60 
  -1  -5   3 1328.37   31.90 
  -1   5   3 1355.36   33.00 
  -1   5   3 1312.77   32.50 
   1   5  -3 1318.47   31.20 
  -1   5   3 1329.47   32.80 
  -1   5   3 1361.56   33.30 
   1   5  -3 1357.76   32.00 
   1  -5   3 1124.89   27.70 
  -1  -5  -3 1126.49   27.30 
  -1  -5  -3 1160.48   27.30 
   1  -5   3 1133.89   27.70 
  -1  -5  -3 1129.79   26.20 
   1   5   3 1115.39   27.90 
   1   5   3 1185.18   28.90 
   1   5   3 1128.39   27.30 
  -1   5  -3 1118.89   26.60 
   1   5   3 1135.79   28.30 
  -1   5  -3 1161.98   27.60 
   1   5   3 1116.69   28.60 
  -3  -5  -3   65.29    4.00 
  -3  -5  -3   58.39    2.90 
  -3  -5  -3   61.69    3.90 
   3  -5   3   62.09    4.70 
   3  -5   3   59.09    4.50 
   3   5   3   64.19    5.20 
  -3   5  -3   59.69    3.40 
   3   5   3   60.29    4.40 
  -3   5  -3   61.59    4.20 
   3   5   3   63.59    3.90 
   3   5   3   56.49    4.50 
   3   5   3   68.79    5.40 
  -5  -5  -3  122.19    4.20 
  -5  -5  -3  117.99    5.20 
   5  -5   3  123.29    6.30 
  -5  -5  -3  125.59    5.70 
   5  -5   3  113.79    6.30 
  -5   5  -3  120.69    5.60 
   5   5   3  122.09    5.90 
   5   5   3  119.99    6.80 
  -5   5  -3  115.59    4.70 
   5   5   3  121.99    5.30 
   5   5   3  110.69    5.70 
   5   5   3  127.09    7.00 
  -7  -5  -3  601.14   15.80 
   7  -5   3  591.74   16.90 
  -7  -5  -3  616.84   16.50 
  -7  -5  -3  601.74   14.70 
   7  -5   3  590.54   17.50 
   7   5   3  615.94   17.80 
   7   5   3  587.14   18.00 
   7   5   3  596.24   15.80 
  -7   5  -3  603.84   15.10 
   7   5   3  601.94   16.60 
  -7   5  -3  582.04   16.00 
   9  -5   3 1112.89   28.30 
  -9  -5  -3 1111.59   27.10 
  -9  -5  -3 1123.69   26.00 
  -9  -5  -3 1113.99   26.50 
  -9  -5  -3 1117.29   27.90 
   9  -5   3 1116.79   29.20 
   9   5   3 1113.89   27.90 
   9   5   3 1113.69   27.10 
   9   5   3 1109.29   29.20 
  -9   5  -3 1105.99   26.30 
  -9   5  -3 1056.49   27.20 
   9   5   3 1078.59   29.90 
 -11  -5  -3  678.73   18.10 
 -11  -5  -3  695.53   17.00 
 -11  -5  -3  695.33   19.10 
  11  -5   3  699.43   20.40 
  11  -5   3  682.53   19.50 
 -11  -5  -3  696.83   17.60 
  11   5   3  684.53   20.50 
 -11   5  -3  668.93   18.40 
 -11   5  -3  681.83   17.30 
  11   5   3  677.63   19.10 
  11   5   3  653.73   21.50 
  11   5   3  692.43   18.20 
 -13  -5  -3  237.08    9.70 
 -13  -5  -3  247.18    8.40 
 -13  -5  -3  231.88    7.60 
  13  -5   3  241.28   11.00 
 -13  -5  -3  232.78    8.70 
  13  -5   3  241.08   10.30 
  13   5   3  234.78    9.80 
  13   5   3  233.78   12.80 
  13   5   3  242.98    9.00 
  13   5   3  242.58    9.00 
 -13   5  -3  242.78    9.30 
 -13   5  -3  248.58    8.00 
  13   5   3  235.48   11.40 
 -15  -5  -3    2.10    3.40 
  15  -5   3   -0.20    3.80 
  15  -5   3    3.40    3.70 
 -15  -5  -3   -0.80    2.20 
 -15  -5  -3   -0.30    2.50 
  15   5   3    0.40    2.70 
  15   5   3   -0.20    5.10 
  15   5   3    1.30    2.70 
 -15   5  -3    1.10    2.20 
  15   5   3   -0.30    3.30 
 -15   5  -3    0.20    3.20 
 -17  -5  -3  208.08    8.50 
  17  -5   3  205.28   10.30 
 -17  -5  -3  201.98    9.60 
  17   5   3  219.18   20.80 
  17   5   3  186.78   10.30 
  17   5   3  186.58    8.80 
 -18  -6   3  566.94   19.90 
  18  -6  -3  600.84   21.70 
 -18   6   3  592.74   18.40 
  16  -6  -3  344.37   14.80 
  16  -6  -3  354.76   13.40 
 -16  -6   3  360.76   11.60 
 -16  -6   3  342.47   13.10 
 -16  -6   3  336.67   11.90 
  16   6  -3  349.77   14.10 
 -16   6   3  350.66   13.00 
 -14  -6   3  126.09    8.10 
 -14  -6   3  134.59    6.80 
 -14  -6   3  127.69    7.10 
  14  -6  -3  126.99    6.00 
  14  -6  -3  129.19    8.40 
 -14  -6   3  133.89    7.00 
  14  -6  -3  130.19    8.20 
 -14  -6   3  135.99    7.70 
  14  -6  -3  128.79    9.40 
 -14   6   3  137.09    8.10 
  14   6  -3  132.89    8.40 
  14   6  -3  123.89    8.60 
 -14   6   3  133.59    8.20 
  12  -6  -3   22.50    4.10 
  12  -6  -3   18.10    4.60 
 -12  -6   3   18.40    2.90 
 -12  -6   3   25.80    2.50 
  12  -6  -3   18.10    2.70 
 -12  -6   3   20.90    3.60 
  12  -6  -3   19.50    4.40 
 -12  -6   3   29.40    3.60 
 -12  -6   3   22.30    3.40 
 -12   6   3   22.10    4.00 
 -12   6   3   20.80    3.90 
  12   6  -3   16.90    3.60 
  12   6  -3   18.90    3.20 
  12   6  -3   24.50    4.30 
  10  -6  -3  431.56   13.60 
 -10  -6   3  431.66   12.60 
  10  -6  -3  430.06   14.60 
 -10  -6   3  443.46   12.50 
  10  -6  -3  422.56   11.80 
 -10  -6   3  432.86   12.00 
 -10  -6   3  415.26   12.70 
  10   6  -3  409.96   12.90 
 -10   6   3  423.46   13.90 
 -10   6   3  421.86   13.80 
  10   6  -3  408.76   12.50 
  10   6  -3  419.56   13.40 
   8  -6  -3  855.01   22.50 
   8  -6  -3  870.81   23.50 
   8  -6  -3  857.81   21.00 
  -8  -6   3  871.71   21.60 
  -8  -6   3  879.51   21.30 
  -8  -6   3  863.31   22.00 
  -8   6   3  846.52   23.10 
   8   6  -3  833.62   22.10 
   8   6  -3  831.62   21.70 
   8   6  -3  840.52   21.80 
  -8   6   3  880.41   23.20 
  -6  -6   3 1026.40   25.90 
   6  -6  -3 1059.49   26.30 
  -6  -6   3 1053.49   25.20 
   6  -6  -3 1013.80   24.90 
   6  -6  -3 1065.19   27.20 
  -6   6   3 1092.29   27.30 
   6   6  -3 1024.90   25.90 
  -6   6   3 1068.09   27.20 
   6   6  -3 1020.30   25.70 
   4  -6  -3  361.46   10.90 
  -4  -6   3  352.56   10.90 
   4  -6  -3  359.66    9.70 
  -4  -6   3  345.87   10.10 
  -4   6   3  358.46   12.70 
   4   6  -3  345.97   10.70 
  -4   6   3  365.66   12.00 
  -4   6   3  354.96   11.90 
   2  -6  -3    6.60    1.60 
   2  -6  -3    8.30    2.30 
  -2  -6   3    7.50    2.10 
  -2   6   3   11.00    3.20 
  -2   6   3    8.10    2.90 
  -2   6   3   13.00    3.10 
   2   6  -3    5.90    2.20 
   0  -6  -3  157.98    6.30 
   0  -6  -3  148.69    5.00 
   0  -6  -3  158.88    6.10 
   0  -6   3  151.58    5.80 
   0  -6   3  158.48    6.60 
   0   6  -3  148.59    5.60 
   0   6   3  153.18    7.90 
   0   6   3  150.58    7.10 
   0   6   3  158.88    7.70 
   0   6  -3  156.68    6.50 
   0   6   3  151.08    7.30 
  -2  -6  -3  856.81   20.20 
   2  -6   3  871.11   22.20 
  -2  -6  -3  861.81   21.60 
  -2  -6  -3  867.31   21.60 
   2  -6   3  840.12   22.20 
  -2   6  -3  838.72   20.70 
   2   6   3  856.81   22.50 
   2   6   3  899.11   23.70 
   2   6   3  824.52   22.50 
  -2   6  -3  833.52   21.70 
   2   6   3  838.32   21.60 
   2   6   3  851.11   23.20 
   4  -6   3 1082.69   27.70 
  -4  -6  -3 1104.69   27.00 
  -4  -6  -3 1104.89   26.70 
   4  -6   3 1073.39   27.50 
  -4  -6  -3 1077.19   25.20 
   4   6   3 1101.49   27.60 
  -4   6  -3 1078.19   26.90 
  -4   6  -3 1065.69   25.80 
   4   6   3 1102.09   28.80 
   4   6   3 1040.70   27.30 
   4   6   3 1052.19   28.40 
   4   6   3 1084.19   26.70 
  -6  -6  -3  795.12   18.80 
  -6  -6  -3  793.22   20.80 
   6  -6   3  775.02   21.30 
   6  -6   3  761.42   21.60 
  -6  -6  -3  791.42   20.30 
   6   6   3  770.92   22.30 
   6   6   3  803.82   21.30 
  -6   6  -3  741.43   20.30 
   6   6   3  798.62   20.40 
   6   6   3  813.32   22.50 
  -6   6  -3  780.62   19.40 
  -8  -6  -3  117.29    4.70 
  -8  -6  -3  120.89    6.70 
   8  -6   3  139.39    7.70 
   8  -6   3  126.09    7.70 
  -8  -6  -3  131.59    6.20 
   8   6   3  122.19    6.20 
   8   6   3  135.39    8.50 
   8   6   3  121.79    8.10 
   8   6   3  123.39    7.10 
  -8   6  -3  129.49    5.40 
  -8   6  -3  106.79    6.30 
  10  -6   3   89.19    7.50 
 -10  -6  -3   89.99    6.40 
 -10  -6  -3   86.79    4.20 
  10  -6   3   93.19    7.20 
 -10  -6  -3   91.69    5.60 
 -10   6  -3   89.49    4.90 
  10   6   3   91.39    5.90 
  10   6   3   89.79    7.80 
  10   6   3   95.89    6.80 
 -10   6  -3   76.89    5.70 
  10   6   3   94.29    8.30 
  12  -6   3  336.67   12.60 
 -12  -6  -3  332.47   12.00 
 -12  -6  -3  318.87   11.00 
  12  -6   3  325.47   13.20 
  12   6   3  345.27   11.40 
  12   6   3  326.67   12.30 
  12   6   3  340.87   14.60 
 -12   6  -3  322.57   10.10 
 -14  -6  -3  585.14   18.10 
  14  -6   3  611.94   18.90 
  14   6   3  568.24   18.40 
  14   6   3  625.74   24.80 
  14   6   3  601.94   18.70 
 -13  -7   3  364.46   13.70 
  13  -7  -3  375.86   15.20 
  13   7  -3  370.86   13.50 
 -13   7   3  381.06   13.90 
 -11  -7   3  593.64   16.30 
  11  -7  -3  597.34   19.20 
 -11  -7   3  589.74   16.20 
 -11  -7   3  571.44   16.60 
  11  -7  -3  591.04   17.80 
 -11  -7   3  535.15   17.80 
  11   7  -3  575.74   17.50 
  11   7  -3  585.94   16.60 
 -11   7   3  582.34   18.20 
  -9  -7   3  332.17   10.80 
  -9  -7   3  337.67   10.30 
   9  -7  -3  331.97   11.90 
   9  -7  -3  347.77   13.10 
  -9  -7   3  328.07   11.20 
  -9  -7   3  331.17   10.90 
  -9   7   3  320.77   12.50 
   9   7  -3  328.77   11.00 
  -9   7   3  334.87   12.50 
  -7  -7   3    3.20    2.30 
   7  -7  -3    1.90    2.20 
   7  -7  -3    3.40    2.80 
   7  -7  -3    4.00    3.40 
  -7  -7   3    1.40    2.70 
  -7   7   3    8.20    3.40 
  -7   7   3    2.10    3.20 
   7   7  -3    1.60    2.40 
   5  -7  -3  258.57   10.40 
   5  -7  -3  267.87    9.40 
  -5  -7   3  247.08    9.00 
   5  -7  -3  232.68    7.60 
  -5  -7   3  254.57    8.40 
  -5   7   3  253.47   10.40 
  -5   7   3  249.18   10.40 
   5   7  -3  240.68    8.90 
  -3  -7   3  628.44   17.60 
   3  -7  -3  641.64   16.20 
   3  -7  -3  649.74   17.80 
  -3  -7   3  663.93   16.90 
  -3   7   3  636.04   18.90 
  -3   7   3  652.43   20.10 
  -3   7   3  665.83   19.40 
   3   7  -3  653.03   17.70 
  -1  -7   3  699.33   19.70 
   1  -7  -3  722.93   17.60 
  -1  -7   3  725.33   18.30 
   1  -7  -3  733.33   19.20 
  -1   7   3  706.33   20.70 
  -1   7   3  719.33   21.40 
   1   7  -3  716.83   19.20 
  -1   7   3  702.93   20.20 
  -1  -7  -3  452.55   11.80 
   1  -7   3  454.65   13.80 
   1  -7   3  458.15   12.70 
  -1  -7  -3  459.05   13.50 
   1   7   3  466.95   15.70 
   1   7   3  460.25   15.10 
  -1   7  -3  448.46   12.50 
  -1   7  -3  447.66   13.40 
   1   7   3  450.05   14.30 
   1   7   3  443.36   14.50 
  -3  -7  -3   75.09    5.10 
  -3  -7  -3   65.69    5.00 
   3  -7   3   59.39    5.70 
  -3  -7  -3   60.39    3.50 
  -3   7  -3   61.99    4.20 
  -3   7  -3   60.19    5.10 
   3   7   3   58.29    6.70 
   3   7   3   64.89    6.00 
   3   7   3   60.09    6.30 
   3   7   3   60.99    5.10 
  -5  -7  -3   85.29    5.60 
   5  -7   3   81.29    6.60 
  -5  -7  -3   79.59    5.60 
   5  -7   3   80.89    7.70 
   5   7   3   77.39    5.40 
  -5   7  -3   72.29    4.60 
  -5   7  -3   73.59    6.50 
   5   7   3   76.09    6.50 
   5   7   3   78.69    7.20 
   7  -7   3  338.07   12.50 
  -7  -7  -3  344.17   11.70 
  -7  -7  -3  345.47   11.70 
   7  -7   3  334.97   12.70 
  -7   7  -3  335.97   10.20 
   7   7   3  346.77   12.40 
   7   7   3  326.57   11.10 
   7   7   3  327.47   13.20 
   9  -7   3  461.25   16.60 
  -9  -7  -3  489.15   15.20 
   9  -7   3  486.15   15.90 
   9   7   3  478.95   14.50 
   9   7   3  481.05   17.70 
   9   7   3  466.95   15.60 
  -9   7  -3  475.35   13.30 
 -11  -7  -3  439.26   14.60 
  11  -7   3  432.06   15.40 
  11   7   3  435.96   15.20 
  -8  -8   3  415.66   14.80 
  -8   8   3  483.95   17.20 
   6  -8  -3  393.96   14.30 
  -6  -8   3  333.27   12.70 
  -6  -8   3  384.76   12.30 
   6   8  -3  389.76   12.40 
  -6   8   3  388.16   14.10 
   4  -8  -3  202.48   10.10 
  -4  -8   3  203.98    8.50 
   4   8  -3  200.88    8.50 
  -4   8   3  206.88    9.90 
  -2  -8   3    3.10    2.80 
   2   8  -3    5.90    2.80 
  -2   8   3   10.00    3.70 
   0   8   3  105.79    7.30 
   2  -8   3  340.07   12.00 
  -2   8  -3  319.77   10.10 
   2   8   3  318.17   12.60 
   4  -8   3  606.74   18.10 
  -4   8  -3  579.44   17.60 
   4   8   3  584.14   18.60 
  -6  -8  -3  379.66   12.70 
   6  -8   3  348.37   15.30 
  24   0  -4  208.48   12.30 
 -22   0   4    3.00    3.20 
  22   0  -4    5.30    4.00 
  22   0  -4    0.80    4.00 
 -22   0   4    1.20    3.40 
  22   0  -4    3.90    4.70 
 -22   0   4    2.20    3.00 
  20   0  -4  352.96   13.20 
  20   0  -4  320.07   13.70 
  20   0  -4  351.96   15.30 
  20   0  -4  331.67   13.00 
 -20   0   4  347.97   11.10 
 -20   0   4  341.07   11.50 
 -20   0   4  343.17   10.70 
  18   0  -4  711.63   20.70 
  18   0  -4  653.13   20.70 
 -18   0   4  679.73   18.00 
  18   0  -4  693.43   20.40 
  18   0  -4  654.73   20.00 
 -18   0   4  697.73   17.70 
 -18   0   4  688.73   18.50 
  16   0  -4 1283.87   33.70 
  16   0  -4 1259.87   33.30 
 -16   0   4 1310.67   30.90 
 -16   0   4 1295.67   30.50 
 -16   0   4 1285.07   31.30 
  16   0  -4 1370.16   33.60 
  16   0  -4 1226.58   33.10 
 -14   0   4 1322.37   30.80 
 -14   0   4 1310.27   31.50 
  14   0  -4 1281.17   33.30 
  14   0  -4 1308.37   34.00 
  14   0  -4 1275.17   33.40 
  14   0  -4 1419.76   33.80 
 -14   0   4 1294.27   30.70 
 -14   0   4 1325.47   31.00 
 -12   0   4  151.68    5.30 
 -12   0   4  144.89    5.40 
 -12   0   4  141.59    5.50 
 -12   0   4  141.29    5.10 
  12   0  -4  132.29    7.00 
  12   0  -4  159.88    7.50 
  12   0  -4  154.68    7.80 
  12   0  -4  142.59    4.90 
 -12   0   4  152.08    6.00 
  12   0  -4  142.79    7.10 
 -10   0   4  146.09    5.00 
  10   0  -4  147.99    6.80 
  10   0  -4  136.79    6.70 
 -10   0   4  142.89    4.90 
  10   0  -4  151.08    6.60 
 -10   0   4  143.79    4.80 
 -10   0   4  150.38    5.60 
 -10   0   4  152.68    5.60 
  10   0  -4  139.09    4.70 
  10   0  -4  146.79    7.00 
  -8   0   4 1818.02   41.40 
  -8   0   4 1812.52   40.80 
  -8   0   4 1710.73   40.60 
   8   0  -4 1850.61   42.10 
   8   0  -4 1834.42   40.90 
   8   0  -4 1859.61   42.80 
  -8   0   4 1784.22   40.90 
  -8   0   4 1821.22   42.00 
   8   0  -4 1812.82   42.70 
   8   0  -4 1798.12   42.20 
   8   0  -4 1783.12   42.90 
   6   0  -4 2310.47   53.09 
   6   0  -4 2388.76   52.89 
  -6   0   4 2333.27   53.19 
   6   0  -4 2428.96   53.49 
   6   0  -4 2397.96   54.29 
   6   0  -4 2393.76   54.29 
  -6   0   4 2304.37   52.69 
   6   0  -4 2437.16   54.19 
   6   0  -4 2373.66   54.59 
  -6   0   4 2225.78   52.69 
  -6   0   4 2343.57   54.09 
   4   0  -4 1728.63   40.10 
  -4   0   4 1736.63   40.20 
   4   0  -4 1724.43   41.20 
  -4   0   4 1791.42   41.60 
  -4   0   4 1789.92   39.80 
   4   0  -4 1777.92   41.30 
   4   0  -4 1811.82   41.00 
  -4   0   4 1699.13   40.10 
   4   0  -4 1837.62   40.70 
   4   0  -4 1810.72   40.00 
  -2   0   4 1777.82   40.70 
  -2   0   4 1793.32   39.80 
   2   0  -4 1815.52   40.40 
   2   0  -4 1791.02   40.20 
  -2   0   4 1778.32   40.00 
   2   0  -4 1730.43   41.40 
   2   0  -4 1794.22   41.20 
   2   0  -4 1801.92   40.80 
  -2   0   4 1790.42   42.10 
   2   0  -4 1737.23   40.20 
   0   0   4  103.49    3.40 
   0   0  -4  100.79    3.30 
   0   0   4  108.79    4.50 
   0   0  -4  107.69    4.20 
   0   0  -4  101.09    4.70 
   0   0  -4  110.79    3.60 
   0   0  -4  103.29    3.70 
   0   0   4  105.49    5.60 
  -2   0  -4 1621.04   37.10 
   2   0   4 1659.83   38.30 
  -2   0  -4 1590.94   38.40 
   2   0   4 1659.23   37.10 
  -2   0  -4 1590.34   37.30 
   2   0   4 1657.73   39.30 
  -2   0  -4 1653.33   37.20 
  -2   0  -4 1657.43   36.70 
  -4   0  -4 1313.77   31.70 
   4   0   4 1377.76   33.00 
   4   0   4 1319.97   32.00 
   4   0   4 1345.77   30.70 
  -4   0  -4 1302.87   30.20 
  -4   0  -4 1332.47   30.60 
  -4   0  -4 1333.97   29.90 
  -4   0  -4 1283.57   30.30 
   4   0   4 1320.27   30.50 
   6   0   4 2207.98   50.99 
  -6   0  -4 2176.78   47.50 
   6   0   4 2193.88   48.60 
   6   0   4 2126.09   50.09 
  -6   0  -4 2170.38   48.40 
  -6   0  -4 2149.88   49.50 
  -6   0  -4 1862.21   48.80 
   8   0   4  913.01   24.60 
   8   0   4  925.81   23.00 
   8   0   4  935.31   25.20 
  -8   0  -4  936.61   21.50 
  -8   0  -4  949.01   22.50 
  -8   0  -4  954.50   23.70 
 -10   0  -4   89.09    4.50 
  10   0   4   92.49    7.10 
 -10   0  -4   95.69    5.60 
  10   0   4   92.19    5.30 
  10   0   4   86.89    7.30 
 -10   0  -4   88.09    3.30 
  12   0   4  152.58    7.30 
  12   0   4  145.49    9.10 
  12   0   4  128.29    8.50 
 -12   0  -4  135.69    5.00 
 -12   0  -4  132.49    6.80 
 -12   0  -4  138.39    6.00 
  14   0   4 1019.90   27.30 
 -14   0  -4 1015.00   24.60 
 -14   0  -4 1007.70   25.60 
  14   0   4 1100.09   28.80 
 -14   0  -4 1010.60   26.50 
  14   0   4  990.00   28.70 
  16   0   4  924.91   26.80 
 -16   0  -4  905.61   23.40 
 -16   0  -4  902.41   22.20 
  16   0   4  865.41   25.20 
 -18   0  -4  633.54   16.90 
  18   0   4  630.24   20.40 
  18   0   4  635.14   21.30 
 -18   0  -4  645.74   18.20 
 -23  -1   4  691.33   19.00 
  23  -1  -4  668.03   22.10 
 -23  -1   4  693.93   19.00 
  23  -1  -4  684.03   21.00 
 -23   1   4  660.83   18.90 
  23   1  -4  656.13   22.00 
  23   1  -4  658.93   20.80 
  21  -1  -4  773.62   24.50 
  21  -1  -4  821.72   23.70 
 -21  -1   4  833.32   21.50 
 -21  -1   4  813.82   21.00 
 -21  -1   4  834.72   21.90 
  21  -1  -4  858.91   24.80 
  21  -1  -4  821.32   23.60 
  21   1  -4  767.42   24.20 
  21   1  -4  776.82   23.20 
  21   1  -4  793.12   23.30 
 -21   1   4  817.62   21.30 
 -21   1   4  794.72   21.50 
 -19  -1   4  371.96   11.10 
  19  -1  -4  346.57   14.30 
  19  -1  -4  365.26   13.40 
  19  -1  -4  361.26   14.30 
 -19  -1   4  357.16   11.40 
  19  -1  -4  345.57   13.50 
 -19  -1   4  345.97   11.10 
 -19  -1   4  351.86   11.70 
  19   1  -4  360.46   14.10 
 -19   1   4  339.47   11.50 
 -19   1   4  365.66   11.10 
 -19   1   4  355.06   10.60 
  19   1  -4  344.47   13.10 
  19   1  -4  352.76   13.10 
 -17  -1   4   39.70    3.50 
  17  -1  -4   37.80    4.80 
  17  -1  -4   37.80    5.00 
 -17  -1   4   41.80    4.00 
 -17  -1   4   38.70    3.70 
 -17  -1   4   38.30    4.00 
  17  -1  -4   51.49    7.00 
 -17  -1   4   36.30    3.50 
  17  -1  -4   35.40    5.40 
 -17   1   4   34.50    3.80 
 -17   1   4   41.30    3.30 
  17   1  -4   36.60    5.30 
 -17   1   4   33.30    3.30 
  17   1  -4   34.90    4.80 
  17   1  -4   40.70    5.00 
 -15  -1   4  283.47    9.40 
  15  -1  -4  306.47   11.90 
 -15  -1   4  285.37    9.00 
 -15  -1   4  295.37    8.90 
 -15  -1   4  283.97    8.80 
  15  -1  -4  277.97   10.80 
  15  -1  -4  288.67   11.80 
  15  -1  -4  271.47   10.80 
  15   1  -4  302.57   11.30 
 -15   1   4  289.57    8.70 
 -15   1   4  296.47    8.90 
 -15   1   4  280.27    8.80 
 -15   1   4  289.47    9.60 
  15   1  -4  277.37   10.80 
  15   1  -4  289.07   11.50 
 -13  -1   4 1725.23   40.90 
  13  -1  -4 1809.52   43.20 
  13  -1  -4 1755.92   43.10 
 -13  -1   4 1814.62   40.90 
 -13  -1   4 1783.42   41.00 
  13  -1  -4 1821.42   43.80 
  13  -1  -4 1857.71   43.60 
 -13  -1   4 1768.22   41.40 
 -13   1   4 1730.33   41.30 
  13   1  -4 1865.81   44.00 
 -13   1   4 1787.22   40.90 
 -13   1   4 1776.92   41.50 
  13   1  -4 1732.33   43.30 
  13   1  -4 1711.93   43.50 
  13   1  -4 1710.23   40.90 
 -13   1   4 1812.52   40.80 
  11  -1  -4 2020.90   48.00 
 -11  -1   4 2070.59   46.60 
 -11  -1   4 2042.10   46.80 
 -11  -1   4 2050.89   46.80 
 -11  -1   4 2068.19   47.20 
  11  -1  -4 2106.19   49.00 
  11  -1  -4 2110.09   48.70 
  11  -1  -4 2046.50   48.80 
 -11  -1   4 2033.90   46.80 
  11  -1  -4 2114.29   48.70 
 -11   1   4 2020.90   47.30 
 -11   1   4 2057.09   47.30 
  11   1  -4 1948.71   49.20 
 -11   1   4 2070.99   46.50 
  11   1  -4 2141.29   49.50 
  11   1  -4 2041.40   46.80 
  11   1  -4 1958.70   49.00 
 -11   1   4 2066.79   46.60 
   9  -1  -4 1237.68   30.10 
   9  -1  -4 1269.77   30.20 
   9  -1  -4 1199.78   27.70 
   9  -1  -4 1202.08   28.50 
  -9  -1   4 1268.07   28.90 
  -9  -1   4 1183.08   28.70 
   9  -1  -4 1247.48   29.60 
   9  -1  -4 1216.58   29.10 
   9  -1  -4 1256.37   30.00 
  -9  -1   4 1193.38   28.30 
  -9  -1   4 1233.88   28.40 
  -9  -1   4 1188.38   28.10 
   9   1  -4 1281.97   30.70 
  -9   1   4 1217.58   28.00 
   9   1  -4 1146.49   30.40 
   9   1  -4 1246.38   28.40 
  -9   1   4 1220.88   28.70 
   9   1  -4 1186.88   30.60 
  -9   1   4 1234.48   27.90 
  -9   1   4 1227.58   29.20 
  -9   1   4 1154.68   28.10 
  -9   1   4 1227.38   27.80 
   7  -1  -4  239.18    7.80 
   7  -1  -4  234.28    7.30 
   7  -1  -4  234.88    7.80 
  -7  -1   4  222.78    6.50 
   7  -1  -4  225.48    8.00 
   7  -1  -4  219.08    6.60 
   7  -1  -4  242.18    6.10 
   7  -1  -4  228.28    7.30 
  -7  -1   4  217.18    7.00 
  -7  -1   4  242.48    7.70 
  -7   1   4  220.08    6.60 
   7   1  -4  221.28    8.30 
  -7   1   4  226.28    6.20 
   7   1  -4  236.18    8.60 
  -7   1   4  218.98    7.60 
  -7   1   4  230.68    6.20 
  -7   1   4  225.78    6.90 
   7   1  -4  270.17    8.70 
   7   1  -4  232.68    6.70 
   5  -1  -4   69.09    4.10 
  -5  -1   4   69.39    2.70 
  -5  -1   4   72.39    4.40 
   5  -1  -4   70.79    3.80 
   5  -1  -4   72.29    2.70 
  -5  -1   4   69.99    3.10 
   5  -1  -4   68.09    3.00 
  -5  -1   4   84.89    3.60 
   5  -1  -4   70.89    3.70 
  -5   1   4   74.79    2.70 
   5   1  -4   65.59    4.60 
  -5   1   4   75.39    4.50 
   5   1  -4   61.99    4.30 
  -5   1   4   75.29    3.40 
  -5   1   4   73.19    3.40 
   5   1  -4   71.19    4.20 
   3  -1  -4 1000.00   23.10 
  -3  -1   4 1005.90   23.10 
  -3  -1   4 1002.50   22.80 
  -3  -1   4  996.60   24.50 
   3  -1  -4  981.50   23.40 
   3  -1  -4  992.80   24.10 
   3  -1  -4 1031.30   22.80 
   3  -1  -4  986.70   24.00 
  -3   1   4  993.70   23.40 
  -3   1   4 1003.70   23.70 
  -3   1   4 1025.00   23.10 
   3   1  -4  955.90   24.20 
  -3   1   4  988.40   24.70 
   3   1  -4 1010.10   23.20 
   3   1  -4  981.10   24.60 
   3   1  -4  950.40   24.50 
   1  -1  -4 3486.15   76.59 
  -1  -1   4 3379.56   76.89 
   1  -1  -4 3383.66   77.09 
   1  -1  -4 3553.04   76.29 
   1  -1  -4 3388.66   77.59 
  -1  -1   4 3377.26   77.99 
  -1   1   4 3392.26   76.79 
   1   1  -4 3371.26   77.99 
  -1   1   4 3440.06   78.49 
   1   1  -4 3465.05   77.69 
   1   1  -4 3443.56   77.29 
  -1   1   4 3375.96   76.29 
  -1   1   4 3540.35   77.49 
   1   1  -4 3483.05   76.69 
  -1  -1  -4 3120.79   68.79 
  -1  -1  -4 3032.80   69.99 
   1  -1   4 2982.00   69.59 
   1  -1   4 3116.39   70.69 
  -1  -1  -4 3082.29   68.89 
  -1  -1  -4 3002.10   69.19 
   1   1   4 3073.99   69.19 
   1   1   4 3134.69   71.29 
  -1   1  -4 3007.70   70.29 
  -1   1  -4 3156.38   69.19 
  -1   1  -4 3244.68   69.79 
  -1   1  -4 3041.20   68.59 
  -1   1  -4 3069.99   69.09 
   1   1   4 3041.60   69.99 
   1   1   4 3161.38   68.99 
   3  -1   4  880.51   19.80 
  -3  -1  -4  824.22   20.10 
  -3  -1  -4  859.01   20.00 
   3  -1   4  860.61   22.00 
  -3  -1  -4  849.41   21.20 
  -3  -1  -4  861.11   20.00 
   3  -1   4  847.02   21.30 
   3   1   4  854.11   21.60 
  -3   1  -4  842.42   20.40 
   3   1   4  865.71   20.10 
   3   1   4  842.82   20.50 
  -3   1  -4  821.62   21.40 
   3   1   4  899.11   23.10 
  -3   1  -4  853.11   19.70 
  -5  -1  -4    6.40    1.30 
   5  -1   4   15.80    2.60 
  -5  -1  -4    8.40    1.50 
   5  -1   4   15.60    3.00 
  -5  -1  -4   10.70    1.50 
   5  -1   4    8.40    1.40 
  -5   1  -4    7.40    1.60 
   5   1   4    9.30    1.80 
   5   1   4    9.90    3.70 
  -5   1  -4   12.10    2.40 
   5   1   4    5.10    2.40 
  -5   1  -4   13.00    1.30 
   5   1   4    8.20    1.40 
  -7  -1  -4  641.34   15.60 
  -7  -1  -4  604.24   15.10 
   7  -1   4  617.84   17.60 
  -7  -1  -4  614.74   15.20 
   7  -1   4  625.44   17.80 
   7  -1   4  616.14   15.80 
  -7  -1  -4  621.84   16.60 
  -7   1  -4  620.84   15.80 
  -7   1  -4  628.74   17.00 
   7   1   4  628.94   15.10 
   7   1   4  653.63   18.00 
   7   1   4  617.44   15.30 
   7   1   4  678.43   19.30 
  -7   1  -4  630.84   14.90 
   7   1   4  632.44   16.30 
  -9  -1  -4 1524.35   36.00 
   9  -1   4 1509.45   35.50 
   9  -1   4 1374.96   37.00 
  -9  -1  -4 1488.15   34.00 
  -9  -1  -4 1490.65   34.80 
   9  -1   4 1438.76   37.10 
   9   1   4 1501.15   35.80 
  -9   1  -4 1495.55   36.30 
  -9   1  -4 1486.35   35.00 
   9   1   4 1561.34   37.90 
   9   1   4 1558.54   38.60 
  -9   1  -4 1506.65   34.00 
   9   1   4 1479.75   34.60 
  11  -1   4 1779.82   42.80 
 -11  -1  -4 1794.42   42.80 
 -11  -1  -4 1772.02   40.80 
  11  -1   4 1728.83   44.30 
  11  -1   4 1807.02   44.20 
 -11  -1  -4 1784.02   41.70 
  11   1   4 1796.02   41.50 
 -11   1  -4 1824.12   42.00 
 -11   1  -4 1744.53   40.60 
  11   1   4 1804.52   45.20 
  11   1   4 1789.22   45.50 
  11   1   4 1847.22   43.20 
 -11   1  -4 1829.22   43.20 
 -13  -1  -4  967.70   25.30 
  13  -1   4  950.50   25.70 
 -13  -1  -4  968.80   23.30 
  13  -1   4  988.20   27.30 
 -13  -1  -4  990.20   24.30 
  13  -1   4 1011.70   26.90 
 -13   1  -4  987.20   25.70 
 -13   1  -4  976.50   24.60 
  13   1   4  993.80   26.10 
  13   1   4 1049.99   28.30 
 -13   1  -4  959.60   23.00 
  13   1   4  899.51   27.80 
  15  -1   4   52.79    6.40 
 -15  -1  -4   58.09    5.00 
 -15  -1  -4   51.69    5.80 
  15  -1   4   44.80    6.20 
  15  -1   4   50.89    6.10 
 -15  -1  -4   47.10    3.70 
  15   1   4   47.50    6.50 
 -15   1  -4   46.10    5.10 
 -15   1  -4   48.80    3.40 
  15   1   4   42.10    6.60 
 -17  -1  -4   74.49    5.90 
  17  -1   4   73.09    8.60 
 -17  -1  -4   73.19    6.50 
 -17  -1  -4   73.09    4.60 
  17  -1   4   69.59    7.60 
  17  -1   4   73.79    8.00 
  17   1   4   61.39    7.60 
 -17   1  -4   66.09    6.10 
  17   1   4   67.59    7.90 
 -19  -1  -4  339.97   10.60 
 -19  -1  -4  341.77   11.90 
 -19   1  -4  350.16   12.40 
  24  -2  -4  187.78   18.10 
  24   2  -4  149.09   11.40 
 -22  -2   4    1.10    3.60 
 -22  -2   4    3.50    3.50 
  22  -2  -4   -0.50    3.90 
  22  -2  -4    0.40    4.80 
  22  -2  -4   -4.70    3.60 
 -22  -2   4    1.10    3.60 
 -22   2   4   -4.80    3.10 
  22   2  -4    5.60    4.50 
  22   2  -4   -0.90    4.80 
  20  -2  -4  212.38   12.00 
 -20  -2   4  218.08    8.80 
 -20  -2   4  214.78    8.70 
  20  -2  -4  199.68   10.50 
  20  -2  -4  204.28   11.90 
 -20  -2   4  215.98    9.10 
  20  -2  -4  214.78   10.30 
 -20  -2   4  215.28    8.40 
  20   2  -4  195.48   10.10 
  20   2  -4  203.38   10.60 
 -20   2   4  194.98    8.60 
  20   2  -4  205.78   11.60 
  18  -2  -4  800.82   24.20 
 -18  -2   4  793.72   20.50 
  18  -2  -4  780.62   22.60 
 -18  -2   4  817.82   20.80 
  18  -2  -4  777.52   23.80 
 -18  -2   4  811.52   20.10 
 -18  -2   4  789.02   20.50 
  18  -2  -4  761.32   22.30 
 -18  -2   4  748.43   20.00 
  18   2  -4  794.52   23.80 
 -18   2   4  795.82   20.80 
  18   2  -4  776.72   22.70 
  18   2  -4  800.82   22.80 
 -16  -2   4 1016.70   24.70 
 -16  -2   4  972.00   24.30 
 -16  -2   4  971.70   24.00 
  16  -2  -4  995.70   27.40 
  16  -2  -4  968.50   26.30 
  16  -2  -4 1002.50   27.50 
 -16  -2   4  982.60   24.30 
  16  -2  -4  990.50   26.40 
 -16   2   4  995.60   24.70 
 -16   2   4  950.20   24.40 
  16   2  -4  984.50   26.70 
  16   2  -4  984.00   26.80 
  16   2  -4  993.10   27.90 
  14  -2  -4  995.70   26.60 
  14  -2  -4 1020.10   26.80 
 -14  -2   4  987.10   24.20 
  14  -2  -4  997.90   26.00 
 -14  -2   4  986.20   23.90 
  14  -2  -4 1012.30   26.20 
 -14  -2   4  973.10   24.20 
 -14  -2   4  974.40   24.40 
 -14   2   4  995.70   24.60 
 -14   2   4  972.00   24.60 
  14   2  -4 1024.60   26.70 
  14   2  -4  978.00   24.10 
  14   2  -4  996.00   26.60 
  14   2  -4  978.50   27.50 
  12  -2  -4  305.67    8.90 
 -12  -2   4  297.87    9.30 
  12  -2  -4  317.07   10.80 
  12  -2  -4  315.77   10.60 
 -12  -2   4  296.77    9.00 
  12  -2  -4  296.37   10.40 
 -12  -2   4  292.47    9.00 
  12  -2  -4  323.87   11.20 
 -12  -2   4  306.47    8.80 
 -12   2   4  299.77    9.50 
  12   2  -4  313.47   11.30 
  12   2  -4  263.17   11.40 
 -12   2   4  284.97    8.80 
 -12   2   4  326.07    9.50 
  12   2  -4  312.07   11.30 
  12   2  -4  302.87    8.90 
  10  -2  -4  359.96   11.50 
  10  -2  -4  352.96   11.10 
  10  -2  -4  389.76   11.50 
 -10  -2   4  357.16   10.20 
 -10  -2   4  364.46   10.00 
  10  -2  -4  345.37    9.80 
 -10  -2   4  355.86    9.90 
  10  -2  -4  384.86   11.30 
  10  -2  -4  350.86   10.00 
 -10  -2   4  358.26    9.70 
 -10   2   4  353.26   10.20 
 -10   2   4  342.27    9.80 
  10   2  -4  359.46   12.20 
  10   2  -4  352.66   12.00 
 -10   2   4  336.77   10.50 
  10   2  -4  359.16    9.90 
  10   2  -4  320.97   11.80 
  -8  -2   4 1200.08   28.40 
   8  -2  -4 1206.18   29.50 
   8  -2  -4 1216.78   29.40 
   8  -2  -4 1200.48   28.50 
  -8  -2   4 1216.48   27.90 
  -8  -2   4 1231.08   28.70 
   8  -2  -4 1212.28   28.10 
  -8   2   4 1205.08   29.10 
   8   2  -4 1219.98   30.60 
  -8   2   4 1193.48   28.40 
   8   2  -4 1105.79   29.90 
   8   2  -4 1229.18   28.30 
  -8   2   4 1186.58   28.30 
   8   2  -4 1187.68   29.40 
   6  -2  -4 1752.32   40.30 
   6  -2  -4 1747.93   39.90 
  -6  -2   4 1757.82   39.20 
   6  -2  -4 1772.72   39.40 
  -6  -2   4 1732.13   40.10 
   6  -2  -4 1725.93   40.40 
   6   2  -4 1779.82   39.60 
   6   2  -4 1514.35   40.70 
   6   2  -4 1692.13   41.60 
  -6   2   4 1675.13   39.40 
  -6   2   4 1782.12   40.70 
  -6   2   4 1720.33   39.70 
   4  -2  -4 2316.97   52.99 
   4  -2  -4 2336.37   52.69 
   4  -2  -4 2364.96   52.09 
   4  -2  -4 2356.16   52.99 
  -4  -2   4 2373.76   51.89 
  -4  -2   4 2288.37   53.09 
   4   2  -4 2302.27   52.29 
   4   2  -4 2083.09   53.79 
  -4   2   4 2220.78   51.99 
   4   2  -4 2266.67   53.09 
  -4   2   4 2389.86   53.69 
  -4   2   4 2341.47   52.79 
  -4   2   4 2375.46   52.89 
  -2  -2   4  671.63   17.00 
   2  -2  -4  715.13   17.80 
   2  -2  -4  735.73   18.10 
  -2  -2   4  704.03   18.20 
   2  -2  -4  716.93   17.10 
   2  -2  -4  760.92   16.60 
  -2   2   4  719.13   18.90 
   2   2  -4  688.33   18.50 
   2   2  -4  701.63   18.80 
  -2   2   4  733.13   18.20 
  -2   2   4  732.23   17.90 
   2   2  -4  715.83   17.30 
   2   2  -4  721.63   17.40 
   0  -2   4   13.00    2.40 
   0  -2  -4   24.60    2.10 
   0  -2   4   12.50    1.80 
   0  -2  -4   15.60    2.00 
   0  -2  -4   13.70    2.10 
   0  -2  -4   18.10    1.60 
   0   2  -4   17.70    1.90 
   0   2  -4   16.00    2.00 
   0   2  -4   12.50    2.50 
   0   2   4   17.90    2.60 
   0   2  -4   14.10    1.60 
   0   2   4   18.00    2.50 
   0   2   4   12.70    2.90 
   0   2   4   18.10    2.50 
   2  -2   4 1096.49   27.30 
  -2  -2  -4 1171.68   26.10 
   2  -2   4 1119.39   27.90 
  -2  -2  -4 1119.79   27.30 
  -2  -2  -4 1133.79   26.70 
  -2  -2  -4 1152.08   26.30 
  -2   2  -4 1133.59   26.20 
   2   2   4 1171.98   29.10 
   2   2   4 1156.08   27.20 
   2   2   4 1161.98   26.80 
  -2   2  -4 1157.68   26.80 
  -2   2  -4 1096.39   28.00 
   2   2   4 1153.48   28.10 
  -4  -2  -4 1785.32   41.80 
   4  -2   4 1825.72   43.50 
  -4  -2  -4 1843.82   41.60 
  -4  -2  -4 1837.22   42.80 
  -4  -2  -4 1850.11   41.60 
   4  -2   4 1761.12   43.10 
  -4   2  -4 1839.42   42.20 
   4   2   4 1884.81   44.80 
  -4   2  -4 1790.62   43.40 
   4   2   4 1870.81   42.10 
   4   2   4 1845.42   42.70 
   4   2   4 1900.81   41.90 
  -4   2  -4 1846.32   41.50 
   4   2   4 1819.12   43.60 
  -6  -2  -4 1143.79   28.20 
  -6  -2  -4 1172.88   27.00 
  -6  -2  -4 1121.49   27.00 
   6  -2   4 1180.78   29.20 
  -6  -2  -4 1176.58   26.90 
   6  -2   4 1108.09   28.90 
   6   2   4 1165.68   27.30 
   6   2   4 1165.98   29.40 
   6   2   4 1153.48   27.00 
  -6   2  -4 1160.78   28.80 
   6   2   4 1231.28   30.80 
   6   2   4 1162.88   28.10 
  -6   2  -4 1117.89   27.50 
  -6   2  -4 1185.48   26.70 
  -8  -2  -4 1046.50   25.00 
   8  -2   4 1020.60   27.30 
  -8  -2  -4 1061.89   25.20 
  -8  -2  -4 1042.60   24.90 
  -8  -2  -4 1062.99   26.40 
  -8  -2  -4 1079.89   24.40 
   8  -2   4 1031.50   27.50 
  -8   2  -4 1053.69   24.70 
   8   2   4 1061.49   25.00 
   8   2   4 1145.39   29.60 
   8   2   4 1055.69   25.50 
   8   2   4 1117.19   28.30 
  -8   2  -4 1108.39   27.20 
   8   2   4 1049.40   26.40 
  -8   2  -4 1040.00   25.60 
  10  -2   4  118.29    7.40 
 -10  -2  -4  120.79    5.10 
 -10  -2  -4  116.99    4.00 
  10  -2   4  115.99    7.40 
 -10  -2  -4  117.19    6.10 
 -10  -2  -4  111.39    4.50 
 -10  -2  -4  109.19    4.50 
 -10   2  -4  129.29    6.80 
  10   2   4  116.19    6.30 
 -10   2  -4  116.89    5.40 
  10   2   4  118.69    5.20 
  10   2   4  112.39    8.20 
  10   2   4  113.39    4.50 
 -10   2  -4  114.09    4.30 
  10   2   4  101.19    9.00 
 -12  -2  -4  262.67    8.50 
 -12  -2  -4  264.87    7.40 
  12  -2   4  259.17   10.80 
  12  -2   4  262.17   11.00 
 -12  -2  -4  252.57    9.50 
 -12   2  -4  256.97    7.50 
 -12   2  -4  258.97    8.80 
  12   2   4  251.77    8.60 
  12   2   4  259.67   10.00 
  12   2   4  256.77   12.60 
  12   2   4  262.37   12.60 
 -14  -2  -4  612.34   17.60 
 -14  -2  -4  610.74   15.30 
  14  -2   4  625.84   18.80 
  14  -2   4  619.74   19.30 
 -14  -2  -4  616.14   16.50 
  14   2   4  602.24   18.50 
  14   2   4  599.14   16.70 
 -14   2  -4  597.04   15.30 
  14   2   4  608.54   21.00 
 -14   2  -4  600.54   16.80 
  16  -2   4  939.61   26.90 
 -16  -2  -4  933.91   22.70 
 -16  -2  -4  959.40   24.10 
 -16  -2  -4  930.31   25.00 
  16  -2   4  957.70   26.20 
 -16   2  -4  893.91   22.60 
  16   2   4  912.11   25.30 
  16   2   4  942.61   26.70 
  16   2   4  921.11   28.90 
 -16   2  -4  930.21   24.40 
 -18  -2  -4  594.34   18.40 
  18  -2   4  609.04   19.60 
  18  -2   4  664.13   28.50 
 -18  -2  -4  611.34   19.30 
 -18  -2  -4  633.04   17.60 
  18   2   4  624.74   22.70 
 -18   2  -4  610.04   18.00 
 -18   2  -4  579.74   15.90 
 -20   2  -4   69.09    5.10 
  23   3  -4  555.24   20.60 
 -21  -3   4  523.25   15.20 
  21  -3  -4  537.35   17.90 
  21  -3  -4  559.84   19.80 
 -21  -3   4  570.64   16.10 
 -21  -3   4  552.04   16.10 
  21  -3  -4  524.15   17.40 
  21   3  -4  515.25   18.20 
 -21   3   4  528.15   15.90 
  21   3  -4  533.95   19.90 
 -19  -3   4  338.67   10.90 
  19  -3  -4  362.46   15.00 
 -19  -3   4  370.46   11.40 
  19  -3  -4  369.46   13.70 
 -19  -3   4  366.26   11.90 
  19  -3  -4  357.36   13.30 
 -19  -3   4  360.76   11.90 
  19  -3  -4  376.76   15.20 
 -19  -3   4  382.86   12.10 
  19   3  -4  361.26   15.80 
  19   3  -4  354.76   13.80 
  19   3  -4  352.36   14.10 
 -19   3   4  367.96   12.10 
 -17  -3   4   14.50    2.70 
 -17  -3   4   13.60    3.20 
  17  -3  -4   16.10    4.30 
  17  -3  -4   19.90    4.10 
 -17  -3   4   12.00    3.40 
 -17  -3   4   12.50    3.20 
  17  -3  -4   10.60    3.70 
  17  -3  -4   12.90    4.40 
 -17  -3   4   12.40    2.80 
  17   3  -4   10.90    4.20 
 -17   3   4   16.00    3.30 
  17   3  -4   10.30    4.30 
  17   3  -4    4.90    4.90 
 -17   3   4   10.20    3.20 
 -15  -3   4  235.68    8.50 
  15  -3  -4  230.38   10.40 
 -15  -3   4  244.28    8.40 
 -15  -3   4  243.08    8.70 
  15  -3  -4  231.28    9.70 
  15  -3  -4  237.58   10.60 
  15  -3  -4  228.78    9.80 
  15  -3  -4  227.98    8.70 
 -15  -3   4  245.58    8.10 
 -15   3   4  240.48    8.90 
  15   3  -4  206.78   11.20 
  15   3  -4  242.98   10.70 
  15   3  -4  242.08    8.30 
  15   3  -4  232.18   10.70 
 -15   3   4  252.47    8.80 
 -15   3   4  224.18    8.30 
  13  -3  -4 1106.09   28.40 
 -13  -3   4 1111.89   26.90 
  13  -3  -4 1101.49   26.70 
 -13  -3   4 1086.69   26.40 
  13  -3  -4 1091.89   28.90 
  13  -3  -4 1107.99   29.00 
  13  -3  -4 1113.79   28.40 
 -13  -3   4 1100.49   26.80 
 -13  -3   4 1108.19   27.00 
  13   3  -4 1105.29   26.90 
  13   3  -4 1152.88   29.70 
 -13   3   4 1107.49   27.60 
  13   3  -4 1074.19   29.40 
 -13   3   4 1124.89   27.10 
 -13   3   4 1082.39   27.00 
  13   3  -4 1115.99   29.60 
 -11  -3   4 1950.30   44.90 
 -11  -3   4 1940.21   44.70 
  11  -3  -4 1943.41   46.30 
 -11  -3   4 1916.11   44.90 
 -11  -3   4 1940.01   44.50 
  11  -3  -4 1935.31   44.70 
  11  -3  -4 1966.80   46.70 
  11  -3  -4 1978.30   46.60 
  11  -3  -4 1923.01   46.10 
 -11   3   4 1976.60   45.80 
  11   3  -4 1983.60   45.00 
  11   3  -4 1959.10   46.50 
  11   3  -4 1752.02   46.80 
 -11   3   4 1937.71   44.90 
  11   3  -4 1960.90   47.50 
 -11   3   4 1936.91   45.10 
   9  -3  -4  747.93   18.30 
   9  -3  -4  741.93   19.60 
   9  -3  -4  749.23   18.10 
  -9  -3   4  733.43   18.40 
  -9  -3   4  726.33   17.90 
   9  -3  -4  724.83   19.40 
  -9  -3   4  733.03   18.50 
   9   3  -4  707.33   19.80 
   9   3  -4  760.22   18.40 
   9   3  -4  688.63   20.40 
  -9   3   4  738.43   19.30 
  -9   3   4  733.83   18.70 
   7  -3  -4  177.48    6.90 
  -7  -3   4  162.28    5.80 
   7  -3  -4  181.28    6.80 
   7  -3  -4  182.28    5.80 
  -7  -3   4  174.08    6.40 
   7  -3  -4  178.98    6.20 
   7   3  -4  172.98    6.00 
  -7   3   4  169.58    6.30 
   7   3  -4  161.88    7.40 
  -7   3   4  178.08    7.20 
   7   3  -4  173.88    6.70 
   5  -3  -4   12.30    1.70 
   5  -3  -4   10.60    2.10 
  -5  -3   4   10.80    1.90 
  -5  -3   4   11.20    2.20 
   5  -3  -4   12.40    2.10 
   5  -3  -4   12.10    2.40 
  -5   3   4   13.50    2.60 
   5   3  -4   16.50    2.60 
  -5   3   4   14.60    2.30 
  -5   3   4    7.20    2.40 
   5   3  -4    8.10    1.90 
   5   3  -4   11.40    1.80 
  -3  -3   4 1158.98   28.70 
   3  -3  -4 1212.18   28.70 
   3  -3  -4 1214.28   28.60 
   3  -3  -4 1226.78   27.80 
  -3  -3   4 1213.38   27.70 
  -3   3   4 1228.88   29.20 
  -3   3   4 1195.68   29.00 
   3   3  -4 1207.88   28.40 
  -3   3   4 1148.89   29.50 
   3   3  -4 1179.68   28.30 
  -1  -3   4 1985.10   46.30 
   1  -3  -4 2020.10   46.00 
   1  -3  -4 2013.90   45.20 
  -1  -3   4 1845.32   45.30 
   1  -3  -4 2006.60   45.90 
   1   3  -4 2023.90   45.80 
   1   3  -4 1990.90   45.20 
  -1   3   4 1978.10   47.30 
  -1   3   4 2031.80   46.40 
  -1   3   4 2041.00   46.10 
  -1   3   4 1978.00   46.60 
   1  -3   4 2108.29   51.09 
   1  -3   4 2225.18   51.79 
  -1  -3  -4 2271.37   50.29 
  -1  -3  -4 2264.37   50.39 
  -1  -3  -4 2213.68   51.29 
  -1  -3  -4 2250.77   50.89 
   1   3   4 2233.58   51.59 
  -1   3  -4 2272.17   50.99 
   1   3   4 2263.27   51.19 
   1   3   4 2226.28   52.19 
   1   3   4 2175.18   52.69 
  -1   3  -4 2246.28   50.29 
  -3  -3  -4  847.82   21.20 
  -3  -3  -4  854.21   20.60 
   3  -3   4  807.32   21.40 
  -3  -3  -4  853.31   20.10 
  -3  -3  -4  875.71   19.80 
   3  -3   4  862.21   21.90 
  -3   3  -4  787.02   22.10 
  -3   3  -4  858.61   20.10 
   3   3   4  873.11   20.70 
   3   3   4  859.71   22.40 
  -3   3  -4  855.01   20.80 
   3   3   4  870.31   21.60 
   3   3   4  827.42   22.80 
   3   3   4  856.61   20.90 
   5  -3   4   10.60    2.70 
  -5  -3  -4   21.30    2.70 
  -5  -3  -4   16.30    2.60 
  -5  -3  -4   15.00    1.70 
  -5  -3  -4   18.60    1.90 
   5  -3   4   15.20    3.00 
   5   3   4   15.40    2.20 
  -5   3  -4   17.20    3.20 
   5   3   4   15.70    2.10 
   5   3   4   19.10    3.40 
  -5   3  -4   15.60    2.40 
   5   3   4   14.90    3.80 
  -5   3  -4   16.10    1.90 
   5   3   4   15.80    2.60 
  -7  -3  -4  297.77    8.80 
  -7  -3  -4  305.07    8.30 
   7  -3   4  293.17   10.60 
   7  -3   4  302.37   10.70 
  -7  -3  -4  308.47    9.80 
  -7  -3  -4  312.67    8.50 
  -7   3  -4  266.97   10.50 
  -7   3  -4  305.77    8.30 
   7   3   4  305.77    9.20 
   7   3   4  309.67   11.50 
   7   3   4  299.77    8.70 
   7   3   4  317.27   10.20 
   7   3   4  288.37   11.90 
  -7   3  -4  309.87    9.20 
  -9  -3  -4 1228.48   28.70 
  -9  -3  -4 1210.58   28.70 
  -9  -3  -4 1221.28   28.30 
  -9  -3  -4 1203.78   30.00 
   9  -3   4 1197.68   30.80 
   9  -3   4 1215.68   31.10 
   9   3   4 1119.19   31.90 
   9   3   4 1238.08   32.20 
   9   3   4 1217.78   30.40 
   9   3   4 1210.58   28.70 
   9   3   4 1227.78   29.30 
  -9   3  -4 1203.58   29.20 
  -9   3  -4 1221.48   28.20 
 -11  -3  -4 1504.55   37.50 
 -11  -3  -4 1535.15   36.30 
 -11  -3  -4 1524.55   35.80 
  11  -3   4 1541.75   38.60 
  11  -3   4 1573.24   39.00 
 -11  -3  -4 1528.05   36.10 
  11   3   4 1542.95   36.90 
  11   3   4 1595.34   40.80 
 -11   3  -4 1534.35   36.90 
  11   3   4 1553.54   38.30 
 -11   3  -4 1547.75   35.60 
  11   3   4 1526.75   36.10 
 -13  -3  -4  575.24   15.40 
 -13  -3  -4  552.24   15.00 
 -13  -3  -4  554.54   16.60 
  13  -3   4  560.84   17.50 
  13  -3   4  599.04   18.30 
 -13  -3  -4  525.25   15.20 
  13   3   4  569.64   17.50 
  13   3   4  554.34   15.00 
 -13   3  -4  552.14   14.40 
  13   3   4  568.74   16.00 
 -13   3  -4  572.04   15.90 
  13   3   4  586.34   20.30 
  15  -3   4   86.59    8.00 
  15  -3   4   82.69    8.30 
 -15  -3  -4   86.39    5.60 
 -15  -3  -4   78.69    6.70 
  15   3   4   83.39    9.30 
  15   3   4   79.79    6.30 
  15   3   4   79.89    7.60 
 -15   3  -4   78.99    6.10 
 -15   3  -4   78.29    4.50 
 -17  -3  -4   75.89    6.90 
 -17  -3  -4   65.49    5.70 
  17  -3   4   79.89    8.30 
  17   3   4   72.89    9.50 
 -17   3  -4   66.69    6.40 
 -17   3  -4   67.99    4.70 
  17   3   4   68.39    6.70 
 -19  -3  -4  326.57   12.60 
  19  -3   4  332.47   13.70 
  19   3   4  299.87   15.90 
 -22  -4   4    3.30    3.90 
  22   4  -4  -10.70    5.50 
  20  -4  -4  166.38   10.30 
 -20  -4   4  166.18    8.50 
  20  -4  -4  166.88    9.70 
  20  -4  -4  161.88   11.00 
 -20  -4   4  171.88    8.40 
 -20   4   4  168.68    8.60 
  20   4  -4  123.29   11.60 
  20   4  -4  153.88   10.50 
 -18  -4   4  513.15   14.60 
 -18  -4   4  457.05   13.40 
  18  -4  -4  476.45   17.20 
 -18  -4   4  487.35   14.50 
  18  -4  -4  477.85   16.10 
  18  -4  -4  479.75   15.80 
  18  -4  -4  470.85   17.40 
 -18  -4   4  495.05   14.40 
  18   4  -4  471.95   16.90 
 -18   4   4  495.35   14.70 
 -18   4   4  485.45   14.90 
  18   4  -4  416.16   18.40 
  18   4  -4  474.55   17.40 
 -16  -4   4  798.02   20.40 
 -16  -4   4  760.82   20.30 
  16  -4  -4  775.42   22.00 
  16  -4  -4  770.72   21.80 
 -16  -4   4  774.02   19.70 
  16  -4  -4  784.92   23.30 
 -16  -4   4  786.72   20.20 
  16  -4  -4  746.33   22.90 
  16  -4  -4  769.52   19.90 
  16   4  -4  750.22   23.40 
  16   4  -4  760.52   23.00 
 -16   4   4  758.62   20.70 
 -16   4   4  754.72   20.40 
 -16   4   4  770.52   21.10 
  14  -4  -4  662.63   19.10 
 -14  -4   4  665.23   17.10 
  14  -4  -4  649.74   19.00 
 -14  -4   4  691.13   17.80 
  14  -4  -4  653.63   17.20 
 -14  -4   4  677.33   17.50 
  14  -4  -4  652.13   19.80 
  14  -4  -4  661.63   19.90 
 -14  -4   4  669.63   17.70 
  14   4  -4  663.93   17.60 
  14   4  -4  614.74   20.20 
  14   4  -4  630.14   20.20 
 -14   4   4  672.33   18.60 
 -14   4   4  681.23   18.10 
 -14   4   4  604.04   17.30 
 -12  -4   4  161.98    6.40 
  12  -4  -4  164.08    6.20 
  12  -4  -4  154.68    8.30 
 -12  -4   4  168.88    7.00 
  12  -4  -4  158.28    7.80 
 -12  -4   4  159.68    6.90 
 -12  -4   4  154.18    6.70 
  12  -4  -4  167.68    7.90 
  12  -4  -4  165.08    8.30 
 -12   4   4  157.88    7.00 
  12   4  -4  159.98    6.60 
  12   4  -4  158.98    8.40 
 -12   4   4  156.38    7.70 
  12   4  -4  142.49    8.60 
 -10  -4   4  160.28    6.10 
 -10  -4   4  153.48    6.50 
 -10  -4   4  167.38    6.70 
  10  -4  -4  147.99    7.60 
  10  -4  -4  147.69    7.20 
  10  -4  -4  153.58    5.80 
  10   4  -4  160.78    7.40 
  10   4  -4  156.38    6.20 
 -10   4   4  156.18    7.30 
  10   4  -4  157.58    8.10 
 -10   4   4  160.18    6.80 
   8  -4  -4  938.41   24.30 
  -8  -4   4  947.41   22.80 
  -8  -4   4  944.61   23.10 
  -8  -4   4  930.81   23.30 
   8  -4  -4  944.21   24.10 
   8  -4  -4  951.90   22.80 
  -8   4   4  936.81   24.30 
   8   4  -4  938.11   23.20 
   8   4  -4  967.50   24.60 
   8   4  -4  916.01   23.50 
  -8   4   4  947.71   23.80 
   6  -4  -4 1204.18   28.40 
  -6  -4   4 1176.88   28.40 
   6  -4  -4 1196.18   29.20 
  -6  -4   4 1200.68   28.00 
   6  -4  -4 1227.48   28.00 
   6  -4  -4 1178.68   29.30 
   6   4  -4 1213.08   29.00 
  -6   4   4 1175.88   29.60 
   6   4  -4 1083.39   30.10 
   6   4  -4 1181.88   28.50 
  -6   4   4 1222.58   29.20 
  -4  -4   4 1348.57   32.20 
   4  -4  -4 1358.36   32.00 
  -4  -4   4 1345.27   31.50 
   4  -4  -4 1366.26   32.50 
   4  -4  -4 1368.26   31.40 
  -4   4   4 1381.76   32.90 
   4   4  -4 1300.27   32.00 
   4   4  -4 1344.57   32.20 
  -4   4   4 1411.56   33.40 
  -4   4   4 1327.17   33.30 
   2  -4  -4  619.84   15.80 
   2  -4  -4  611.24   15.90 
   2  -4  -4  607.14   15.00 
  -2  -4   4  604.44   15.10 
  -2  -4   4  598.04   16.10 
  -2   4   4  591.34   17.00 
   2   4  -4  594.64   15.80 
  -2   4   4  621.14   16.80 
  -2   4   4  622.74   16.70 
   0  -4  -4   23.10    2.50 
   0  -4  -4   24.10    3.10 
   0  -4  -4   24.60    3.20 
   0  -4   4   23.70    3.00 
   0   4   4   23.10    3.10 
   0   4  -4   26.50    2.70 
   0   4   4   29.60    3.80 
   0   4   4   25.40    3.30 
   0   4  -4   23.10    2.60 
   0   4   4   25.50    3.50 
  -2  -4  -4  733.73   19.10 
   2  -4   4  691.33   19.20 
   2  -4   4  741.73   19.70 
  -2  -4  -4  752.92   18.80 
  -2  -4  -4  759.22   18.00 
   2   4   4  776.72   20.00 
   2   4   4  726.63   20.50 
   2   4   4  760.52   20.40 
  -2   4  -4  762.82   18.20 
  -2   4  -4  760.32   19.00 
   2   4   4  759.02   19.30 
  -4  -4  -4 1030.10   25.40 
   4  -4   4 1060.09   26.80 
   4  -4   4 1021.10   26.60 
  -4  -4  -4 1053.79   26.10 
  -4  -4  -4 1063.59   24.70 
   4   4   4 1082.19   26.90 
   4   4   4 1043.40   27.50 
   4   4   4 1027.00   27.40 
  -4   4  -4 1075.89   24.90 
  -4   4  -4 1082.79   25.80 
   4   4   4 1045.70   25.90 
   4   4   4 1068.59   25.50 
  -6  -4  -4  942.41   22.40 
  -6  -4  -4  939.11   23.20 
   6  -4   4  976.40   24.90 
  -6  -4  -4  971.40   24.00 
  -6  -4  -4  938.31   23.00 
   6  -4   4  941.31   24.70 
   6   4   4  968.70   24.80 
   6   4   4  950.00   23.80 
  -6   4  -4  950.10   23.50 
   6   4   4  917.51   25.70 
   6   4   4  904.01   25.30 
   6   4   4  948.11   23.20 
  -6   4  -4  957.30   22.60 
  -8  -4  -4  666.13   17.20 
   8  -4   4  657.33   19.10 
  -8  -4  -4  664.13   16.50 
  -8  -4  -4  657.63   18.10 
   8  -4   4  673.03   19.00 
  -8  -4  -4  693.33   16.80 
  -8   4  -4  685.23   16.60 
   8   4   4  624.54   19.20 
   8   4   4  678.53   19.00 
   8   4   4  673.03   17.20 
   8   4   4  664.33   17.80 
  -8   4  -4  671.33   17.60 
   8   4   4  654.43   20.40 
 -10  -4  -4   67.39    4.30 
  10  -4   4   64.79    6.70 
 -10  -4  -4   58.99    5.40 
 -10  -4  -4   67.39    4.40 
 -10  -4  -4   59.29    3.80 
  10  -4   4   59.59    6.50 
  10   4   4   67.59    6.10 
 -10   4  -4   61.39    4.90 
  10   4   4   63.39    8.00 
  10   4   4   64.99    5.20 
 -10   4  -4   69.69    4.00 
  10   4   4   65.89    4.50 
  12  -4   4  140.19    8.50 
 -12  -4  -4  135.39    5.60 
 -12  -4  -4  138.39    6.10 
 -12  -4  -4  136.39    7.40 
 -12  -4  -4  139.19    6.20 
  12  -4   4  126.99    8.50 
  12   4   4  139.39    8.30 
  12   4   4  139.79    6.30 
  12   4   4  136.79   10.80 
 -12   4  -4  134.89    6.70 
 -12   4  -4  139.79    5.60 
  12   4   4  141.49    7.30 
 -14  -4  -4  487.55   15.50 
 -14  -4  -4  477.75   13.30 
 -14  -4  -4  497.85   14.10 
  14  -4   4  492.15   16.50 
 -14  -4  -4  485.15   14.00 
  14  -4   4  495.55   16.90 
  14   4   4  499.25   15.20 
  14   4   4  484.95   19.70 
  14   4   4  487.95   16.80 
 -14   4  -4  499.05   14.90 
  14   4   4  479.05   14.10 
 -14   4  -4  493.55   13.30 
 -16  -4  -4  653.03   19.40 
 -16  -4  -4  673.73   18.10 
  16  -4   4  654.63   20.50 
  16   4   4  667.73   19.50 
 -16   4  -4  641.84   17.20 
 -16   4  -4  634.84   18.90 
  18  -4   4  396.56   15.50 
 -18  -4  -4  418.96   15.00 
  18   4   4  402.26   14.70 
  19  -5  -4  163.88   11.30 
 -19   5   4  157.18    8.90 
  17  -5  -4   26.60    5.50 
 -17  -5   4   21.30    3.90 
  17  -5  -4   24.00    4.70 
  17  -5  -4   25.30    3.60 
  17  -5  -4   28.10    4.80 
 -17  -5   4   17.70    3.90 
  17   5  -4   20.50    5.60 
  17   5  -4   17.90    5.40 
 -17   5   4   28.90    4.60 
  15  -5  -4  155.38    6.70 
 -15  -5   4  165.98    7.80 
 -15  -5   4  162.08    7.90 
 -15  -5   4  156.38    7.70 
  15  -5  -4  157.28    9.80 
  15  -5  -4  162.48    8.90 
  15  -5  -4  155.38    8.80 
  15  -5  -4  163.58    9.80 
 -15  -5   4  161.78    7.90 
  15   5  -4  141.69    9.50 
 -15   5   4  162.48    8.30 
  15   5  -4  140.09    9.80 
 -15   5   4  163.48    8.60 
  15   5  -4  158.58    7.40 
 -13  -5   4  855.81   21.40 
  13  -5  -4  860.31   24.50 
  13  -5  -4  858.41   23.50 
  13  -5  -4  830.02   24.20 
  13  -5  -4  843.82   23.40 
 -13  -5   4  867.21   22.00 
  13  -5  -4  830.22   21.40 
 -13  -5   4  867.61   21.80 
 -13  -5   4  838.12   22.00 
  13   5  -4  837.82   21.90 
  13   5  -4  785.62   24.20 
 -13   5   4  864.01   23.20 
 -13   5   4  850.81   22.70 
  13   5  -4  826.62   23.70 
 -11  -5   4  930.71   22.70 
  11  -5  -4  913.91   22.70 
 -11  -5   4  926.21   23.20 
  11  -5  -4  895.31   24.30 
 -11  -5   4  940.11   23.10 
 -11  -5   4  899.71   23.20 
  11  -5  -4  933.81   25.50 
  11  -5  -4  906.61   25.10 
  11   5  -4  885.61   23.10 
  11   5  -4  893.81   25.00 
 -11   5   4  912.71   24.50 
 -11   5   4  915.01   24.00 
  11   5  -4  904.61   24.20 
  -9  -5   4  668.53   17.50 
  -9  -5   4  637.74   17.40 
  -9  -5   4  676.33   16.90 
   9  -5  -4  641.14   16.80 
   9  -5  -4  651.43   18.90 
   9  -5  -4  648.04   18.40 
   9   5  -4  630.14   17.30 
  -9   5   4  680.43   18.90 
  -9   5   4  663.63   18.30 
   9   5  -4  669.33   18.60 
  -7  -5   4  102.29    5.10 
   7  -5  -4  103.19    6.40 
   7  -5  -4  115.29    4.80 
  -7  -5   4  115.89    5.90 
   7  -5  -4  104.89    6.00 
  -7   5   4  110.79    6.60 
  -7   5   4  101.59    6.20 
   7   5  -4  103.19    5.50 
   7   5  -4  119.29    5.50 
   5  -5  -4   46.00    4.70 
   5  -5  -4   44.90    3.30 
   5  -5  -4   51.19    4.40 
  -5  -5   4   40.70    3.90 
   5   5  -4   39.20    4.00 
  -5   5   4   39.10    5.30 
  -5   5   4   38.80    4.80 
  -5   5   4   45.80    5.20 
  -3  -5   4  438.46   11.90 
  -3  -5   4  434.26   12.60 
   3  -5  -4  451.95   12.80 
   3  -5  -4  435.86   11.60 
   3  -5  -4  440.76   12.30 
  -3   5   4  460.35   13.80 
  -3   5   4  451.25   14.10 
   3   5  -4  438.76   12.70 
  -3   5   4  436.86   13.90 
   1  -5  -4 1533.65   36.60 
   1  -5  -4 1568.24   35.60 
  -1  -5   4 1511.15   36.80 
  -1  -5   4 1561.44   35.70 
   1  -5  -4 1543.35   36.40 
  -1   5   4 1529.55   38.00 
   1   5  -4 1503.55   35.70 
   1   5  -4 1489.75   36.60 
  -1   5   4 1562.54   38.00 
  -1   5   4 1574.04   37.90 
   1  -5   4 1288.57   31.20 
  -1  -5  -4 1263.27   30.60 
  -1  -5  -4 1257.87   29.40 
  -1  -5  -4 1270.77   30.50 
  -1   5  -4 1250.47   29.70 
   1   5   4 1273.07   31.90 
  -1   5  -4 1246.78   30.60 
   1   5   4 1273.77   32.00 
   1   5   4 1234.18   32.00 
   1   5   4 1261.07   31.10 
  -3  -5  -4  377.06   11.40 
  -3  -5  -4  363.66    9.90 
   3  -5   4  361.66   11.70 
  -3  -5  -4  369.46   11.00 
   3  -5   4  371.56   12.00 
   3   5   4  353.06   12.60 
   3   5   4  382.96   12.50 
  -3   5  -4  370.96   10.20 
  -3   5  -4  361.56   11.20 
   3   5   4  376.86   11.60 
   3   5   4  361.96   12.50 
  -5  -5  -4    9.50    1.80 
   5  -5   4    8.30    2.90 
  -5  -5  -4   19.00    3.20 
   5  -5   4   11.60    3.30 
  -5  -5  -4   10.10    2.40 
   5   5   4    7.50    3.10 
   5   5   4   18.00    3.00 
   5   5   4   13.10    2.50 
  -5   5  -4   13.00    2.80 
   5   5   4    9.00    3.20 
  -5   5  -4    9.80    2.00 
   5   5   4   10.40    3.60 
  -7  -5  -4  321.37   10.10 
   7  -5   4  320.67   11.80 
  -7  -5  -4  330.97    9.10 
   7  -5   4  324.87   11.70 
  -7  -5  -4  337.87   11.00 
   7   5   4  330.97   10.20 
   7   5   4  313.57   12.80 
   7   5   4  327.37   10.80 
   7   5   4  345.27   12.10 
  -7   5  -4  317.17   10.40 
  -7   5  -4  331.27    9.50 
   7   5   4  279.37   12.00 
  -9  -5  -4  737.33   20.30 
   9  -5   4  728.63   21.20 
  -9  -5  -4  734.03   18.20 
   9  -5   4  740.53   21.10 
  -9  -5  -4  742.53   19.30 
  -9   5  -4  720.33   19.50 
   9   5   4  733.23   19.20 
   9   5   4  723.33   22.80 
   9   5   4  726.93   20.00 
   9   5   4  739.33   21.40 
  -9   5  -4  743.73   18.50 
 -11  -5  -4  825.22   22.60 
  11  -5   4  823.72   23.60 
 -11  -5  -4  822.92   20.40 
 -11  -5  -4  835.72   21.40 
  11  -5   4  818.42   23.40 
 -11   5  -4  798.62   21.70 
 -11   5  -4  833.42   20.60 
  11   5   4  823.82   23.80 
  11   5   4  811.32   26.00 
  11   5   4  841.62   21.50 
  11   5   4  821.02   22.40 
  13  -5   4  536.35   17.30 
  13  -5   4  526.15   17.60 
 -13  -5  -4  500.25   14.70 
 -13  -5  -4  489.55   16.80 
 -13  -5  -4  506.55   16.10 
  13   5   4  502.05   15.90 
 -13   5  -4  507.35   13.90 
  13   5   4  503.65   14.90 
 -13   5  -4  511.25   15.40 
  13   5   4  505.85   20.30 
  15  -5   4   20.70    5.20 
 -15  -5  -4   22.70    3.60 
 -15  -5  -4   23.20    4.60 
 -15   5  -4   19.70    4.10 
  15   5   4   25.00    3.80 
  15   5   4   21.10    4.40 
  16  -6  -4  439.46   17.20 
 -16  -6   4  443.56   14.40 
  16   6  -4  410.86   16.30 
 -16   6   4  442.46   15.30 
  14  -6  -4  445.96   15.30 
 -14  -6   4  448.06   13.70 
  14  -6  -4  450.35   16.50 
  14  -6  -4  435.56   15.20 
 -14   6   4  446.16   15.10 
  14   6  -4  418.16   16.00 
 -14   6   4  418.76   15.50 
  14   6  -4  407.66   16.20 
  12  -6  -4   69.19    5.20 
  12  -6  -4   66.49    7.50 
  12  -6  -4   66.19    6.80 
 -12  -6   4   68.59    6.00 
 -12  -6   4   68.09    6.00 
 -12  -6   4   69.89    6.20 
 -12   6   4   64.49    6.40 
  12   6  -4   65.29    5.40 
  12   6  -4   68.09    7.20 
 -12   6   4   60.49    7.00 
  10  -6  -4   73.69    7.10 
 -10  -6   4   69.99    6.10 
 -10  -6   4   75.19    6.00 
  10  -6  -4   69.49    4.50 
 -10  -6   4   71.19    5.20 
  10  -6  -4   74.79    6.50 
 -10   6   4   68.69    6.40 
  10   6  -4   66.49    5.40 
  10   6  -4   64.59    7.60 
 -10   6   4   74.69    6.80 
   8  -6  -4  502.95   16.20 
  -8  -6   4  527.05   14.20 
  -8  -6   4  515.95   14.70 
  -8  -6   4  522.55   15.00 
   8  -6  -4  523.95   14.00 
   8  -6  -4  536.15   15.80 
  -8   6   4  510.65   16.30 
  -8   6   4  532.85   16.00 
   8   6  -4  495.25   14.80 
   6  -6  -4  765.92   21.30 
  -6  -6   4  756.02   20.30 
   6  -6  -4  768.92   20.70 
  -6  -6   4  773.22   19.40 
   6  -6  -4  754.02   19.10 
  -6   6   4  754.72   21.60 
   6   6  -4  746.73   20.20 
  -6   6   4  792.22   21.50 
  -4  -6   4  667.03   17.20 
   4  -6  -4  664.83   16.80 
   4  -6  -4  667.23   18.30 
  -4   6   4  677.43   19.90 
  -4   6   4  647.44   19.40 
  -4   6   4  695.53   19.40 
   4   6  -4  644.44   18.00 
  -2  -6   4  373.16   10.80 
   2  -6  -4  368.36   10.30 
   2  -6  -4  374.36   11.70 
  -2  -6   4  366.86   11.60 
   2   6  -4  364.86   11.60 
  -2   6   4  373.76   13.20 
  -2   6   4  380.36   13.10 
  -2   6   4  383.26   12.90 
   0  -6   4   17.80    2.70 
   0  -6  -4   17.90    2.90 
   0  -6   4   22.70    3.50 
   0  -6  -4   19.20    3.00 
   0  -6  -4   18.80    2.40 
   0   6   4   18.60    3.80 
   0   6  -4   16.60    3.10 
   0   6   4   22.70    4.10 
   0   6  -4   18.80    2.70 
   0   6   4   17.10    3.80 
   0   6   4   16.00    3.40 
  -2  -6  -4  438.16   12.90 
  -2  -6  -4  435.86   11.50 
   2  -6   4  443.46   13.70 
  -2  -6  -4  431.06   12.80 
   2   6   4  426.16   13.60 
  -2   6  -4  411.46   13.00 
   2   6   4  434.66   14.60 
   2   6   4  415.16   14.10 
  -2   6  -4  432.86   12.00 
   2   6   4  446.56   14.60 
  -4  -6  -4  526.75   14.70 
  -4  -6  -4  542.05   15.20 
  -4  -6  -4  514.45   13.30 
   4  -6   4  524.05   15.90 
   4   6   4  503.55   16.70 
   4   6   4  477.55   15.80 
  -4   6  -4  523.45   13.80 
   4   6   4  533.35   16.70 
   4   6   4  500.65   15.40 
  -4   6  -4  506.85   14.90 
  -6  -6  -4  631.14   17.60 
  -6  -6  -4  610.44   15.50 
  -6  -6  -4  627.74   17.00 
   6  -6   4  602.54   18.50 
   6  -6   4  606.94   18.30 
  -6   6  -4  617.14   16.00 
  -6   6  -4  595.04   17.20 
   6   6   4  628.54   19.00 
   6   6   4  602.34   19.40 
   6   6   4  602.84   17.70 
   6   6   4  625.54   17.00 
   8  -6   4  345.77   13.00 
  -8  -6  -4  360.16   12.20 
   8  -6   4  338.47   12.80 
  -8  -6  -4  343.77   11.20 
  -8   6  -4  354.66   10.40 
  -8   6  -4  335.27   11.50 
   8   6   4  346.97   12.20 
   8   6   4  350.86   11.30 
   8   6   4  337.67   14.30 
 -10  -6  -4   34.30    4.60 
  10  -6   4   34.10    5.30 
  10  -6   4   30.00    5.00 
 -10  -6  -4   37.10    5.30 
 -10   6  -4   36.30    4.40 
  10   6   4   35.50    4.00 
 -10   6  -4   34.20    3.40 
  10   6   4   37.60    4.70 
  10   6   4   36.00    7.70 
  12  -6   4   69.39    7.90 
 -12  -6  -4   64.69    6.80 
  12   6   4   69.09    7.00 
 -12   6  -4   63.99    6.20 
 -11  -7   4  583.24   16.70 
  11  -7  -4  572.54   19.20 
 -11   7   4  571.54   18.50 
  -9  -7   4  286.57   10.50 
   9  -7  -4  294.07   12.40 
  -9  -7   4  283.17   10.70 
   9   7  -4  279.77   10.40 
  -9   7   4  280.97   12.00 
  -7  -7   4   71.79    6.20 
   7  -7  -4   64.59    6.80 
   7  -7  -4   64.99    7.00 
   7   7  -4   73.19    5.70 
  -7   7   4   76.39    7.20 
   5  -7  -4   16.40    3.50 
  -5  -7   4   20.40    3.90 
   5  -7  -4   11.70    3.80 
  -5   7   4   18.60    4.30 
  -5   7   4   18.40    4.40 
   5   7  -4   14.10    3.30 
   3  -7  -4  324.17   11.10 
  -3  -7   4  306.47   11.10 
   3   7  -4  310.17   10.80 
  -3   7   4  316.47   12.30 
  -3   7   4  312.07   12.30 
  -1   7   4  674.03   20.10 
   1   7  -4  655.43   18.40 
  -1   7   4  651.93   19.90 
  -1  -7  -4  670.23   18.90 
   1  -7   4  677.93   19.00 
   1   7   4  638.94   19.70 
   1   7   4  672.33   20.50 
  -1   7  -4  638.94   17.20 
  -1   7  -4  646.44   18.40 
   1   7   4  677.43   19.50 
  -3  -7  -4  232.58    9.20 
   3  -7   4  238.08   10.20 
  -3   7  -4  221.08    9.20 
   3   7   4  233.68   10.00 
  -3   7  -4  232.58    8.10 
  -5  -7  -4    2.50    3.10 
   5  -7   4    0.20    3.60 
  -5   7  -4    3.10    2.90 
  -5   7  -4    1.50    2.20 
   5   7   4    0.40    3.00 
   7  -7   4  142.59    9.00 
  -7  -7  -4  140.29    7.90 
  -7   7  -4  134.69    7.50 
   7   7   4  142.99    8.40 
  -4   8   4  368.26   20.30 
  -2   8   4  116.39    8.60 
   0   8   4    2.00    3.60 
 -22   0   5   81.59    7.20 
  22   0  -5   70.39    8.40 
  22   0  -5   72.79    8.80 
  20   0  -5   23.50    5.20 
 -20   0   5   29.10    3.60 
 -20   0   5   25.40    4.50 
  20   0  -5   26.70    4.90 
 -20   0   5   26.20    3.80 
  20   0  -5   23.80    5.20 
 -18   0   5  514.25   14.40 
 -18   0   5  517.15   15.10 
  18   0  -5  493.25   16.60 
  18   0  -5  501.55   17.00 
 -18   0   5  528.05   14.10 
  18   0  -5  489.35   16.90 
 -16   0   5 1502.25   35.70 
  16   0  -5 1451.15   37.60 
 -16   0   5 1499.25   35.00 
 -16   0   5 1506.05   34.80 
  16   0  -5 1410.96   37.70 
  16   0  -5 1497.65   37.90 
 -14   0   5  930.51   23.70 
 -14   0   5  962.90   23.00 
  14   0  -5  971.40   26.00 
 -14   0   5  931.21   23.10 
  14   0  -5  931.21   25.70 
  14   0  -5  975.50   25.70 
  12   0  -5  432.66   14.20 
 -12   0   5  453.05   12.70 
 -12   0   5  434.46   11.80 
 -12   0   5  430.66   12.50 
  12   0  -5  462.05   14.50 
 -12   0   5  447.66   11.70 
  12   0  -5  458.75   14.20 
 -10   0   5   43.00    3.30 
  10   0  -5   46.00    4.90 
 -10   0   5   35.70    4.20 
  10   0  -5   37.20    4.80 
  10   0  -5   49.00    5.10 
 -10   0   5   41.00    3.30 
 -10   0   5   40.70    3.40 
  10   0  -5   39.80    2.90 
 -10   0   5   40.80    4.30 
   8   0  -5  565.84   14.60 
  -8   0   5  595.74   16.10 
   8   0  -5  596.24   16.70 
  -8   0   5  589.74   14.60 
   8   0  -5  606.64   16.50 
  -8   0   5  595.94   15.20 
  -8   0   5  602.84   14.50 
   8   0  -5  623.64   16.50 
   8   0  -5  574.54   16.10 
   6   0  -5 1619.94   36.80 
  -6   0   5 1511.85   35.80 
   6   0  -5 1580.94   37.30 
   6   0  -5 1510.05   37.10 
   6   0  -5 1567.44   35.50 
  -6   0   5 1494.05   35.10 
   6   0  -5 1612.44   37.00 
  -6   0   5 1498.15   37.00 
  -4   0   5 2353.26   55.89 
   4   0  -5 2389.76   53.89 
  -4   0   5 2386.56   53.59 
  -4   0   5 2359.86   54.09 
   4   0  -5 2309.77   55.39 
   4   0  -5 2565.04   55.19 
   4   0  -5 2445.86   55.49 
  -4   0   5 2335.87   54.19 
   2   0  -5 1492.45   33.60 
   2   0  -5 1406.06   32.80 
  -2   0   5 1435.56   35.20 
   2   0  -5 1445.66   34.00 
  -2   0   5 1403.96   32.30 
  -2   0   5 1447.86   33.50 
   2   0  -5 1369.76   34.30 
   0   0  -5  101.19    4.10 
   0   0   5  111.39    5.10 
   0   0  -5  110.39    4.40 
   0   0   5  102.89    6.60 
   0   0  -5  109.89    4.90 
   0   0  -5  103.99    5.30 
   2   0   5   25.90    4.00 
   2   0   5   23.70    3.00 
  -2   0  -5   23.80    3.10 
  -2   0  -5   29.80    3.10 
  -2   0  -5   21.30    2.20 
  -4   0  -5 1147.59   29.00 
  -4   0  -5 1159.48   27.40 
   4   0   5 1181.68   30.40 
   4   0   5 1164.08   28.90 
  -4   0  -5 1168.78   26.70 
  -6   0  -5 2227.88   51.69 
   6   0   5 2336.17   53.79 
   6   0   5 2235.28   54.79 
  -6   0  -5 2254.37   53.49 
  -8   0  -5 1219.58   30.50 
   8   0   5 1180.98   32.20 
   8   0   5 1189.18   31.10 
  -8   0  -5 1214.18   28.80 
  10   0   5  429.86   15.20 
 -10   0  -5  448.16   14.10 
 -10   0  -5  429.56   12.30 
  10   0   5  418.96   15.90 
 -12   0  -5   14.90    3.00 
 -12   0  -5   13.30    3.90 
  12   0   5    6.70    4.50 
  12   0   5   11.70    5.40 
  14   0   5  314.57   14.10 
 -14   0  -5  292.77   11.90 
  14   0   5  279.87   13.60 
 -14   0  -5  312.87   10.40 
 -16   0  -5  490.15   14.90 
  16   0   5  469.35   18.20 
  23  -1  -5  335.37   14.80 
  23   1  -5  336.27   14.70 
 -21  -1   5  656.23   18.00 
 -21  -1   5  668.93   18.60 
  21  -1  -5  650.93   21.00 
  21  -1  -5  611.54   20.10 
  21   1  -5  643.64   20.60 
  21   1  -5  594.14   19.80 
 -21   1   5  625.94   18.10 
  19  -1  -5  571.64   18.80 
  19  -1  -5  550.04   18.60 
 -19  -1   5  612.14   16.10 
 -19  -1   5  605.54   17.10 
  19  -1  -5  602.54   19.60 
 -19  -1   5  586.74   16.40 
  19   1  -5  572.04   18.60 
  19   1  -5  561.44   18.60 
  19   1  -5  607.54   19.10 
 -19   1   5  586.04   16.80 
 -17  -1   5  283.97    9.40 
  17  -1  -5  283.27   11.70 
  17  -1  -5  292.37   11.80 
 -17  -1   5  282.47   10.30 
  17  -1  -5  292.77   12.50 
 -17  -1   5  275.57    9.60 
  17   1  -5  276.27   11.50 
 -17   1   5  286.67   10.30 
  17   1  -5  303.97   12.20 
  17   1  -5  272.67   11.80 
  15  -1  -5    4.40    3.30 
 -15  -1   5    5.60    2.40 
 -15  -1   5    3.40    2.40 
 -15  -1   5    2.50    2.90 
  15  -1  -5    3.70    3.40 
 -15  -1   5    3.70    2.50 
  15  -1  -5    3.90    3.70 
  15   1  -5    2.80    3.50 
  15   1  -5    4.60    2.10 
  15   1  -5    2.70    3.60 
 -15   1   5    2.60    2.80 
  15   1  -5    1.00    3.20 
 -13  -1   5  410.96   11.50 
 -13  -1   5  416.06   11.60 
  13  -1  -5  426.66   13.60 
 -13  -1   5  416.46   11.40 
 -13  -1   5  417.86   12.20 
  13  -1  -5  406.36   13.50 
  13  -1  -5  424.56   14.00 
  13   1  -5  395.16   11.30 
  13   1  -5  421.56   13.90 
 -13   1   5  402.96   12.20 
 -13   1   5  432.46   12.40 
  13   1  -5  394.86   14.10 
  13   1  -5  467.25   14.30 
  11  -1  -5 1250.77   30.90 
 -11  -1   5 1205.68   29.20 
 -11  -1   5 1171.48   29.10 
  11  -1  -5 1185.78   30.70 
 -11  -1   5 1180.88   28.70 
  11  -1  -5 1216.48   30.50 
 -11  -1   5 1177.08   28.60 
  11  -1  -5 1173.18   29.50 
 -11  -1   5 1211.28   28.50 
 -11   1   5 1218.98   29.70 
  11   1  -5 1200.68   31.40 
  11   1  -5 1244.88   31.20 
 -11   1   5 1261.07   29.30 
  11   1  -5 1160.68   28.60 
  11   1  -5 1376.66   31.40 
  -9  -1   5 1683.63   39.60 
  -9  -1   5 1675.33   38.90 
  -9  -1   5 1677.43   40.10 
   9  -1  -5 1681.03   41.00 
   9  -1  -5 1668.53   40.20 
   9  -1  -5 1705.93   40.80 
   9  -1  -5 1709.73   40.80 
   9   1  -5 1663.73   39.20 
  -9   1   5 1724.53   39.60 
   9   1  -5 1811.02   41.70 
  -9   1   5 1687.93   40.50 
   9   1  -5 1741.33   41.80 
  -7  -1   5  952.60   23.60 
   7  -1  -5 1013.10   24.60 
   7  -1  -5  966.90   24.40 
  -7  -1   5  970.50   24.60 
  -7  -1   5  937.41   23.00 
   7  -1  -5  980.20   24.60 
   7  -1  -5  986.80   24.90 
   7   1  -5 1060.79   25.50 
   7   1  -5  989.20   23.40 
   7   1  -5  984.10   25.00 
   7   1  -5 1015.80   25.60 
  -7   1   5  939.81   23.30 
  -7   1   5  992.40   23.50 
  -7   1   5  954.90   24.70 
   5  -1  -5   97.29    4.80 
   5  -1  -5   98.29    3.60 
  -5  -1   5   96.59    4.60 
   5  -1  -5  102.99    5.00 
  -5  -1   5   94.99    4.00 
  -5  -1   5   96.79    5.90 
   5  -1  -5   99.49    5.10 
   5  -1  -5  102.09    5.40 
   5   1  -5  110.39    6.00 
  -5   1   5   98.69    4.40 
   5   1  -5   93.89    5.40 
   5   1  -5  102.49    4.20 
  -5   1   5   94.19    5.80 
   5   1  -5  108.79    5.60 
  -5   1   5   88.29    4.30 
   3  -1  -5  498.15   13.50 
  -3  -1   5  506.75   13.00 
   3  -1  -5  472.65   13.70 
  -3  -1   5  485.25   14.40 
   3  -1  -5  485.25   12.90 
   3  -1  -5  485.55   13.60 
  -3  -1   5  494.55   12.20 
   3  -1  -5  498.55   12.10 
   3   1  -5  548.15   14.40 
   3   1  -5  484.65   14.20 
   3   1  -5  478.05   12.60 
  -3   1   5  492.25   13.20 
  -3   1   5  490.35   14.60 
  -3   1   5  438.36   14.80 
  -3   1   5  500.95   12.50 
   3   1  -5  553.44   14.00 
   1  -1  -5 1536.15   36.60 
   1  -1  -5 1557.04   35.40 
  -1  -1   5 1558.14   36.20 
   1  -1  -5 1484.05   36.30 
  -1  -1   5 1530.05   37.70 
   1  -1  -5 1501.55   37.10 
   1  -1  -5 1520.35   35.70 
   1   1  -5 1527.45   37.40 
  -1   1   5 1553.24   36.40 
   1   1  -5 1546.85   35.80 
  -1   1   5 1548.65   35.90 
  -1   1   5 1551.64   38.00 
   1   1  -5 1755.22   37.40 
  -1   1   5 1603.64   36.80 
  -1  -1  -5 1223.78   28.00 
  -1  -1  -5 1199.08   28.70 
  -1  -1  -5 1174.88   29.60 
   1  -1   5 1208.58   30.40 
   1  -1   5 1206.08   28.90 
   1   1   5 1225.58   29.40 
   1   1   5 1222.88   28.40 
   1   1   5 1226.38   30.90 
  -1   1  -5 1212.58   28.30 
  -1   1  -5 1149.89   29.60 
  -3  -1  -5 1205.18   30.40 
  -3  -1  -5 1222.48   29.20 
   3  -1   5 1229.18   30.20 
  -3  -1  -5 1266.67   28.90 
   3   1   5 1233.18   29.20 
  -3   1  -5 1229.78   30.60 
   3   1   5 1246.48   30.50 
  -3   1  -5 1239.78   29.20 
   3   1   5 1294.37   32.40 
  -3   1  -5 1222.98   28.40 
  -5  -1  -5  457.95   12.60 
  -5  -1  -5  491.95   12.50 
   5  -1   5  476.65   15.30 
   5  -1   5  486.25   14.20 
  -5  -1  -5  478.45   14.10 
  -5   1  -5  484.25   14.30 
   5   1   5  497.35   16.50 
   5   1   5  485.55   14.50 
   5   1   5  466.55   12.80 
  -5   1  -5  485.35   12.80 
  -5   1  -5  480.15   11.90 
   7  -1   5   60.09    6.80 
   7  -1   5   58.79    5.90 
  -7  -1  -5   60.09    5.10 
  -7  -1  -5   56.19    3.70 
   7   1   5   54.29    6.00 
  -7   1  -5   67.59    4.10 
   7   1   5   59.19    4.30 
  -7   1  -5   54.49    5.20 
  -7   1  -5   51.89    3.00 
   7   1   5   64.99    7.00 
   9  -1   5  614.64   19.70 
  -9  -1  -5  643.74   16.40 
   9  -1   5  613.94   19.00 
  -9  -1  -5  655.33   18.20 
  -9   1  -5  614.14   15.40 
  -9   1  -5  639.84   18.30 
   9   1   5  640.64   19.30 
   9   1   5  654.83   21.00 
   9   1   5  632.44   17.10 
  -9   1  -5  646.84   16.80 
  11  -1   5  896.01   26.30 
 -11  -1  -5  964.50   25.30 
  11  -1   5  935.31   27.10 
 -11  -1  -5  967.70   23.60 
 -11   1  -5 1003.10   25.70 
  11   1   5  951.30   24.60 
  11   1   5  923.91   28.10 
  11   1   5  938.51   27.00 
 -11   1  -5  948.71   23.80 
 -11   1  -5  924.61   22.90 
  13  -1   5  818.92   24.60 
 -13  -1  -5  790.22   20.70 
 -13  -1  -5  788.02   22.40 
  13  -1   5  789.82   24.00 
 -13   1  -5  784.12   21.00 
  13   1   5  863.11   25.70 
  13   1   5  805.42   23.00 
  13   1   5  755.42   24.50 
  15  -1   5  390.46   15.80 
  15  -1   5  416.76   16.20 
 -15  -1  -5  417.06   14.30 
 -15  -1  -5  397.96   12.50 
 -15   1  -5  387.86   12.80 
  15   1   5  379.66   16.50 
 -17  -1  -5   14.50    3.70 
  17  -1   5   23.80    6.20 
 -17  -1  -5   16.10    6.00 
 -17   1  -5   13.10    3.80 
  22  -2  -5  109.39   10.10 
  22   2  -5   98.09    9.60 
 -20  -2   5   24.80    4.70 
 -20  -2   5   32.40    4.80 
  20  -2  -5   26.80    5.10 
  20  -2  -5   28.10    5.20 
 -20  -2   5   29.20    4.10 
  20  -2  -5   29.80    6.00 
  20   2  -5   26.40    5.30 
  20   2  -5   25.40    5.70 
  20   2  -5   24.20    5.40 
 -20   2   5   26.10    4.30 
  18  -2  -5  517.25   17.10 
  18  -2  -5  529.55   17.30 
  18  -2  -5  546.15   18.50 
 -18  -2   5  503.65   14.90 
 -18  -2   5  513.75   15.00 
 -18  -2   5  538.65   14.80 
 -18  -2   5  536.95   15.20 
 -18  -2   5  533.75   15.70 
 -18   2   5  556.34   15.70 
  18   2  -5  578.54   18.80 
  18   2  -5  513.25   17.50 
  18   2  -5  491.55   17.10 
  16  -2  -5 1020.20   27.90 
 -16  -2   5 1009.30   24.60 
 -16  -2   5  992.20   25.30 
  16  -2  -5 1017.20   27.20 
  16  -2  -5 1006.20   27.10 
 -16  -2   5  997.90   24.90 
 -16  -2   5 1006.40   25.00 
  16  -2  -5 1036.20   28.10 
 -16   2   5  973.40   25.30 
 -16   2   5 1054.39   25.60 
  16   2  -5  962.80   24.80 
  16   2  -5  984.80   27.30 
  16   2  -5  977.80   27.60 
  14  -2  -5 1064.59   28.10 
 -14  -2   5 1030.10   25.50 
  14  -2  -5 1067.39   27.70 
 -14  -2   5 1015.90   25.10 
 -14  -2   5 1036.10   25.90 
  14  -2  -5 1029.80   27.40 
  14  -2  -5 1061.69   27.70 
 -14  -2   5 1023.30   25.40 
 -14   2   5 1140.89   26.30 
  14   2  -5 1025.70   25.40 
 -14   2   5 1021.10   26.20 
  14   2  -5  995.50   28.10 
  14   2  -5 1026.80   28.00 
 -12  -2   5  341.37   10.70 
  12  -2  -5  352.86   11.70 
  12  -2  -5  363.46   12.40 
 -12  -2   5  338.57   10.30 
  12  -2  -5  359.46   11.90 
 -12  -2   5  342.57   10.30 
 -12  -2   5  339.97   10.00 
  12  -2  -5  344.47   11.90 
  12   2  -5  332.67   12.70 
  12   2  -5  346.47   10.20 
  12   2  -5  350.86   12.60 
 -12   2   5  355.46   10.90 
 -12   2   5  343.77   11.20 
  10  -2  -5    8.60    2.80 
 -10  -2   5    9.50    2.40 
  10  -2  -5    7.50    2.30 
 -10  -2   5   11.80    2.30 
 -10  -2   5   13.70    2.80 
  10  -2  -5    7.60    2.90 
  10  -2  -5    6.80    2.40 
  10  -2  -5    9.10    2.70 
  10   2  -5   10.00    2.10 
 -10   2   5    8.80    2.90 
  10   2  -5    6.80    3.30 
  10   2  -5    5.60    3.30 
 -10   2   5    5.90    2.40 
  -8  -2   5  263.27    8.40 
   8  -2  -5  262.77    9.10 
   8  -2  -5  255.77    9.30 
   8  -2  -5  260.97    8.60 
   8  -2  -5  254.97    8.40 
  -8  -2   5  252.67    7.70 
   8  -2  -5  259.27    9.10 
  -8  -2   5  254.77    8.80 
   8  -2  -5  255.97    7.80 
  -8   2   5  290.17    8.60 
  -8   2   5  246.58    8.00 
   8   2  -5  244.88    9.80 
   8   2  -5  237.78   10.30 
   8   2  -5  256.47    8.00 
  -8   2   5  270.27    9.40 
   6  -2  -5 1769.32   39.90 
   6  -2  -5 1753.52   40.80 
  -6  -2   5 1747.83   41.10 
   6  -2  -5 1736.33   41.20 
  -6  -2   5 1765.62   39.60 
  -6  -2   5 1749.62   40.00 
   6  -2  -5 1711.63   40.70 
  -6   2   5 1738.43   40.20 
   6   2  -5 1756.22   40.00 
   6   2  -5 1550.64   41.30 
   6   2  -5 1632.74   42.40 
  -6   2   5 1828.12   41.70 
   4  -2  -5 1873.61   43.50 
   4  -2  -5 1908.51   43.60 
  -4  -2   5 1859.51   43.90 
   4  -2  -5 1880.21   42.40 
   4  -2  -5 1850.21   43.00 
  -4  -2   5 1893.91   42.10 
  -4   2   5 1862.11   43.10 
  -4   2   5 1872.61   44.30 
   4   2  -5 1855.41   44.50 
  -4   2   5 1903.61   43.20 
   4   2  -5 1870.21   42.60 
   4   2  -5 1568.74   44.20 
   2  -2  -5  936.31   23.10 
   2  -2  -5  939.91   23.60 
  -2  -2   5  955.10   24.40 
  -2  -2   5  953.40   22.40 
   2  -2  -5  942.71   22.70 
   2  -2  -5  967.20   24.00 
  -2   2   5  950.80   23.30 
  -2   2   5  990.10   23.90 
   2   2  -5  933.01   24.60 
  -2   2   5  953.20   25.00 
   2   2  -5  971.00   23.00 
   0  -2  -5  274.07    8.20 
   0  -2  -5  305.57    7.80 
   0  -2  -5  299.77    9.50 
   0  -2   5  298.87   10.30 
   0  -2   5  281.57    8.60 
   0  -2  -5  285.17    8.90 
   0   2   5  289.77    9.70 
   0   2   5  293.87    8.80 
   0   2  -5  281.87   10.10 
   0   2   5  292.57   10.90 
   0   2  -5  290.57    8.50 
  -2  -2  -5  126.99    4.30 
  -2  -2  -5  113.49    5.00 
   2  -2   5  115.99    6.80 
  -2  -2  -5  115.49    4.50 
   2  -2   5  115.39    5.50 
  -2  -2  -5  121.39    5.80 
   2   2   5  125.79    6.30 
   2   2   5  127.29    7.90 
  -2   2  -5  118.99    4.40 
   2   2   5  118.79    5.20 
  -2   2  -5  121.39    5.00 
  -2   2  -5  117.89    6.30 
   2   2   5  117.19    4.90 
  -4  -2  -5  920.81   21.70 
   4  -2   5  893.71   23.30 
   4  -2   5  923.31   24.50 
  -4  -2  -5  899.51   22.20 
  -4  -2  -5  898.71   23.40 
   4   2   5  906.41   23.90 
   4   2   5  910.41   22.80 
   4   2   5  905.11   22.20 
   4   2   5  994.90   26.00 
  -4   2  -5  897.91   21.60 
  -4   2  -5  917.41   22.40 
  -4   2  -5  913.21   24.00 
  -6  -2  -5 1637.04   40.50 
   6  -2   5 1675.63   41.00 
   6  -2   5 1683.43   41.80 
  -6  -2  -5 1682.33   38.90 
  -6  -2  -5 1638.94   39.00 
   6   2   5 1684.53   41.50 
   6   2   5 1676.13   39.60 
  -6   2  -5 1749.53   41.30 
   6   2   5 1662.53   39.90 
   6   2   5 1840.82   43.60 
  -6   2  -5 1646.24   38.50 
  -6   2  -5 1676.73   39.50 
   8  -2   5 1346.37   36.40 
  -8  -2  -5 1436.76   33.60 
  -8  -2  -5 1420.66   35.20 
   8  -2   5 1366.66   36.00 
   8   2   5 1399.76   34.70 
  -8   2  -5 1413.76   34.20 
   8   2   5 1410.46   36.50 
   8   2   5 1576.94   38.80 
  -8   2  -5 1413.76   33.00 
  -8   2  -5 1541.25   36.10 
 -10  -2  -5  228.48    9.30 
  10  -2   5  218.08   10.80 
  10  -2   5  224.38   10.50 
 -10  -2  -5  225.78    7.70 
  10   2   5  214.38    8.80 
 -10   2  -5  219.98    8.20 
 -10   2  -5  222.18    6.90 
  10   2   5  219.08   11.10 
  10   2   5  218.38   12.50 
 -10   2  -5  253.67   10.10 
 -12  -2  -5    6.90    2.60 
 -12  -2  -5   10.70    3.60 
  12  -2   5    3.60    4.20 
  12  -2   5    1.20    4.30 
 -12   2  -5    8.60    2.90 
 -12   2  -5    5.00    1.80 
  12   2   5    3.90    3.10 
  12   2   5    1.50    4.60 
  12   2   5    1.30    5.50 
  14  -2   5  199.48   11.20 
  14  -2   5  192.08   11.10 
 -14  -2  -5  199.48    9.50 
 -14  -2  -5  200.38    8.10 
 -14   2  -5  199.38    6.70 
  14   2   5  203.08    9.80 
 -14   2  -5  202.38    8.70 
  14   2   5  176.98   12.20 
  16  -2   5  618.34   20.20 
 -16  -2  -5  585.54   18.60 
 -16  -2  -5  592.64   17.10 
 -16   2  -5  614.04   17.90 
  18  -2   5  585.44   20.30 
 -18  -2  -5  571.34   18.50 
 -21  -3   5  527.35   16.00 
  21  -3  -5  517.95   19.40 
 -21   3   5  538.35   16.20 
 -19  -3   5  494.15   14.70 
  19  -3  -5  496.95   17.90 
 -19  -3   5  490.15   15.00 
  19  -3  -5  493.05   17.30 
  19  -3  -5  513.65   17.90 
 -19  -3   5  500.65   14.80 
 -19  -3   5  448.66   14.00 
  19  -3  -5  493.65   16.80 
  19   3  -5  475.65   17.80 
  19   3  -5  463.25   17.00 
 -19   3   5  517.95   15.30 
  17  -3  -5  160.48    9.80 
  17  -3  -5  165.78    9.60 
 -17  -3   5  161.78    8.10 
 -17  -3   5  161.78    7.20 
  17  -3  -5  172.08    9.10 
  17  -3  -5  165.38    9.20 
 -17  -3   5  159.48    7.70 
 -17  -3   5  163.28    7.70 
  17   3  -5  146.69    9.80 
  17   3  -5  152.58    9.80 
 -17   3   5  151.98    8.00 
 -17   3   5  155.58    8.10 
 -15  -3   5    2.80    3.10 
  15  -3  -5    3.70    3.30 
 -15  -3   5    5.60    2.80 
 -15  -3   5    4.90    2.90 
  15  -3  -5    5.70    3.50 
 -15  -3   5    1.50    2.60 
  15  -3  -5    4.00    3.70 
  15  -3  -5    7.10    3.50 
 -15   3   5   -1.20    3.00 
  15   3  -5   -3.00    3.80 
  15   3  -5    7.10    2.60 
 -15   3   5    0.50    3.00 
  15   3  -5   -3.00    4.00 
  13  -3  -5  377.46   12.80 
 -13  -3   5  367.06   10.80 
 -13  -3   5  360.56   11.10 
 -13  -3   5  371.06   11.50 
  13  -3  -5  380.46   12.80 
  13  -3  -5  365.56   12.60 
  13  -3  -5  378.96   13.30 
 -13  -3   5  372.26   11.30 
  13   3  -5  364.76   11.10 
  13   3  -5  324.17   13.50 
 -13   3   5  377.56   12.30 
  13   3  -5  357.16   14.00 
  11  -3  -5  988.30   25.80 
  11  -3  -5  984.80   25.90 
 -11  -3   5 1008.90   24.60 
  11  -3  -5  993.80   25.80 
  11  -3  -5  994.80   24.30 
 -11  -3   5  993.00   23.90 
  11  -3  -5 1007.30   26.20 
 -11  -3   5 1008.00   24.50 
 -11   3   5  962.30   24.40 
 -11   3   5 1062.69   25.80 
  11   3  -5  959.40   27.30 
  11   3  -5 1001.80   24.40 
  11   3  -5  856.01   26.40 
  -9  -3   5  993.70   24.10 
   9  -3  -5 1022.70   24.80 
   9  -3  -5 1007.40   26.00 
  -9  -3   5 1019.50   24.80 
   9  -3  -5 1024.50   24.50 
   9  -3  -5 1017.00   26.00 
  -9   3   5 1050.49   26.10 
   9   3  -5  927.01   27.20 
   9   3  -5  979.10   26.40 
   9   3  -5 1032.80   24.70 
  -9   3   5  990.20   24.80 
  -7  -3   5  970.30   24.40 
   7  -3  -5  974.00   24.10 
  -7  -3   5  974.40   23.70 
   7  -3  -5  973.90   24.90 
  -7  -3   5  985.80   23.30 
   7  -3  -5  998.50   23.50 
   7  -3  -5  991.90   24.80 
   7   3  -5  989.50   23.80 
  -7   3   5  948.91   24.10 
  -7   3   5  995.90   25.30 
   7   3  -5  882.81   25.70 
   5  -3  -5   38.70    4.00 
  -5  -3   5   43.00    4.80 
   5  -3  -5   37.50    3.20 
   5  -3  -5   49.70    4.50 
  -5  -3   5   35.20    2.90 
   5  -3  -5   38.50    4.00 
  -5   3   5   38.00    4.30 
  -5   3   5   33.60    4.20 
   5   3  -5   46.80    6.50 
   5   3  -5   38.50    3.50 
   3  -3  -5  408.36   11.80 
  -3  -3   5  407.56   12.60 
  -3  -3   5  418.26   11.00 
   3  -3  -5  422.66   12.20 
   3  -3  -5  406.86   12.10 
   3  -3  -5  409.16   11.00 
  -3   3   5  436.86   12.50 
   3   3  -5  410.86   11.50 
  -3   3   5  412.56   12.20 
  -3   3   5  415.46   13.50 
   1  -3  -5  900.61   22.90 
   1  -3  -5  877.61   22.50 
  -1  -3   5  892.11   23.30 
   1  -3  -5  913.51   21.70 
  -1   3   5  890.81   22.70 
   1   3  -5  914.31   22.20 
  -1   3   5  912.31   23.30 
  -1   3   5  904.51   24.40 
  -1  -3  -5 1284.77   30.70 
  -1  -3  -5 1292.07   31.30 
   1  -3   5 1265.87   31.90 
  -1  -3  -5 1294.07   30.00 
  -1   3  -5 1287.57   29.90 
  -1   3  -5 1192.18   32.30 
   1   3   5 1310.27   32.00 
   1   3   5 1283.47   30.80 
  -1   3  -5 1285.27   30.60 
   1   3   5 1304.27   33.20 
   1   3   5 1301.27   31.20 
  -3  -3  -5  772.42   20.30 
   3  -3   5  772.22   20.20 
  -3  -3  -5  786.22   18.90 
   3  -3   5  770.42   21.10 
  -3  -3  -5  778.22   19.50 
   3   3   5  780.62   19.60 
  -3   3  -5  744.03   21.40 
   3   3   5  763.92   20.10 
   3   3   5  804.62   22.80 
  -3   3  -5  767.62   19.50 
  -3   3  -5  762.62   18.70 
   3   3   5  794.22   21.40 
  -5  -3  -5  329.77   10.80 
   5  -3   5  328.57   11.20 
  -5  -3  -5  335.47    9.30 
  -5  -3  -5  325.97    9.10 
  -5  -3  -5  320.97    9.70 
   5  -3   5  324.47   11.80 
   5   3   5  331.47   12.00 
  -5   3  -5  320.77   10.00 
  -5   3  -5  331.47   12.00 
  -5   3  -5  329.57    9.10 
   5   3   5  331.77   10.00 
   5   3   5  323.37   10.70 
   5   3   5  352.96   13.80 
  -7  -3  -5   14.70    2.20 
  -7  -3  -5   11.00    2.00 
   7  -3   5   14.50    3.70 
   7  -3   5   12.50    4.00 
  -7  -3  -5   10.20    2.20 
  -7  -3  -5   11.80    3.10 
   7   3   5   10.40    2.40 
   7   3   5    7.10    5.10 
   7   3   5   12.50    4.00 
  -7   3  -5    7.20    3.60 
  -7   3  -5    8.30    1.90 
  -7   3  -5   17.80    2.90 
   7   3   5   14.50    3.10 
   9  -3   5  652.93   19.60 
  -9  -3  -5  668.13   17.10 
  -9  -3  -5  640.74   18.60 
  -9  -3  -5  687.13   16.90 
   9  -3   5  643.74   19.90 
   9   3   5  653.03   17.50 
   9   3   5  602.24   18.80 
  -9   3  -5  660.53   17.60 
   9   3   5  695.33   22.20 
   9   3   5  670.33   18.60 
  -9   3  -5  659.03   16.40 
   9   3   5  677.73   20.90 
  11  -3   5  612.64   19.40 
 -11  -3  -5  617.94   18.30 
  11  -3   5  621.84   19.60 
 -11  -3  -5  645.44   16.60 
 -11   3  -5  631.94   17.30 
  11   3   5  595.44   20.60 
 -11   3  -5  622.14   15.90 
  11   3   5  631.14   18.40 
  11   3   5  648.34   21.00 
  13  -3   5  598.74   19.40 
  13  -3   5  594.04   19.50 
 -13  -3  -5  603.04   18.30 
 -13  -3  -5  592.74   16.40 
  13   3   5  585.44   18.40 
  13   3   5  599.34   21.40 
 -13   3  -5  640.64   17.50 
 -13   3  -5  605.04   15.50 
 -15  -3  -5  393.06   14.00 
  15  -3   5  398.76   15.40 
 -15  -3  -5  374.06   12.00 
 -15   3  -5  368.06   10.90 
 -15   3  -5  369.66   12.90 
  17  -3   5    4.50    5.40 
 -17  -3  -5    1.70    4.10 
  18  -4  -5  361.96   15.00 
 -18  -4   5  381.46   12.60 
 -18  -4   5  372.96   12.50 
  18  -4  -5  358.26   13.90 
  18   4  -5  337.97   15.20 
 -18   4   5  368.46   13.00 
  16  -4  -5  771.42   22.50 
 -16  -4   5  801.32   21.10 
  16  -4  -5  794.62   22.70 
  16  -4  -5  788.62   23.60 
  16  -4  -5  803.52   23.60 
 -16  -4   5  808.32   20.80 
 -16  -4   5  795.42   21.00 
  16   4  -5  774.62   20.80 
 -16   4   5  766.52   21.80 
  16   4  -5  782.92   24.20 
  16   4  -5  706.13   23.90 
 -14  -4   5  657.23   17.50 
  14  -4  -5  652.43   19.90 
 -14  -4   5  672.13   17.90 
 -14  -4   5  663.73   17.10 
  14  -4  -5  661.93   19.30 
 -14  -4   5  652.13   17.70 
  14  -4  -5  645.74   19.60 
  14  -4  -5  648.04   19.20 
  14   4  -5  637.44   17.50 
  14   4  -5  558.24   20.10 
 -14   4   5  649.24   18.80 
  14   4  -5  599.84   20.50 
  12  -4  -5  276.97   10.90 
  12  -4  -5  275.97   11.00 
 -12  -4   5  271.97    9.70 
 -12  -4   5  284.87   10.00 
  12  -4  -5  280.87   11.30 
 -12  -4   5  291.47    9.60 
  12  -4  -5  289.57   11.10 
  12  -4  -5  287.97    9.10 
 -12  -4   5  284.97    9.20 
  12   4  -5  276.77   11.90 
 -12   4   5  289.47   11.00 
  12   4  -5  229.38   11.90 
  12   4  -5  284.67    9.50 
 -12   4   5  281.57    9.90 
 -10  -4   5   18.80    3.50 
 -10  -4   5    7.00    2.50 
  10  -4  -5    4.70    2.90 
  10  -4  -5    3.70    2.90 
 -10  -4   5    3.70    2.70 
  10  -4  -5    7.00    2.20 
  10  -4  -5    6.20    3.20 
 -10   4   5    9.30    3.60 
  10   4  -5    5.40    2.30 
 -10   4   5    5.80    2.70 
  10   4  -5    9.10    3.90 
  -8  -4   5  245.08    8.70 
   8  -4  -5  234.98    9.30 
   8  -4  -5  254.57    7.90 
  -8  -4   5  251.07    8.10 
   8  -4  -5  235.58    9.40 
   8   4  -5  243.18    8.30 
  -8   4   5  243.38   10.00 
  -8   4   5  241.58    8.90 
   8   4  -5  244.98   10.30 
   6  -4  -5 1041.80   26.50 
  -6  -4   5 1008.60   26.70 
   6  -4  -5 1039.90   26.40 
   6  -4  -5 1045.10   25.00 
   6  -4  -5 1047.20   25.80 
  -6  -4   5 1046.10   25.00 
  -6   4   5 1033.10   26.20 
  -6   4   5 1044.60   27.20 
   6   4  -5 1018.10   25.50 
   4  -4  -5 1355.66   33.30 
   4  -4  -5 1372.46   33.40 
  -4  -4   5 1369.06   33.30 
   4  -4  -5 1380.96   33.10 
  -4  -4   5 1355.26   32.00 
   4  -4  -5 1385.26   32.10 
  -4   4   5 1381.56   33.60 
  -4   4   5 1396.16   34.00 
  -4   4   5 1330.87   34.40 
   4   4  -5 1343.37   32.70 
   2  -4  -5  723.03   18.80 
  -2  -4   5  702.63   19.20 
   2  -4  -5  703.73   18.80 
  -2  -4   5  696.13   17.60 
   2  -4  -5  698.33   17.60 
  -2   4   5  732.83   19.50 
  -2   4   5  723.73   19.40 
   2   4  -5  707.13   18.40 
  -2   4   5  705.03   20.30 
   0  -4  -5  137.39    5.30 
   0  -4  -5  144.39    6.40 
   0  -4  -5  138.99    6.10 
   0  -4   5  132.09    7.00 
   0   4  -5  143.09    5.40 
   0   4   5  128.09    7.20 
   0   4   5  134.09    8.20 
   0   4   5  139.09    6.80 
   0   4  -5  136.79    5.90 
   2  -4   5   55.29    5.90 
  -2  -4  -5   51.89    4.20 
  -2  -4  -5   54.89    4.60 
  -2  -4  -5   52.09    3.50 
   2   4   5   55.19    6.00 
  -2   4  -5   51.59    3.70 
   2   4   5   54.49    5.90 
   2   4   5   51.29    4.70 
  -2   4  -5   54.69    4.40 
   2   4   5   51.79    5.10 
  -4  -4  -5  664.63   18.10 
   4  -4   5  674.73   19.20 
   4  -4   5  637.64   18.60 
  -4  -4  -5  659.93   16.50 
  -4  -4  -5  655.83   17.30 
   4   4   5  658.03   19.40 
  -4   4  -5  654.33   16.60 
   4   4   5  660.03   17.70 
   4   4   5  667.33   18.50 
  -4   4  -5  654.73   17.50 
   4   4   5  662.03   20.70 
  -6  -4  -5 1214.68   29.30 
   6  -4   5 1148.09   30.70 
  -6  -4  -5 1214.48   30.40 
   6  -4   5 1213.68   31.50 
  -6  -4  -5 1235.68   28.60 
   6   4   5 1209.38   29.70 
  -6   4  -5 1185.88   29.50 
   6   4   5 1179.48   32.90 
   6   4   5 1201.18   32.10 
  -6   4  -5 1228.68   28.60 
   6   4   5 1217.08   30.70 
   8  -4   5  880.01   24.20 
  -8  -4  -5  897.11   23.50 
   8  -4   5  861.61   24.60 
  -8  -4  -5  865.11   21.30 
  -8  -4  -5  880.91   22.10 
   8   4   5  898.51   25.80 
  -8   4  -5  869.91   22.50 
  -8   4  -5  878.21   21.40 
   8   4   5  789.32   25.40 
   8   4   5  897.01   23.80 
   8   4   5  880.31   22.00 
   8   4   5  865.81   22.60 
 -10  -4  -5  202.48    7.60 
 -10  -4  -5  188.88    6.90 
  10  -4   5  200.18   10.30 
 -10  -4  -5  198.48    9.20 
  10  -4   5  203.68   10.60 
 -10   4  -5  193.18    6.90 
 -10   4  -5  196.68    8.10 
  10   4   5  188.88    7.40 
  10   4   5  194.68    9.30 
  10   4   5  194.58   11.70 
  10   4   5  186.48    8.10 
 -12  -4  -5    4.00    2.60 
  12  -4   5    5.10    4.30 
  12  -4   5    3.30    4.60 
 -12  -4  -5    3.10    3.70 
  12   4   5    4.50    2.90 
  12   4   5    3.30    5.50 
 -12   4  -5    2.40    2.20 
 -12   4  -5    2.80    2.90 
 -14  -4  -5  165.38    9.50 
  14  -4   5  168.98   10.90 
 -14  -4  -5  182.98    7.60 
 -14   4  -5  165.88    6.80 
 -14   4  -5  175.58    8.90 
  14   4   5  162.08   12.30 
  17  -5  -5  165.38   10.80 
 -17   5   5  148.79    9.20 
 -15  -5   5    4.60    3.80 
  15  -5  -5    5.60    4.40 
 -15  -5   5    5.70    3.40 
  15  -5  -5    5.30    3.90 
  15   5  -5   -2.00    4.50 
 -15   5   5    1.10    3.80 
  15   5  -5    3.80    2.90 
 -15   5   5    3.90    4.50 
 -13  -5   5  199.28    8.90 
 -13  -5   5  184.28    8.50 
 -13  -5   5  193.88    8.50 
  13  -5  -5  190.28   10.00 
  13  -5  -5  189.48    9.70 
  13  -5  -5  193.38   10.30 
  13  -5  -5  190.48    9.60 
  13  -5  -5  196.58    7.50 
  13   5  -5  177.78   10.70 
  13   5  -5  188.78    8.10 
 -13   5   5  191.18    9.80 
 -13   5   5  187.48    8.70 
  11  -5  -5  621.04   16.40 
 -11  -5   5  600.04   16.30 
  11  -5  -5  606.94   18.80 
 -11  -5   5  628.04   17.10 
  11  -5  -5  615.14   18.90 
  11  -5  -5  598.84   18.30 
 -11  -5   5  633.54   17.30 
 -11   5   5  612.84   18.60 
  11   5  -5  588.74   16.80 
 -11   5   5  599.84   17.60 
   9  -5  -5  839.42   23.10 
   9  -5  -5  825.72   22.80 
  -9  -5   5  825.02   21.60 
  -9  -5   5  823.32   20.80 
   9  -5  -5  838.62   20.90 
  -9  -5   5  845.22   21.70 
  -9   5   5  817.52   23.10 
  -9   5   5  812.92   22.20 
   9   5  -5  811.72   21.50 
  -7  -5   5  426.16   12.00 
   7  -5  -5  425.46   13.60 
   7  -5  -5  435.06   11.90 
   7  -5  -5  423.56   13.60 
  -7   5   5  419.46   13.30 
   7   5  -5  401.96   12.40 
  -7   5   5  391.26   14.10 
  -5  -5   5   49.80    4.60 
   5  -5  -5   57.89    3.90 
   5  -5  -5   53.79    5.40 
   5  -5  -5   55.29    5.30 
  -5   5   5   53.19    5.50 
   5   5  -5   47.00    4.50 
  -5   5   5   51.59    6.10 
  -5   5   5   50.69    6.40 
   3  -5  -5  236.78    8.50 
   3  -5  -5  231.18    8.80 
  -3  -5   5  233.38    8.90 
  -3  -5   5  222.48    7.70 
   3  -5  -5  228.48    7.40 
  -3   5   5  225.08    9.60 
   3   5  -5  216.58    8.30 
  -3   5   5  214.48   10.20 
  -3   5   5  227.98    9.40 
   1  -5  -5  756.02   20.10 
  -1  -5   5  736.73   20.50 
   1  -5  -5  756.12   18.80 
   1  -5  -5  760.22   20.00 
  -1  -5   5  774.92   19.00 
   1   5  -5  757.72   19.90 
  -1   5   5  732.83   21.90 
  -1   5   5  774.22   21.30 
  -1   5   5  756.92   21.10 
  -1  -5  -5  560.44   14.60 
   1  -5   5  553.54   16.70 
  -1  -5  -5  561.44   15.70 
  -1  -5  -5  547.05   15.80 
   1   5   5  567.14   16.30 
  -1   5  -5  575.84   15.70 
   1   5   5  568.04   16.90 
  -1   5  -5  575.44   14.90 
   1   5   5  559.94   17.20 
   1   5   5  552.74   18.10 
  -3  -5  -5  617.24   15.70 
   3  -5   5  623.64   18.30 
  -3  -5  -5  603.64   17.20 
  -3  -5  -5  627.74   16.90 
  -3   5  -5  611.74   15.90 
   3   5   5  618.84   17.40 
   3   5   5  589.04   18.50 
  -3   5  -5  616.54   16.90 
   3   5   5  597.24   19.40 
   3   5   5  632.14   18.20 
   5  -5   5  221.58   10.10 
  -5  -5  -5  220.98    7.20 
  -5  -5  -5  215.38    8.90 
  -5  -5  -5  217.28    8.20 
   5   5   5  218.28    9.60 
   5   5   5  210.18   10.50 
   5   5   5  197.58   10.60 
  -5   5  -5  218.38    8.40 
  -5   5  -5  226.18    7.50 
   5   5   5  216.88    8.80 
  -7  -5  -5   33.00    3.60 
  -7  -5  -5   27.60    3.50 
  -7  -5  -5   36.20    4.50 
   7  -5   5   29.60    4.90 
   7  -5   5   28.20    4.70 
   7   5   5   34.80    5.70 
   7   5   5   33.80    4.00 
  -7   5  -5   30.50    3.80 
   7   5   5   21.00    6.10 
  -7   5  -5   30.30    3.10 
   7   5   5   34.10    4.60 
  -9  -5  -5  287.17    9.90 
  -9  -5  -5  289.67    9.00 
   9  -5   5  291.17   12.50 
   9  -5   5  279.97   11.90 
  -9  -5  -5  287.87   11.20 
   9   5   5  293.27   13.80 
  -9   5  -5  283.07   10.20 
   9   5   5  275.87    9.90 
  -9   5  -5  289.57    9.10 
   9   5   5  282.97   10.60 
 -11  -5  -5  503.65   14.70 
  11  -5   5  505.75   17.50 
 -11  -5  -5  491.55   16.10 
 -11   5  -5  479.25   13.70 
  11   5   5  494.65   14.60 
 -11   5  -5  497.55   15.10 
  11   5   5  500.95   15.50 
  13   5   5  402.96   13.90 
 -14   6   5  374.16   15.50 
 -12  -6   5  155.38    8.60 
  12  -6  -5  150.78    9.70 
 -12   6   5  142.39    9.20 
  10  -6  -5   10.90    4.10 
 -10  -6   5    5.60    3.40 
 -10  -6   5   10.00    3.90 
 -10   6   5   10.70    4.20 
 -10   6   5    6.90    3.50 
  10   6  -5    7.30    3.00 
  -8  -6   5  162.08    8.10 
  -8  -6   5  189.18    8.50 
   8  -6  -5  173.28    8.80 
   8  -6  -5  171.68    9.20 
  -8   6   5  180.68    8.90 
   8   6  -5  160.98    7.70 
  -8   6   5  166.58    9.70 
   6  -6  -5  568.44   17.60 
   6  -6  -5  592.34   17.40 
  -6  -6   5  595.94   16.80 
   6  -6  -5  567.94   15.30 
  -6   6   5  559.04   18.20 
   6   6  -5  548.35   16.30 
  -6   6   5  581.44   17.50 
   4  -6  -5  759.92   21.30 
   4  -6  -5  764.82   21.00 
   4  -6  -5  761.12   19.20 
  -4   6   5  753.52   22.40 
  -4   6   5  767.02   22.30 
   4   6  -5  729.33   20.30 
  -4   6   5  772.12   21.70 
  -2  -6   5  457.45   14.00 
  -2  -6   5  450.05   15.20 
   2  -6  -5  460.85   14.10 
   2  -6  -5  455.25   12.50 
   2   6  -5  436.96   13.70 
  -2   6   5  468.45   15.40 
  -2   6   5  443.56   15.70 
  -2   6   5  461.65   15.20 
   0  -6  -5   64.19    5.30 
   0  -6  -5   57.89    5.20 
   0  -6  -5   54.59    4.10 
   0  -6   5   62.49    6.40 
   0   6   5   61.19    6.70 
   0   6   5   55.59    6.30 
   0   6  -5   58.19    5.40 
   0   6   5   61.39    6.50 
   2  -6   5   25.40    4.40 
  -2  -6  -5   23.10    3.60 
  -2  -6  -5   18.30    3.10 
  -2  -6  -5   20.90    3.70 
   2   6   5   24.00    4.70 
  -2   6  -5   22.60    3.70 
   2   6   5   19.50    4.60 
   2   6   5   27.40    4.20 
  -2   6  -5   21.70    3.10 
  -4  -6  -5  395.06   13.00 
  -4  -6  -5  397.66   12.60 
   4  -6   5  400.56   14.10 
  -4   6  -5  406.56   12.80 
   4   6   5  357.56   15.90 
   4   6   5  404.86   13.30 
   4   6   5  378.06   14.60 
  -4   6  -5  389.06   11.50 
   6  -6   5  738.03   22.00 
  -6  -6  -5  750.22   20.90 
  -6   6  -5  745.53   19.10 
   6   6   5  738.23   20.90 
  -6   6  -5  727.93   20.30 
   8  -6   5  454.45   16.40 
  -8  -6  -5  479.75   15.30 
   8   6   5  449.36   14.90 
  -8   6  -5  457.95   15.00 
  10   6   5  121.09    8.40 
   7  -7  -5  287.27   14.70 
  -7   7   5  264.47   14.00 
   5  -7  -5   11.50    4.10 
  -5   7   5   14.30    4.70 
   3  -7  -5  109.09    7.80 
  -3   7   5  110.99    8.80 
  -1   7   5  351.16   14.30 
   1  -7   5  373.96   13.60 
   1   7   5  376.56   14.80 
   3  -7   5  294.37   12.10 
  -3  -7  -5  290.77   10.90 
   3   7   5  269.67   13.10 
  22   0  -6  144.59   10.80 
  20   0  -6   39.00    6.70 
 -20   0   6   32.40    4.70 
  20   0  -6   34.00    5.40 
  18   0  -6   67.09    7.60 
  18   0  -6   68.79    7.80 
 -18   0   6   69.09    7.10 
  16   0  -6  555.04   18.20 
  16   0  -6  578.64   18.10 
 -16   0   6  571.54   16.40 
  14   0  -6  948.61   25.90 
 -14   0   6  951.60   24.10 
  14   0  -6  944.41   26.10 
 -12   0   6  893.91   23.50 
  12   0  -6  919.41   24.90 
 -12   0   6  906.71   23.10 
  12   0  -6  946.71   24.80 
  10   0  -6  161.88    8.00 
  10   0  -6  169.08    7.90 
 -10   0   6  147.39    7.30 
 -10   0   6  147.29    6.80 
   8   0  -6   28.50    3.70 
   8   0  -6   34.20    4.00 
  -8   0   6   29.80    4.20 
  -8   0   6   30.00    3.20 
   8   0  -6   39.50    4.40 
   6   0  -6  558.24   15.80 
   6   0  -6  524.75   15.70 
   6   0  -6  581.44   15.50 
  -6   0   6  532.65   14.30 
  -6   0   6  544.35   16.00 
   6   0  -6  518.65   13.70 
   4   0  -6 1521.15   37.90 
   4   0  -6 1685.23   38.00 
  -4   0   6 1518.75   38.20 
  -4   0   6 1547.25   36.30 
   4   0  -6 1549.45   36.10 
   2   0  -6 1075.79   25.30 
  -2   0   6  954.40   23.70 
  -2   0   6  994.30   26.40 
   2   0  -6  951.20   25.40 
   2   0  -6 1003.20   23.70 
  -2   0   6  995.60   24.80 
   0   0   6  516.15   14.30 
   0   0  -6  528.25   13.40 
   0   0  -6  508.95   15.20 
   0   0   6  510.65   16.40 
  -2   0  -6   45.80    3.70 
   2   0   6   57.59    7.00 
  -2   0  -6   44.10    5.00 
   2   0   6   45.00    4.90 
  -4   0  -6  467.15   12.60 
   4   0   6  457.15   16.00 
  -4   0  -6  451.45   14.40 
   4   0   6  458.85   14.00 
   6   0   6  728.83   20.60 
  -6   0  -6  741.23   20.80 
   6   0   6  729.43   22.60 
  -6   0  -6  723.73   18.70 
  -8   0  -6  811.92   20.70 
  -8   0  -6  823.22   23.00 
   8   0   6  823.62   23.30 
   8   0   6  798.22   24.90 
 -10   0  -6  711.13   20.90 
  10   0   6  706.73   21.70 
 -10   0  -6  706.73   18.60 
  10   0   6  674.33   22.80 
  12   0   6   99.69    9.40 
 -12   0  -6  114.79    6.40 
  12   0   6  109.59   10.90 
 -12   0  -6  124.69    8.40 
  14   0   6   33.90    7.40 
 -14   0  -6   34.30    5.50 
 -14   0  -6   30.60    4.20 
  21  -1  -6  412.06   15.90 
 -19  -1   6  756.52   20.40 
  19  -1  -6  716.23   22.10 
  19  -1  -6  718.13   22.50 
 -19  -1   6  755.02   20.30 
 -19   1   6  729.53   20.20 
  19   1  -6  713.93   21.80 
 -17  -1   6  479.95   14.00 
  17  -1  -6  496.65   16.70 
 -17  -1   6  488.85   14.30 
  17  -1  -6  510.15   17.30 
 -17  -1   6  514.75   15.10 
  17  -1  -6  501.55   16.80 
  17   1  -6  504.35   16.50 
  17   1  -6  489.95   16.90 
 -17   1   6  516.85   15.30 
 -15  -1   6   69.89    5.20 
 -15  -1   6   73.59    5.40 
 -15  -1   6   70.79    6.40 
  15  -1  -6   74.99    7.00 
  15  -1  -6   75.39    7.40 
  15  -1  -6   77.79    7.00 
 -15   1   6   69.99    6.40 
  15   1  -6   72.79    7.00 
  15   1  -6   68.99    7.30 
 -13  -1   6   68.09    4.80 
  13  -1  -6   76.19    6.80 
 -13  -1   6   65.89    5.80 
 -13  -1   6   67.99    5.00 
  13  -1  -6   66.99    6.40 
  13  -1  -6   66.99    6.30 
  13   1  -6   71.59    6.60 
 -13   1   6   66.49    6.00 
  13   1  -6   73.89    7.10 
 -13   1   6   74.49    6.00 
 -11  -1   6  724.23   18.50 
  11  -1  -6  707.63   19.60 
 -11  -1   6  719.03   18.20 
  11  -1  -6  726.63   20.30 
 -11  -1   6  717.73   21.10 
  11  -1  -6  724.53   20.60 
 -11  -1   6  712.93   18.40 
 -11  -1   6  709.43   19.00 
  11  -1  -6  733.73   22.00 
 -11   1   6  777.62   19.20 
  11   1  -6  829.72   21.20 
  11   1  -6  695.43   18.30 
  11   1  -6  764.42   21.40 
 -11   1   6  727.93   19.90 
   9  -1  -6 1252.47   31.50 
  -9  -1   6 1195.58   30.70 
   9  -1  -6 1201.88   30.80 
  -9  -1   6 1181.98   29.90 
   9  -1  -6 1275.47   31.30 
  -9  -1   6 1193.88   29.10 
   9   1  -6 1186.48   29.40 
   9   1  -6 1322.07   32.30 
  -9   1   6 1287.07   29.90 
  -9   1   6 1224.18   31.10 
   9   1  -6 1376.16   32.10 
  -7  -1   6  953.60   25.10 
   7  -1  -6  998.90   25.10 
  -7  -1   6  970.70   24.00 
  -7  -1   6  951.20   23.20 
   7  -1  -6  951.50   24.90 
   7  -1  -6  981.00   25.40 
   7   1  -6 1065.99   26.20 
   7   1  -6  972.60   23.60 
   7   1  -6  981.20   25.60 
  -7   1   6  998.80   25.40 
  -7   1   6  967.30   25.50 
   5  -1  -6  521.45   14.50 
   5  -1  -6  502.75   14.80 
   5  -1  -6  522.55   15.00 
  -5  -1   6  499.65   15.40 
  -5  -1   6  479.25   12.90 
  -5  -1   6  501.85   13.70 
   5   1  -6  588.74   15.80 
   5   1  -6  504.15   15.20 
   5   1  -6  496.75   13.30 
  -5   1   6  510.75   15.60 
   3  -1  -6   12.70    2.80 
   3  -1  -6   13.60    2.60 
  -3  -1   6    6.30    3.50 
   3  -1  -6    8.80    2.70 
  -3  -1   6    6.80    1.80 
   3   1  -6   10.60    2.10 
  -3   1   6   12.60    2.70 
   3   1  -6    7.30    2.90 
  -3   1   6    8.30    3.60 
  -1  -1   6  387.86   13.20 
   1  -1  -6  372.46   12.20 
   1  -1  -6  393.06   10.30 
   1  -1  -6  399.36   11.80 
  -1  -1   6  394.36   10.10 
  -1   1   6  382.86   13.30 
   1   1  -6  384.96   12.40 
  -1   1   6  388.46   11.80 
   1   1  -6  388.06   10.80 
  -1  -1  -6 1342.47   34.10 
   1  -1   6 1361.06   33.10 
  -1  -1  -6 1397.06   33.30 
   1  -1   6 1360.36   35.10 
  -1  -1  -6 1358.86   32.00 
  -1   1  -6 1359.76   34.30 
  -1   1  -6 1377.16   32.40 
   1   1   6 1424.06   35.50 
   1   1   6 1410.56   33.70 
  -3  -1  -6 1472.45   37.30 
   3  -1   6 1531.15   36.60 
  -3  -1  -6 1521.35   35.20 
   3  -1   6 1472.65   38.30 
  -3   1  -6 1536.85   35.60 
  -3   1  -6 1501.75   37.40 
   3   1   6 1550.84   39.10 
   3   1   6 1501.75   36.90 
  -5  -1  -6  569.14   14.70 
   5  -1   6  552.54   18.30 
   5  -1   6  572.64   16.60 
  -5  -1  -6  549.15   16.80 
  -5   1  -6  574.64   17.00 
   5   1   6  548.05   16.60 
  -5   1  -6  554.54   15.00 
   5   1   6  587.54   19.10 
  -7  -1  -6   64.09    4.50 
   7  -1   6   68.39    7.30 
  -7  -1  -6   61.79    6.20 
   7  -1   6   79.19    6.90 
  -7   1  -6   67.19    6.30 
   7   1   6   67.39    6.90 
  -7   1  -6   60.69    4.70 
   7   1   6   79.79    9.40 
  -9  -1  -6   92.39    7.20 
   9  -1   6   84.69    8.10 
  -9  -1  -6   92.29    5.20 
   9  -1   6   77.19    9.20 
   9   1   6   92.69    8.20 
  -9   1  -6   82.89    5.50 
   9   1   6   75.59    9.90 
  -9   1  -6   96.99    7.40 
  11  -1   6  524.35   18.50 
  11  -1   6  535.75   19.80 
 -11  -1  -6  552.34   17.70 
 -11  -1  -6  537.95   15.30 
  11   1   6  526.55   18.70 
  11   1   6  547.65   20.40 
 -11   1  -6  553.84   15.70 
 -11   1  -6  588.04   18.00 
  13  -1   6  699.43   23.40 
  13  -1   6  655.03   25.70 
 -13  -1  -6  689.73   21.20 
 -13  -1  -6  693.03   18.80 
  13   1   6  712.63   23.90 
 -13   1  -6  688.63   19.20 
 -15  -1  -6  537.25   18.30 
  15  -1   6  537.25   20.30 
  20  -2  -6   14.00    5.30 
 -20   2   6   14.50    4.20 
 -18  -2   6   43.00    4.90 
  18  -2  -6   39.50    6.00 
 -18  -2   6   31.60    4.10 
  18  -2  -6   36.90    5.40 
 -18   2   6   35.70    4.60 
  18   2  -6   32.90    6.50 
  18   2  -6   31.00    5.30 
  16  -2  -6  480.65   15.90 
 -16  -2   6  457.05   13.70 
 -16  -2   6  479.45   14.40 
 -16  -2   6  468.35   13.30 
  16  -2  -6  482.15   15.90 
 -16  -2   6  469.25   13.70 
  16  -2  -6  472.75   16.50 
  16   2  -6  444.76   13.40 
  16   2  -6  476.65   16.00 
 -16   2   6  418.06   17.50 
  16   2  -6  468.85   16.30 
 -16   2   6  517.55   14.60 
  14  -2  -6  971.50   26.60 
 -14  -2   6  968.60   24.80 
  14  -2  -6  971.70   26.30 
 -14  -2   6  968.00   23.90 
 -14  -2   6  971.00   24.30 
  14  -2  -6  997.00   26.90 
 -14  -2   6  952.60   24.40 
  14   2  -6 1009.20   27.40 
  14   2  -6  930.81   24.20 
  14   2  -6 1053.19   27.10 
 -14   2   6  949.80   25.40 
 -12  -2   6  581.14   16.40 
 -12  -2   6  572.24   15.50 
  12  -2  -6  594.84   18.00 
 -12  -2   6  590.24   16.00 
 -12  -2   6  578.84   15.80 
  12  -2  -6  610.34   17.80 
  12  -2  -6  579.64   17.80 
  12   2  -6  578.14   15.80 
 -12   2   6  603.84   17.40 
  12   2  -6  663.83   18.60 
  12   2  -6  619.04   18.80 
  10  -2  -6  215.38    9.00 
 -10  -2   6  207.28    8.20 
  10  -2  -6  206.88    8.10 
 -10  -2   6  202.88    7.20 
  10  -2  -6  208.48    9.10 
  10  -2  -6  213.68    9.00 
  10   2  -6  208.88    7.50 
 -10   2   6  214.68    9.30 
  10   2  -6  212.28   10.10 
  -8  -2   6   18.90    2.60 
   8  -2  -6   28.30    3.80 
  -8  -2   6   26.40    3.50 
  -8  -2   6   42.00    4.50 
   8  -2  -6   30.80    4.00 
   8  -2  -6   26.20    3.50 
   8  -2  -6   24.30    3.50 
   8   2  -6   38.60    5.10 
   8   2  -6   23.90    2.80 
  -8   2   6   26.00    4.20 
   6  -2  -6  648.64   17.30 
  -6  -2   6  614.84   16.50 
   6  -2  -6  640.34   17.50 
   6  -2  -6  612.54   17.30 
  -6  -2   6  599.54   15.80 
   6  -2  -6  645.54   17.90 
  -6  -2   6  631.14   18.00 
  -6   2   6  671.83   18.60 
   6   2  -6  621.54   16.20 
  -6   2   6  621.54   16.60 
  -4  -2   6 1009.60   26.30 
  -4  -2   6  998.40   23.90 
   4  -2  -6  992.60   25.60 
   4  -2  -6 1013.90   25.70 
   4   2  -6 1014.30   26.60 
  -4   2   6 1000.20   25.00 
  -4   2   6 1030.90   26.70 
   4   2  -6  979.10   24.40 
  -2  -2   6 1095.19   28.50 
   2  -2  -6 1086.29   27.90 
  -2  -2   6 1078.39   25.90 
   2  -2  -6 1093.79   27.60 
   2   2  -6 1110.49   26.60 
  -2   2   6 1108.29   27.60 
  -2   2   6 1149.98   29.30 
   2   2  -6 1106.59   28.70 
   0  -2   6  454.25   15.00 
   0  -2  -6  475.55   14.20 
   0  -2  -6  462.05   13.50 
   0   2   6  462.95   14.00 
   0   2   6  472.85   15.70 
   0   2  -6  463.85   14.70 
   0   2  -6  463.25   12.80 
  -2  -2  -6    6.30    2.30 
  -2  -2  -6    5.10    2.80 
   2  -2   6    5.90    3.90 
  -2   2  -6    7.20    2.20 
   2   2   6    7.30    3.10 
  -2   2  -6    4.70    3.10 
   2   2   6    6.70    4.30 
  -4  -2  -6  224.98    7.30 
   4  -2   6  219.88   10.80 
  -4  -2  -6  233.48    9.40 
   4  -2   6  236.88    9.20 
   4   2   6  247.98   12.00 
  -4   2  -6  227.28    7.10 
  -4   2  -6  228.68    9.70 
  -4   2  -6  224.28    7.90 
   4   2   6  236.58    9.70 
  -6  -2  -6  796.22   22.50 
   6  -2   6  813.32   24.10 
  -6  -2  -6  808.22   20.30 
   6  -2   6  807.12   22.40 
  -6   2  -6  813.22   19.90 
  -6   2  -6  852.71   23.10 
  -6   2  -6  815.12   21.00 
   6   2   6  895.11   25.60 
   6   2   6  800.92   23.00 
  -8  -2  -6  725.53   21.00 
  -8  -2  -6  732.73   18.70 
   8  -2   6  717.03   22.80 
   8  -2   6  698.93   21.20 
  -8   2  -6  800.32   21.80 
  -8   2  -6  730.43   19.30 
   8   2   6  751.32   23.90 
   8   2   6  725.73   21.80 
  -8   2  -6  708.43   18.00 
 -10  -2  -6  490.35   13.80 
  10  -2   6  464.45   16.70 
 -10  -2  -6  488.45   16.10 
  10  -2   6  491.15   18.20 
 -10   2  -6  528.65   19.70 
 -10   2  -6  494.35   14.50 
  10   2   6  480.25   19.00 
  10   2   6  490.25   17.40 
 -12  -2  -6  193.28    7.90 
 -12  -2  -6  185.98   10.00 
  12  -2   6  189.38   12.50 
  12  -2   6  194.58   11.20 
  12   2   6  179.38   12.70 
 -12   2  -6  190.38    8.50 
 -14  -2  -6   58.29    6.50 
  14  -2   6   59.59    8.20 
 -14  -2  -6   65.79    7.70 
 -19  -3   6  506.85   15.20 
  19  -3  -6  500.65   18.30 
  19   3  -6  501.55   20.10 
 -17  -3   6  399.36   13.10 
  17  -3  -6  407.26   14.70 
 -17  -3   6  423.46   15.60 
  17  -3  -6  391.66   15.30 
 -17  -3   6  400.76   12.80 
  17   3  -6  380.36   12.30 
  17   3  -6  357.96   16.90 
 -17   3   6  379.86   13.40 
  17   3  -6  422.06   15.40 
  15  -3  -6   75.79    7.80 
  15  -3  -6   68.29    7.10 
 -15  -3   6   80.59    6.40 
  15  -3  -6   84.79    7.50 
 -15  -3   6   76.39    6.90 
 -15  -3   6   75.19    6.00 
 -15  -3   6   78.29    5.70 
  15   3  -6   69.09    7.10 
  15   3  -6   77.19    5.60 
  15   3  -6   64.79    8.20 
 -15   3   6   70.09    6.90 
  13  -3  -6   99.49    7.40 
  13  -3  -6   89.09    7.20 
 -13  -3   6   99.39    6.20 
 -13  -3   6   98.59    6.30 
 -13  -3   6  101.39    5.80 
  13  -3  -6   90.79    7.70 
 -13  -3   6   97.79    7.00 
 -13   3   6   99.59    7.60 
  13   3  -6   88.99    5.60 
  13   3  -6   88.09    8.50 
  11  -3  -6  460.75   15.00 
 -11  -3   6  467.35   12.90 
  11  -3  -6  455.65   15.00 
 -11  -3   6  454.45   13.70 
 -11  -3   6  474.25   13.60 
  11  -3  -6  458.65   14.80 
  11   3  -6  453.65   13.20 
  11   3  -6  441.26   16.40 
 -11   3   6  483.35   15.10 
  -9  -3   6  953.90   24.50 
   9  -3  -6  989.00   25.80 
   9  -3  -6  992.30   25.90 
  -9  -3   6  966.80   23.80 
   9  -3  -6  960.60   24.80 
   9  -3  -6  965.80   26.00 
   9   3  -6  963.30   24.30 
  -9   3   6 1025.60   26.30 
   7  -3  -6  864.31   22.50 
  -7  -3   6  870.91   23.00 
   7  -3  -6  862.61   23.20 
  -7  -3   6  853.51   21.20 
  -7  -3   6  857.01   21.90 
   7  -3  -6  869.01   22.90 
  -7   3   6  882.31   23.70 
  -7   3   6  842.92   22.10 
   7   3  -6  875.21   21.80 
  -5  -3   6  269.77   10.30 
   5  -3  -6  267.27    9.60 
  -5  -3   6  270.77    8.50 
   5  -3  -6  271.37    9.90 
   5  -3  -6  271.97    9.50 
   5   3  -6  269.67    8.70 
  -5   3   6  260.97    9.40 
  -5   3   6  269.97   10.90 
   3  -3  -6   29.30    3.30 
  -3  -3   6   31.20    4.60 
   3  -3  -6   33.90    4.00 
  -3  -3   6   30.10    3.00 
   3  -3  -6   28.60    3.70 
  -3   3   6   32.80    5.10 
   3   3  -6   29.10    3.10 
  -3   3   6   27.80    3.70 
  -1  -3   6  338.57   12.30 
   1  -3  -6  348.07   11.60 
  -1  -3   6  342.77    9.80 
   1  -3  -6  343.07   11.20 
  -1   3   6  349.27   11.70 
  -1   3   6  351.76   13.40 
   1   3  -6  351.66   10.50 
  -1  -3  -6 1155.28   29.90 
  -1  -3  -6 1145.39   29.10 
   1  -3   6 1178.18   30.90 
   1   3   6 1218.38   32.10 
   1   3   6 1200.18   30.20 
  -1   3  -6 1172.18   28.70 
  -1   3  -6 1190.98   31.10 
   3  -3   6 1010.50   27.30 
  -3  -3  -6  966.20   24.80 
  -3  -3  -6  982.40   26.00 
  -3   3  -6  975.40   23.90 
   3   3   6 1057.09   28.80 
  -3   3  -6 1015.10   27.10 
   3   3   6  955.50   26.40 
  -3   3  -6  974.00   24.70 
   5  -3   6  567.34   18.50 
  -5  -3  -6  558.54   17.10 
  -5  -3  -6  578.74   15.90 
   5   3   6  638.04   20.80 
   5   3   6  574.14   18.10 
  -5   3  -6  570.04   16.00 
  -5   3  -6  621.54   18.70 
  -5   3  -6  576.24   15.00 
   7  -3   6   29.00    4.50 
   7  -3   6   40.80    6.00 
  -7  -3  -6   38.80    4.90 
  -7   3  -6   37.60    3.60 
   7   3   6   31.60    5.20 
  -7   3  -6   35.80    3.80 
   7   3   6   40.50    7.50 
  -7   3  -6   40.40    5.60 
   9  -3   6   84.79    7.80 
   9  -3   6   82.99    8.80 
  -9  -3  -6   91.29    7.20 
  -9   3  -6   92.49    5.90 
  -9   3  -6   87.89    4.60 
   9   3   6   84.79   11.00 
   9   3   6   87.19    8.60 
  11  -3   6  332.27   13.80 
 -11  -3  -6  346.47   11.10 
  11  -3   6  332.07   14.70 
 -11  -3  -6  337.17   13.00 
 -11   3  -6  330.07   11.50 
 -11   3  -6  338.97   10.00 
 -13  -3  -6  666.73   20.30 
 -13  -3  -6  660.43   17.80 
  13  -3   6  642.94   21.80 
 -13   3  -6  619.94   16.80 
 -18   4   6   47.80    5.60 
 -16  -4   6  329.57   11.60 
  16  -4  -6  323.57   13.90 
  16   4  -6  312.07   11.20 
 -16   4   6  327.67   12.60 
  14  -4  -6  660.03   20.00 
  14  -4  -6  671.33   20.70 
 -14  -4   6  670.93   18.50 
 -14  -4   6  676.03   20.40 
 -14  -4   6  659.73   18.50 
  14   4  -6  554.94   20.90 
 -14   4   6  697.03   20.00 
  14   4  -6  655.13   18.10 
 -12  -4   6  478.45   14.30 
 -12  -4   6  478.15   14.50 
  12  -4  -6  465.65   16.00 
  12  -4  -6  462.15   15.60 
 -12  -4   6  481.55   14.00 
  12  -4  -6  465.55   15.70 
  12   4  -6  461.05   13.90 
 -12   4   6  503.95   16.10 
 -10  -4   6  116.19    7.20 
 -10  -4   6  107.69    6.80 
  10  -4  -6  114.99    7.70 
  10  -4  -6  117.59    7.60 
 -10  -4   6  114.59    6.00 
  10  -4  -6  106.29    7.60 
 -10   4   6  120.99    8.50 
  10   4  -6  110.09    6.10 
 -10   4   6  118.39    7.00 
   8  -4  -6   13.20    3.50 
   8  -4  -6   18.60    3.80 
  -8  -4   6   12.60    3.50 
  -8  -4   6   10.30    2.70 
  -8   4   6   14.20    4.30 
   8   4  -6   14.80    2.90 
  -8   4   6   11.20    3.20 
   6  -4  -6  427.06   12.20 
   6  -4  -6  416.86   13.00 
   6  -4  -6  423.96   13.70 
   6  -4  -6  412.56   13.40 
  -6  -4   6  412.86   11.90 
  -6   4   6  427.26   13.20 
  -6   4   6  412.26   14.60 
   6   4  -6  420.46   12.40 
  -4  -4   6  811.12   22.10 
  -4  -4   6  807.92   20.10 
   4  -4  -6  794.42   20.20 
   4  -4  -6  811.32   21.90 
   4  -4  -6  788.62   21.50 
   4  -4  -6  798.02   21.60 
   4   4  -6  784.42   20.70 
  -4   4   6  825.02   23.40 
  -4   4   6  813.32   21.70 
  -4   4   6  814.92   22.10 
   2  -4  -6  687.63   19.10 
   2  -4  -6  676.53   18.90 
  -2  -4   6  696.33   19.90 
   2  -4  -6  673.13   18.70 
  -2  -4   6  694.03   17.50 
   2  -4  -6  675.03   17.50 
  -2   4   6  705.33   19.50 
  -2   4   6  674.73   19.20 
   2   4  -6  681.33   18.20 
  -2   4   6  684.23   20.90 
   0  -4  -6  323.77    9.80 
   0  -4   6  340.07   12.50 
   0  -4   6  340.87   10.00 
   0  -4  -6  333.67   11.10 
   0  -4  -6  328.87   11.40 
   0   4   6  343.67   12.20 
   0   4   6  342.67   13.90 
   0   4   6  321.17   11.40 
   0   4  -6  333.17   10.60 
  -2  -4  -6    8.10    2.80 
  -2  -4  -6   11.70    3.40 
  -2  -4  -6    8.10    2.40 
   2  -4   6    8.10    4.20 
   2   4   6    7.80    3.00 
   2   4   6   11.50    3.90 
   2   4   6    9.60    5.10 
  -2   4  -6   12.10    2.80 
  -4  -4  -6  207.38    8.10 
   4  -4   6  205.58   10.60 
  -4  -4  -6  206.28    9.10 
   4   4   6  201.78    8.40 
   4   4   6  205.38   12.50 
  -4   4  -6  203.18    7.20 
  -4   4  -6  206.58    8.10 
   4   4   6  188.98    8.70 
   4   4   6  201.38   10.00 
   6  -4   6  539.45   18.00 
  -6  -4  -6  519.75   15.20 
  -6  -4  -6  536.65   16.50 
  -6   4  -6  525.25   14.30 
   6   4   6  522.65   17.80 
  -6   4  -6  536.65   15.40 
   6   4   6  529.55   16.30 
   6   4   6  576.44   20.50 
   8  -4   6  505.05   17.80 
  -8  -4  -6  512.55   16.30 
  -8   4  -6  517.95   13.80 
   8   4   6  518.85   16.10 
   8   4   6  491.85   19.60 
  -8   4  -6  498.05   14.90 
 -10  -4  -6  390.46   13.90 
  10  -4   6  356.86   15.90 
  10  -4   6  372.06   15.50 
 -10   4  -6  376.96   11.10 
  13  -5  -6   29.40    5.30 
 -13   5   6   28.20    5.20 
 -11  -5   6  401.36   13.10 
  11  -5  -6  392.46   14.30 
 -11  -5   6  386.56   12.70 
  11  -5  -6  384.06   14.40 
 -11   5   6  392.96   14.50 
  11   5  -6  366.16   12.20 
 -11   5   6  383.76   12.90 
   9  -5  -6  542.45   17.30 
   9  -5  -6  599.24   18.40 
  -9  -5   6  589.64   17.00 
  -9  -5   6  612.34   17.10 
   9  -5  -6  611.54   23.90 
   9   5  -6  567.64   16.60 
  -9   5   6  580.14   17.30 
  -9   5   6  610.14   18.90 
  -7  -5   6  512.25   15.00 
   7  -5  -6  501.45   14.00 
   7  -5  -6  502.95   16.10 
   7  -5  -6  505.85   16.00 
   7   5  -6  491.55   14.70 
  -7   5   6  517.85   17.20 
  -7   5   6  492.65   15.50 
   5  -5  -6  264.67   10.60 
   5  -5  -6  271.57   10.60 
   5  -5  -6  265.77    8.70 
   5   5  -6  263.47    9.50 
  -5   5   6  266.07   12.30 
  -5   5   6  268.37   10.50 
  -3  -5   6    0.50    3.70 
   3  -5  -6    1.90    2.20 
   3  -5  -6    1.50    2.80 
   3  -5  -6    3.50    3.00 
   3  -5  -6    2.40    2.90 
  -3   5   6    0.70    4.30 
  -3   5   6    5.10    3.40 
   3   5  -6    5.50    2.80 
  -3   5   6    2.10    3.30 
   1  -5  -6  190.18    7.00 
   1  -5  -6  188.18    8.40 
  -1  -5   6  176.98    9.40 
   1  -5  -6  191.38    8.40 
   1   5  -6  185.58    8.00 
  -1   5   6  182.28    9.00 
  -1   5   6  195.98    9.50 
  -1   5   6  182.88   11.10 
   1  -5   6  696.03   20.40 
  -1  -5  -6  669.63   19.20 
  -1  -5  -6  684.13   18.90 
  -1  -5  -6  659.63   17.40 
  -1   5  -6  658.23   18.40 
   1   5   6  665.43   19.60 
   1   5   6  690.43   22.10 
   1   5   6  657.73   20.00 
  -3  -5  -6  791.82   20.20 
  -3  -5  -6  792.02   21.30 
   3  -5   6  784.42   23.10 
  -3  -5  -6  798.62   22.00 
   3   5   6  777.42   23.20 
  -3   5  -6  792.62   21.20 
  -3   5  -6  794.32   20.20 
   3   5   6  809.12   25.20 
   3   5   6  784.12   22.30 
  -5  -5  -6  265.67    9.80 
  -5  -5  -6  275.57   10.00 
  -5  -5  -6  280.47   10.90 
   5  -5   6  264.87   12.30 
  -5   5  -6  259.27    9.90 
  -5   5  -6  279.57    9.10 
   5   5   6  255.27   13.90 
   5   5   6  271.27   10.40 
   7  -5   6   25.80    5.70 
  -7  -5  -6   36.80    5.10 
   7   5   6   35.50    4.40 
   8  -6  -6   16.10    4.40 
  -8   6   6   13.20    5.10 
   6  -6  -6  216.28   10.30 
  -6   6   6  213.98   11.60 
   4  -6  -6  501.75   16.30 
  -4   6   6  521.45   18.20 
   2  -6  -6  380.76   13.40 
  -2   6   6  380.26   15.50 
   0  -6   6  204.28   10.30 
   0  -6  -6  185.08    8.80 
   0   6   6  164.08   11.30 
   2  -6   6   15.00    4.80 
  -2  -6  -6   11.50    3.80 
   2   6   6    9.00    5.20 
   4  -6   6  142.49   10.90 
  -4  -6  -6  137.79    8.20 
   4   6   6  125.09   10.70 
 -18   0   7   14.50    6.70 
  16   0  -7  189.68   10.10 
 -16   0   7  186.98    9.00 
 -14   0   7  548.15   16.10 
  14   0  -7  583.14   17.90 
  14   0  -7  558.34   18.00 
  12   0  -7  772.82   22.20 
  12   0  -7  797.92   22.00 
 -12   0   7  747.53   22.20 
 -12   0   7  765.32   20.30 
  10   0  -7  459.85   14.80 
 -10   0   7  432.66   13.00 
 -10   0   7  435.06   14.20 
  -8   0   7  129.39    8.10 
   8   0  -7  136.69    7.70 
   8   0  -7  124.99    7.60 
   6   0  -7  120.29    7.00 
  -6   0   7  106.59    7.70 
   6   0  -7  107.09    7.10 
  -4   0   7  659.03   19.40 
   4   0  -7  665.43   19.00 
  -2   0   7  838.52   24.00 
   2   0  -7  860.31   21.20 
   2   0  -7  890.11   23.60 
   0   0  -7  871.51   23.70 
   0   0   7  842.02   24.60 
   0   0  -7  878.31   21.40 
   2   0   7  217.18    9.50 
   2   0   7  212.28   11.40 
  -2   0  -7  230.78   10.00 
  -2   0  -7  224.08    7.70 
  -4   0  -7    7.00    2.40 
  -4   0  -7    4.00    3.50 
   4   0   7    3.70    5.00 
   4   0   7    1.30    3.10 
   6   0   7  270.87   11.20 
  -6   0  -7  265.67    9.20 
   6   0   7  259.47   13.90 
  -6   0  -7  267.07   11.50 
   8   0   7  779.62   23.30 
  -8   0  -7  788.52   20.80 
   8   0   7  775.92   25.80 
  -8   0  -7  848.62   23.80 
  10   0   7  457.35   19.60 
 -10   0  -7  490.95   14.70 
 -10   0  -7  552.24   17.80 
  12   0   7  202.48   14.20 
 -12   0  -7  230.08   11.70 
  17  -1  -7  463.95   16.40 
 -17  -1   7  456.25   15.20 
  17   1  -7  477.65   16.00 
 -17   1   7  467.55   15.90 
 -15  -1   7  197.28    9.20 
  15  -1  -7  198.38   10.10 
  15  -1  -7  213.18   12.50 
  15   1  -7  213.78   10.80 
  15   1  -7  208.08   10.10 
  13  -1  -7   13.40    4.20 
  13  -1  -7   14.40    4.00 
 -13  -1   7   14.10    3.70 
  13   1  -7   18.50    4.60 
 -13   1   7   12.40    4.00 
  11  -1  -7  117.69    7.20 
 -11  -1   7  122.39    7.00 
  11  -1  -7  133.99    7.80 
  11  -1  -7  137.99    8.00 
 -11   1   7  134.19    8.20 
  11   1  -7  137.59    8.50 
  -9  -1   7  687.13   19.70 
  -9  -1   7  657.03   18.40 
   9  -1  -7  698.63   20.20 
   9  -1  -7  691.93   19.60 
   9  -1  -7  724.33   19.80 
  -9   1   7  682.93   20.00 
   9   1  -7  760.42   20.90 
   7  -1  -7 1052.69   27.70 
   7  -1  -7 1118.39   28.00 
  -7  -1   7 1021.50   26.10 
  -7  -1   7 1054.59   27.80 
   7   1  -7 1082.39   28.20 
  -7   1   7 1056.99   28.00 
   7   1  -7 1067.89   25.80 
  -5  -1   7  473.95   13.60 
  -5  -1   7  479.95   15.70 
   5  -1  -7  482.45   15.10 
   5  -1  -7  530.35   15.30 
   5   1  -7  480.95   13.30 
   5   1  -7  498.45   15.60 
  -5   1   7  484.25   15.90 
  -3  -1   7   56.99    6.10 
  -3  -1   7   47.20    4.90 
   3  -1  -7   46.20    5.40 
   3  -1  -7   55.19    7.00 
  -3   1   7   50.09    5.80 
   3   1  -7   49.80    4.10 
   3   1  -7   50.39    5.90 
   1  -1  -7   39.10    4.70 
  -1  -1   7   27.90    5.20 
  -1   1   7   33.00    5.50 
   1   1  -7   40.40    4.90 
   1   1  -7   31.80    3.20 
  -1  -1  -7  453.65   14.70 
   1  -1   7  450.55   16.10 
  -1   1  -7  464.85   12.80 
   1   1   7  450.95   14.00 
  -1   1  -7  453.25   14.90 
   1   1   7  442.86   15.90 
   3  -1   7  810.32   24.40 
  -3  -1  -7  834.42   23.20 
  -3  -1  -7  838.52   21.60 
  -3   1  -7  846.02   23.30 
   3   1   7  797.72   22.30 
   3   1   7  788.92   24.30 
  -3   1  -7  816.02   20.90 
  -5  -1  -7  612.04   18.90 
   5  -1   7  584.14   20.40 
   5  -1   7  611.94   18.20 
  -5  -1  -7  621.24   16.30 
  -5   1  -7  662.03   19.30 
   5   1   7  619.74   20.90 
   5   1   7  601.34   18.40 
  -5   1  -7  609.24   16.60 
   7  -1   7  273.67   14.00 
  -7  -1  -7  280.07    9.40 
  -7  -1  -7  283.97   11.90 
   7  -1   7  266.57   11.50 
  -7   1  -7  314.07   12.40 
  -7   1  -7  276.17    9.60 
   7   1   7  265.97   11.70 
   7   1   7  271.87   14.40 
  -9  -1  -7    2.10    4.10 
  -9  -1  -7    2.10    2.60 
   9  -1   7    1.80    5.80 
   9  -1   7    2.80    4.40 
   9   1   7    5.70    6.10 
  -9   1  -7    2.30    2.80 
  -9   1  -7    0.40    4.00 
 -11  -1  -7  205.98   11.10 
  11  -1   7  190.28   13.70 
  11   1   7  206.48   13.90 
 -11   1  -7  230.78   11.60 
  16  -2  -7  213.68   12.70 
 -14  -2   7  423.76   13.70 
  14  -2  -7  446.36   15.10 
 -14  -2   7  419.86   13.10 
 -14  -2   7  424.46   12.60 
  14   2  -7  476.45   15.90 
 -14   2   7  428.76   14.50 
  12  -2  -7  637.94   18.80 
 -12  -2   7  614.24   17.60 
 -12  -2   7  612.84   16.30 
 -12  -2   7  596.04   17.30 
 -12  -2   7  597.74   16.60 
  12  -2  -7  627.54   19.10 
  12   2  -7  676.33   19.80 
 -12   2   7  635.34   18.60 
  12   2  -7  579.44   16.70 
 -10  -2   7  487.35   13.60 
  10  -2  -7  509.95   16.10 
  10  -2  -7  527.05   16.00 
  10  -2  -7  504.15   15.30 
 -10  -2   7  490.75   14.60 
 -10   2   7  508.95   16.20 
  10   2  -7  497.65   14.00 
  -8  -2   7   46.40    3.70 
   8  -2  -7   63.49    6.20 
  -8  -2   7   44.70    5.10 
  -8  -2   7   45.00    4.30 
   8  -2  -7   53.39    5.70 
   8  -2  -7   61.89    6.20 
   8   2  -7   58.69    4.50 
  -8   2   7   54.49    7.10 
  -6  -2   7   60.89    7.10 
   6  -2  -7   63.79    5.90 
   6  -2  -7   68.39    6.00 
  -6  -2   7   49.30    4.50 
  -6  -2   7   62.79    5.70 
   6  -2  -7   74.69    6.30 
   6   2  -7   64.79    4.60 
  -6   2   7   68.89    7.30 
  -4  -2   7  529.35   14.30 
   4  -2  -7  547.15   16.40 
  -4  -2   7  540.75   17.30 
   4  -2  -7  575.64   16.60 
  -4  -2   7  543.75   15.00 
   4   2  -7  534.95   14.80 
   4   2  -7  533.45   17.10 
  -4   2   7  559.84   17.50 
   2  -2  -7  945.41   25.50 
  -2  -2   7  943.31   26.50 
   2  -2  -7 1012.80   25.50 
  -2  -2   7  941.71   23.10 
  -2   2   7  936.31   24.80 
   2   2  -7  966.10   23.90 
  -2   2   7  974.20   26.80 
   2   2  -7  968.80   26.20 
   0  -2   7  584.84   15.40 
   0  -2   7  598.34   19.00 
   0  -2  -7  607.54   18.10 
   0   2  -7  609.74   18.50 
   0   2  -7  608.64   16.20 
   0   2   7  610.94   19.60 
   0   2   7  588.34   17.30 
  -2  -2  -7  240.48   10.40 
   2  -2   7  223.78   11.60 
   2   2   7  247.68   10.30 
  -2   2  -7  241.98    8.60 
  -2   2  -7  246.18   10.80 
   2   2   7  249.38   12.50 
   4  -2   7    1.10    4.70 
  -4  -2  -7    3.10    3.50 
   4   2   7    6.80    5.50 
   4   2   7    1.00    3.50 
  -4   2  -7    3.20    2.50 
  -4   2  -7    3.70    3.70 
  -6  -2  -7  331.07   13.00 
   6  -2   7  331.57   14.90 
   6   2   7  312.47   12.90 
  -6   2  -7  329.37   10.90 
   6   2   7  344.17   15.80 
  -6   2  -7  355.06   13.40 
  -8  -2  -7  567.04   18.50 
   8  -2   7  537.75   20.20 
   8  -2   7  562.44   18.40 
   8   2   7  564.84   21.10 
  -8   2  -7  600.34   18.80 
  -8   2  -7  548.65   16.10 
 -10  -2  -7  529.95   17.90 
  10  -2   7  496.45   19.80 
  10   2   7  513.85   20.40 
  17  -3  -7  426.36   17.90 
 -15  -3   7  136.09    7.80 
 -15   3   7  129.29    8.90 
  15   3  -7  129.09    6.90 
 -13  -3   7    7.60    3.90 
 -13  -3   7    7.70    3.40 
 -13  -3   7    7.60    3.60 
  13  -3  -7   10.00    4.00 
 -13   3   7   11.60    4.50 
  13   3  -7    5.30    2.80 
  11  -3  -7   74.49    7.10 
  11  -3  -7   79.19    7.50 
 -11  -3   7   78.29    6.30 
 -11  -3   7   74.49    6.70 
 -11   3   7   78.39    8.10 
  11   3  -7   74.49    5.40 
   9  -3  -7  639.64   19.90 
  -9  -3   7  644.14   17.90 
  -9  -3   7  636.04   16.90 
   9  -3  -7  654.93   19.50 
   9  -3  -7  665.83   19.20 
  -9   3   7  662.63   19.80 
   9   3  -7  636.04   17.40 
   7  -3  -7  765.12   21.50 
   7  -3  -7  769.72   21.10 
   7  -3  -7  727.63   20.50 
  -7  -3   7  743.63   20.00 
  -7  -3   7  699.43   18.90 
  -7   3   7  787.42   22.10 
   7   3  -7  738.73   19.50 
  -5  -3   7  381.56   13.80 
   5  -3  -7  368.86   12.70 
  -5  -3   7  366.76   11.10 
  -5  -3   7  383.36   11.90 
   5  -3  -7  396.66   13.30 
  -5   3   7  397.76   14.40 
   5   3  -7  375.66   11.50 
  -3  -3   7   49.80    4.70 
   3  -3  -7   70.89    6.20 
   3  -3  -7   73.19    6.20 
  -3  -3   7   66.39    7.60 
  -3   3   7   64.59    6.10 
   3   3  -7   65.69    5.00 
  -3   3   7   61.69    7.90 
   1  -3  -7   60.39    5.70 
   1  -3  -7   57.89    6.10 
  -1  -3   7   65.79    7.80 
  -1  -3   7   54.79    4.10 
   1   3  -7   52.59    4.90 
  -1   3   7   54.49    6.20 
  -1   3   7   70.59    8.40 
   1  -3   7  299.57    9.60 
   1  -3   7  316.67   13.30 
  -1  -3  -7  304.17   11.80 
  -1  -3  -7  310.37   11.10 
   1   3   7  326.87   14.20 
  -1   3  -7  299.57   10.20 
   1   3   7  301.87   11.70 
  -3  -3  -7  651.83   20.00 
   3  -3   7  665.93   21.50 
  -3   3  -7  698.63   21.00 
   3   3   7  723.93   22.90 
   3   3   7  661.43   20.00 
  -3   3  -7  655.73   18.30 
  -5  -3  -7  567.04   18.30 
   5  -3   7  580.34   20.00 
   5   3   7  611.64   21.50 
  -5   3  -7  608.94   19.20 
   5   3   7  560.24   19.10 
  -5   3  -7  549.15   16.20 
  -7  -3  -7  151.38    9.40 
   7  -3   7  165.48   11.40 
  -7   3  -7  154.58    6.50 
   7   3   7  167.18   12.90 
   9   3   7    2.30    6.50 
  14  -4  -7  354.66   14.50 
  12  -4  -7  442.46   16.00 
 -12   4   7  464.25   16.10 
 -10  -4   7  361.16   14.70 
  10  -4  -7  327.27   13.00 
 -10  -4   7  330.97   11.70 
  10  -4  -7  331.37   13.00 
 -10   4   7  355.86   13.90 
  10   4  -7  312.57   11.00 
   8  -4  -7   50.89    5.70 
  -8  -4   7   52.69    5.10 
   8   4  -7   53.69    5.20 
  -8   4   7   56.49    6.50 
  -6  -4   7   55.89    5.00 
   6  -4  -7   66.39    5.90 
   6  -4  -7   61.99    6.80 
   6   4  -7   60.59    5.30 
  -6   4   7   61.29    6.00 
  -6   4   7   64.89    6.90 
   4  -4  -7  396.56   13.40 
  -4  -4   7  377.26   14.00 
   4  -4  -7  390.36   13.50 
  -4   4   7  388.66   13.20 
  -4   4   7  411.76   15.40 
   4   4  -7  382.16   12.10 
   2  -4  -7  663.13   19.40 
   2  -4  -7  655.43   19.30 
  -2  -4   7  662.63   20.30 
   2   4  -7  650.03   18.10 
  -2   4   7  682.63   21.70 
  -2   4   7  660.33   19.30 
   0  -4  -7  495.75   15.50 
   0  -4   7  486.55   17.20 
   0  -4  -7  504.15   16.10 
   0   4   7  492.25   16.00 
   0   4  -7  479.65   14.50 
   0   4   7  527.45   18.70 
  -2  -4  -7  156.98    7.90 
   2  -4   7  154.98   10.40 
  -2  -4  -7  161.38    8.80 
  -2   4  -7  145.09    7.40 
   2   4   7  160.48   12.00 
   4  -4   7   -3.00    4.90 
  -4  -4  -7    6.40    3.80 
   4   4   7   -7.90    5.70 
   6  -4   7  214.08   15.90 
   6   4   7  235.48   14.80 
   8   4   7  454.95   20.20 
   9  -5  -7  351.06   13.70 
   7  -5  -7  575.64   18.20 
   5  -5  -7  235.88   10.60 
  -5   5   7  239.68   13.00 
   3  -5  -7   27.30    4.50 
  -3   5   7   29.20    6.50 
   1  -5  -7   13.00    4.10 
  -1  -5   7   17.30    5.10 
  -1   5   7   10.90    6.00 
   1  -5   7  275.67   13.10 
  -1  -5  -7  265.17   11.30 
   1   5   7  292.07   15.10 
 -10   0   8  496.15   16.20 
   8   0  -8  127.79    8.40 
  -8   0   8  128.79    8.90 
  -6   0   8    3.10    4.50 
   6   0  -8    5.50    3.80 
   4   0  -8  106.49    7.90 
  -4   0   8   97.79    8.80 
   2   0  -8  580.94   17.90 
  -2   0   8  544.15   18.30 
   0   0   8  688.03   22.00 
   0   0  -8  757.12   21.60 
  -2   0  -8  255.27   11.40 
   2   0   8  226.38   12.40 
  -4   0  -8   57.19    7.60 
  -4   0  -8   55.39    5.00 
   4   0   8   47.40    7.50 
  -6   0  -8   33.20    6.20 
 -13  -1   8  120.09    8.40 
 -11  -1   8    6.40    4.90 
 -11   1   8    8.60    4.40 
   9  -1  -8  188.18    9.50 
  -9  -1   8  193.48   10.10 
   9  -1  -8  198.48    9.70 
  -9   1   8  196.28   10.40 
   7  -1  -8  478.15   15.60 
  -7  -1   8  456.15   15.60 
  -7   1   8  463.55   15.90 
   5  -1  -8  547.75   17.10 
  -5  -1   8  535.45   17.40 
  -5   1   8  535.55   17.80 
   5   1  -8  539.75   17.30 
   3  -1  -8  383.16   13.70 
  -3  -1   8  375.86   14.50 
  -3   1   8  376.26   14.80 
   3   1  -8  387.16   14.00 
   1  -1  -8   37.70    5.30 
  -1  -1   8   30.20    6.00 
   1   1  -8   39.60    5.40 
  -1   1   8   28.00    5.90 
   1   1  -8   34.00    3.60 
   1  -1   8  124.89   10.30 
  -1  -1  -8  123.29    8.50 
  -1   1  -8  127.09    8.90 
  -1   1  -8  131.49    6.50 
   1   1   8  115.69   10.00 
   3  -1   8  407.86   16.90 
  -3  -1  -8  421.66   15.20 
  -3   1  -8  414.66   12.60 
  -3   1  -8  437.36   15.40 
   3   1   8  395.36   16.60 
   5  -1   8  468.85   23.50 
  -5  -1  -8  504.15   19.80 
  -5   1  -8  537.25   17.70 
   5   1   8  494.15   19.50 
 -14   2   8  176.58   14.10 
 -12   2   8  599.24   18.80 
  10  -2  -8  426.26   14.30 
 -10  -2   8  397.06   13.20 
 -10   2   8  438.46   15.20 
  -8  -2   8   93.49    6.90 
   8  -2  -8   95.59    7.40 
  -8   2   8   84.99    8.60 
   6  -2  -8   -1.00    3.30 
  -6  -2   8   -3.00    3.20 
   6  -2  -8    7.90    3.60 
  -6  -2   8    2.00    4.20 
   6   2  -8    3.40    2.60 
  -6   2   8    1.60    4.40 
  -4  -2   8  146.39    9.80 
   4  -2  -8  136.79    8.40 
   4   2  -8  139.79    6.70 
  -4   2   8  133.19    9.70 
   2  -2  -8  473.25   15.90 
  -2  -2   8  481.45   17.30 
   2   2  -8  491.65   14.00 
  -2   2   8  481.25   17.10 
   2   2  -8  499.75   16.70 
   0  -2   8  578.54   20.00 
   0  -2  -8  592.24   18.60 
   0   2  -8  614.04   19.20 
   0   2  -8  593.34   16.50 
   0   2   8  590.84   20.00 
  -2  -2  -8  289.97   12.20 
   2  -2   8  288.67   14.10 
  -2   2  -8  305.57   12.90 
  -2   2  -8  277.77   13.60 
   2   2   8  288.77   14.30 
  -4   2  -8   21.70    5.10 
   4   2   8   15.30    7.80 
   7  -3  -8  321.27   12.10 
  -7   3   8  313.17   14.00 
  -5  -3   8  494.55   15.70 
  -5  -3   8  523.65   17.40 
   5  -3  -8  514.35   16.40 
  -5   3   8  515.05   17.80 
  -3  -3   8  291.07   13.00 
   3  -3  -8  285.47   11.60 
  -3  -3   8  260.87   10.30 
  -3   3   8  283.17   13.40 
  -1  -3   8   18.00    5.60 
   1  -3  -8   18.80    4.40 
  -1   3   8   21.80    6.70 
   1  -3   8   68.49   11.80 
  
_computing_structure_solution     'SHELXT 2014/4 (Sheldrick, 2014)' 
;
_shelx_hkl_checksum              14575
loop_
_space_group_symop_operation_xyz
'x, y, z'
'-x, y, -z'
'x+1/2, y+1/2, z'
'-x+1/2, y+1/2, -z'
'-x, -y, -z'
'x, -y, z'
'-x+1/2, -y+1/2, -z'
'x+1/2, -y+1/2, z'
loop_
_atom_site_label
_atom_site_type_symbol
_atom_site_fract_x
_atom_site_fract_y
_atom_site_fract_z
_atom_site_U_iso_or_equiv
_atom_site_adp_type
_atom_site_occupancy
_atom_site_site_symmetry_order
_atom_site_calc_flag
_atom_site_refinement_flags_posn
_atom_site_refinement_flags_adp
_atom_site_refinement_flags_occupancy
_atom_site_disorder_assembly
_atom_site_disorder_group
Au1 Au 0.29603(2) 0.5000 0.44006(2) 0.01283(3) Uani 1 2 d S T P . .
F1 F 0.37252(11) 0.5000 0.9371(3) 0.0197(3) Uani 1 2 d S T P . .
F2 F 0.43889(8) 0.6856(3) 0.7067(2) 0.0256(3) Uani 1 1 d . . . . .
C1 C 0.39011(16) 0.5000 0.7101(5) 0.0157(5) Uani 1 2 d S T P . .
C2 C 0.21033(16) 0.5000 0.1607(5) 0.0165(5) Uani 1 2 d S T P . .
N1 N 0.16271(14) 0.5000 -0.0045(5) 0.0161(4) Uani 1 2 d S T P . .
C3 C 0.09978(17) 0.5000 -0.2030(5) 0.0197(5) Uani 1 2 d S T P . .
H3A H 0.0564 0.4050 -0.1647 0.030 Uiso 0.5 1 calc R U P A -1
H3B H 0.1188 0.4377 -0.3441 0.030 Uiso 0.5 1 calc R U P A -1
H3C H 0.0811 0.6573 -0.2357 0.030 Uiso 0.5 1 calc R U P A -1
loop_
_atom_site_aniso_label
_atom_site_aniso_U_11
_atom_site_aniso_U_22
_atom_site_aniso_U_33
_atom_site_aniso_U_23
_atom_site_aniso_U_13
_atom_site_aniso_U_12
Au1 0.01115(5) 0.01405(5) 0.01305(5) 0.000 0.00109(3) 0.000
F1 0.0266(9) 0.0198(8) 0.0131(7) 0.000 0.0040(6) 0.000
F2 0.0201(6) 0.0307(7) 0.0242(6) 0.0047(5) -0.0016(5) -0.0116(5)
C1 0.0144(11) 0.0177(11) 0.0145(11) 0.000 0.0007(9) 0.000
C2 0.0158(11) 0.0135(11) 0.0204(13) 0.000 0.0035(9) 0.000
N1 0.0151(9) 0.0141(9) 0.0189(11) 0.000 0.0017(8) 0.000
C3 0.0186(12) 0.0209(13) 0.0175(12) 0.000 -0.0040(10) 0.000
loop_
_atom_type_symbol
_atom_type_description
_atom_type_scat_dispersion_real
_atom_type_scat_dispersion_imag
_atom_type_scat_source
C C 0.0033 0.0016 'International Tables Vol C Tables 4.2.6.8 and 6.1.1.4'
H H 0.0000 0.0000 'International Tables Vol C Tables 4.2.6.8 and 6.1.1.4'
N N 0.0061 0.0033 'International Tables Vol C Tables 4.2.6.8 and 6.1.1.4'
F F 0.0171 0.0103 'International Tables Vol C Tables 4.2.6.8 and 6.1.1.4'
Au Au -2.0133 8.8022 'International Tables Vol C Tables 4.2.6.8 and 6.1.1.4'
loop_
_geom_angle_atom_site_label_1
_geom_angle_atom_site_label_2
_geom_angle_atom_site_label_3
_geom_angle
_geom_angle_site_symmetry_1
_geom_angle_site_symmetry_3
C2 Au1 C1 175.74(11) . .
F1 C1 F2 103.81(16) . .
F1 C1 F2 103.81(16) . 6_565
F2 C1 F2 104.2(2) . 6_565
F1 C1 Au1 116.03(18) . .
F2 C1 Au1 113.81(14) . .
F2 C1 Au1 113.81(14) 6_565 .
N1 C2 Au1 177.9(2) . .
C2 N1 C3 176.8(3) . .
N1 C3 H3A 109.5 . .
N1 C3 H3B 109.5 . .
H3A C3 H3B 109.5 . .
N1 C3 H3C 109.5 . .
H3A C3 H3C 109.5 . .
H3B C3 H3C 109.5 . .
loop_
_geom_bond_atom_site_label_1
_geom_bond_atom_site_label_2
_geom_bond_distance
_geom_bond_site_symmetry_2
Au1 C2 1.988(3) .
Au1 C1 2.047(3) .
F1 C1 1.367(3) .
F2 C1 1.371(2) .
C1 F2 1.371(2) 6_565
C2 N1 1.144(4) .
N1 C3 1.435(4) .
C3 H3A 0.9800 .
C3 H3B 0.9800 .
C3 H3C 0.9800 .
loop_
_geom_hbond_atom_site_label_D
_geom_hbond_atom_site_label_H
_geom_hbond_atom_site_label_A
_geom_hbond_distance_DH
_geom_hbond_distance_HA
_geom_hbond_distance_DA
_geom_hbond_angle_DHA
_geom_hbond_site_symmetry_A
C3 H3A F2 0.98 2.41 3.293(3) 149.9 3_444
C3 H3B F2 0.98 2.60 3.372(3) 136.2 4_545
C3 H3C F2 0.98 2.59 3.293(3) 129.1 8_464
