#------------------------------------------------------------------------------
#$Date: 2019-10-28 09:55:13 +0200 (Mon, 28 Oct 2019) $
#$Revision: 219858 $
#$URL: file:///home/coder/svn-repositories/cod/cif/4/51/46/4514681.cif $
#------------------------------------------------------------------------------
#
# This file is available in the Crystallography Open Database (COD),
# http://www.crystallography.net/
#
# All data on this site have been placed in the public domain by the
# contributors.
#
data_4514681
loop_
_publ_author_name
'Jia, Tao'
'Smith, Marshall J.'
'Pulis, Alexander P.'
'Perry, Gregory J. P.'
'Procter, David J.'
_publ_section_title
;
 Enantioselective and Regioselective Copper-Catalyzed Borocyanation of
 1-Aryl-1,3-Butadienes
;
_journal_issue                   8
_journal_name_full               'ACS Catalysis'
_journal_page_first              6744
_journal_paper_doi               10.1021/acscatal.9b01911
_journal_volume                  9
_journal_year                    2019
_chemical_absolute_configuration ad
_chemical_formula_moiety         'C11 H10 I0.96 N O'
_chemical_formula_sum            'C11 H10 I0.96 N O'
_chemical_formula_weight         294.02
_space_group_crystal_system      monoclinic
_space_group_IT_number           4
_space_group_name_Hall           'P 2yb'
_space_group_name_H-M_alt        'P 1 21 1'
_symmetry_space_group_name_Hall  'P 2yb'
_symmetry_space_group_name_H-M   'P 1 21 1'
_atom_sites_solution_hydrogens   geom
_atom_sites_solution_primary     dual
_audit_creation_date             2019-04-02
_audit_creation_method
;
Olex2 1.2
(compiled 2018.05.29 svn.r3508 for OlexSys, GUI svn.r5506)
;
_cell_angle_alpha                90
_cell_angle_beta                 99.353(5)
_cell_angle_gamma                90
_cell_formula_units_Z            2
_cell_length_a                   9.8268(5)
_cell_length_b                   5.6439(3)
_cell_length_c                   9.8652(5)
_cell_measurement_reflns_used    1478
_cell_measurement_temperature    99.95(17)
_cell_measurement_theta_max      29.8390
_cell_measurement_theta_min      11.1400
_cell_volume                     539.86(5)
_computing_cell_refinement       'CrysAlisPro 1.171.40.42a (Rigaku OD, 2019)'
_computing_data_collection       'CrysAlisPro 1.171.40.42a (Rigaku OD, 2019)'
_computing_data_reduction        'CrysAlisPro 1.171.40.42a (Rigaku OD, 2019)'
_computing_molecular_graphics    'Olex2 (Dolomanov et al., 2009)'
_computing_publication_material  'Olex2 (Dolomanov et al., 2009)'
_computing_structure_refinement  'ShelXL (Sheldrick, 2015)'
_computing_structure_solution    'ShelXT (Sheldrick, 2015)'
_diffrn_ambient_environment      N~2~
_diffrn_ambient_temperature      99.95(17)
_diffrn_detector                 'CCD plate'
_diffrn_detector_area_resol_mean 10.0000
_diffrn_measured_fraction_theta_full 1.000
_diffrn_measured_fraction_theta_max 0.879
_diffrn_measurement_details
;
List of Runs (angles in degrees, time in seconds):

  # Type    Start    End  Width  t~exp~   \w     \q     \k     \f   Frames
--------------------------------------------------------------------------
  1  \w    -93.00 -11.00   1.00    1.00    --   -5.00  23.00  92.00   82
  2  \w    -37.00  30.00   1.00    1.00    --    7.50  23.00  92.00   67
  3  \w     46.00  95.00   1.00    1.00    --    7.50  60.00  30.00   49
  4  \w     48.00  75.00   1.00    1.00    --    7.50  30.00 -30.00   27
  5  \w    -53.00  96.00   1.00    1.00    --    7.50  50.00   0.00  149
  6  \w    -78.00  23.00   1.00    1.00    --    7.50  60.00-150.00  101
  7  \w    -38.00   6.00   1.00    1.00    --    7.50  60.00  30.00   44
;
_diffrn_measurement_device       'four-circle diffractometer'
_diffrn_measurement_device_type  'XtaLAB AFC11 (RINC): quarter-chi single'
_diffrn_measurement_method       '\w scans'
_diffrn_orient_matrix_type
'CrysAlisPro convention (1999,Acta A55,543-557)'
_diffrn_orient_matrix_UB_11      -0.0259207000
_diffrn_orient_matrix_UB_12      -0.0491893000
_diffrn_orient_matrix_UB_13      -0.0652702000
_diffrn_orient_matrix_UB_21      -0.0672637000
_diffrn_orient_matrix_UB_22      -0.0026364000
_diffrn_orient_matrix_UB_23      0.0173093000
_diffrn_orient_matrix_UB_31      -0.0124807000
_diffrn_orient_matrix_UB_32      0.1156624000
_diffrn_orient_matrix_UB_33      -0.0273324000
_diffrn_radiation_monochromator  mirror
_diffrn_radiation_probe          x-ray
_diffrn_radiation_type           MoK\a
_diffrn_radiation_wavelength     0.71073
_diffrn_reflns_av_R_equivalents  0.0447
_diffrn_reflns_av_unetI/netI     0.0525
_diffrn_reflns_Laue_measured_fraction_full 1.000
_diffrn_reflns_Laue_measured_fraction_max 0.879
_diffrn_reflns_limit_h_max       13
_diffrn_reflns_limit_h_min       -12
_diffrn_reflns_limit_k_max       7
_diffrn_reflns_limit_k_min       -7
_diffrn_reflns_limit_l_max       13
_diffrn_reflns_limit_l_min       -12
_diffrn_reflns_number            3833
_diffrn_reflns_point_group_measured_fraction_full 0.997
_diffrn_reflns_point_group_measured_fraction_max 0.826
_diffrn_reflns_theta_full        25.242
_diffrn_reflns_theta_max         30.218
_diffrn_reflns_theta_min         2.092
_diffrn_source                   'Rotating-anode X-ray tube (dual wavelength)'
_diffrn_source_type              'Rigaku (Mo) X-ray DW Source'
_exptl_absorpt_coefficient_mu    2.818
_exptl_absorpt_correction_T_max  1.00000
_exptl_absorpt_correction_T_min  0.64767
_exptl_absorpt_correction_type   multi-scan
_exptl_absorpt_process_details
;
CrysAlisPro 1.171.40.42a (Rigaku Oxford Diffraction, 2019)
Empirical absorption correction using spherical harmonics,
 implemented in SCALE3 ABSPACK scaling algorithm.
;
_exptl_crystal_colour            'clear colourless'
_exptl_crystal_colour_lustre     clear
_exptl_crystal_colour_primary    colourless
_exptl_crystal_density_diffrn    1.809
_exptl_crystal_description       needle
_exptl_crystal_F_000             284
_exptl_crystal_size_max          0.249
_exptl_crystal_size_mid          0.017
_exptl_crystal_size_min          0.015
_refine_diff_density_max         2.561
_refine_diff_density_min         -2.481
_refine_diff_density_rms         0.307
_refine_ls_abs_structure_details
;
 Flack x determined using 940 quotients [(I+)-(I-)]/[(I+)+(I-)]
 (Parsons, Flack and Wagner, Acta Cryst. B69 (2013) 249-259).
;
_refine_ls_abs_structure_Flack   -0.02(7)
_refine_ls_extinction_method     none
_refine_ls_goodness_of_fit_ref   1.228
_refine_ls_hydrogen_treatment    constr
_refine_ls_matrix_type           full
_refine_ls_number_parameters     130
_refine_ls_number_reflns         3833
_refine_ls_number_restraints     1
_refine_ls_restrained_S_all      1.228
_refine_ls_R_factor_all          0.0714
_refine_ls_R_factor_gt           0.0590
_refine_ls_shift/su_max          0.000
_refine_ls_shift/su_mean         0.000
_refine_ls_structure_factor_coef Fsqd
_refine_ls_weighting_details
'w=1/[\s^2^(Fo^2^)+(0.1049P)^2^+11.8661P] where P=(Fo^2^+2Fc^2^)/3'
_refine_ls_weighting_scheme      calc
_refine_ls_wR_factor_gt          0.2182
_refine_ls_wR_factor_ref         0.2365
_reflns_Friedel_coverage         0.720
_reflns_Friedel_fraction_full    0.994
_reflns_Friedel_fraction_max     0.763
_reflns_number_gt                3332
_reflns_number_total             3833
_reflns_threshold_expression     'I > 2\s(I)'
_cod_data_source_file            cs9b01911_si_004.cif
_cod_data_source_block           s5447l_twin1_hklf4
_cod_database_code               4514681
_shelx_shelxl_version_number     2018/1
_shelx_space_group_comment
;
The symmetry employed for this shelxl refinement is uniquely defined
by the following loop, which should always be used as a source of
symmetry information in preference to the above space-group names.
They are only intended as comments.
;
_shelx_estimated_absorpt_t_max   0.959
_shelx_estimated_absorpt_t_min   0.541
_olex2_refinement_description
;
1. Twinned data refinement
 Scales: 0.496(11)
 0.271(8) 0.233(7)
2. Fixed Uiso
 At 1.2 times of:
  All C(H) groups, All C(H,H) groups
3.a Ternary CH refined with riding coordinates:
 C4(H4), C1(H1), C2(H2)
3.b Secondary CH2 refined with riding coordinates:
 C3(H3A,H3B)
3.c Aromatic/amide H refined with riding coordinates:
 C8(H8), C9(H9), C10(H10), C6(H6), C7(H7)
;
_shelx_res_file
;
TITL s5447l_twin1_hklf4_c.res in P2(1)
    s5447l_twin1_hklf4.res
    created by SHELXL-2018/1 at 14:46:20 on 02-Apr-2019
REM Old TITL s5447l_twin1_hklf4 in P2(1)
REM SHELXT solution in P2(1)
REM R1 0.125, Rweak 0.014, Alpha 0.101, Orientation as input
REM Flack x = 0.342 ( 0.182 ) from Parsons' quotients
REM Formula found by SHELXT: C11 N3 O3 I
CELL 0.71073 9.8268 5.6439 9.8652 90 99.353 90
ZERR 2 0.0005 0.0003 0.0005 0 0.005 0
LATT -1
SYMM -X,0.5+Y,-Z
SFAC C H I N O
UNIT 22 20 1.92 2 2

L.S. 10
PLAN  20
SIZE 0.015 0.017 0.249
BOND $H
LIST 4
fmap 2
acta
REM <olex2.extras>
REM <HklSrc "%.\\s5447l_twin1_hklf5.hkl">
REM </olex2.extras>

WGHT    0.104900   11.866100
BASF   0.27129   0.23268
FVAR       3.24006
I1    3    0.884696    0.717010    0.404621     0.96025    0.01804    0.02926 =
         0.01175   -0.00073    0.00147    0.00038
O1    5    0.613474    0.599608    0.026721    11.00000    0.02062    0.02982 =
         0.01256   -0.00197    0.00601    0.00058
C5    1    0.525971    0.726352    0.232454    11.00000    0.01744    0.01834 =
         0.01212    0.00533    0.00403    0.00287
C8    1    0.307059    0.740495    0.376837    11.00000    0.01850    0.02819 =
         0.01996   -0.00448    0.00581    0.00479
AFIX  43
H8    2    0.232585    0.747629    0.424046    11.00000   -1.20000
AFIX   0
C4    1    0.647791    0.715727    0.158079    11.00000    0.01648    0.01917 =
         0.01389   -0.00288    0.00392   -0.01238
AFIX  13
H4    2    0.681589    0.876235    0.145315    11.00000   -1.20000
AFIX   0
C11   1    0.907857    0.272526    0.112430    11.00000    0.02635    0.03188 =
         0.02355    0.00313    0.01181   -0.00112
N1    4    0.950651    0.088551    0.112533    11.00000    0.04212    0.03070 =
         0.03477    0.00852    0.02580    0.00404
C3    1    0.740710    0.561909   -0.019232    11.00000    0.01940    0.03487 =
         0.01560   -0.00220    0.00637    0.00849
AFIX  23
H3A   2    0.765888    0.700744   -0.067566    11.00000   -1.20000
H3B   2    0.733804    0.427693   -0.081390    11.00000   -1.20000
AFIX   0
C9    1    0.319999    0.547890    0.293566    11.00000    0.02982    0.02065 =
         0.01856    0.00117    0.00943   -0.00419
AFIX  43
H9    2    0.256121    0.425100    0.286458    11.00000   -1.20000
AFIX   0
C1    1    0.768165    0.557325    0.226702    11.00000    0.01946    0.01863 =
         0.01485   -0.00199    0.00501   -0.00230
AFIX  13
H1    2    0.730678    0.406293    0.252958    11.00000   -1.20000
AFIX   0
C10   1    0.431774    0.539265    0.218956    11.00000    0.02575    0.02007 =
         0.01705   -0.00243    0.00523    0.00211
AFIX  43
H10   2    0.442102    0.411319    0.162095    11.00000   -1.20000
AFIX   0
C2    1    0.850816    0.513029    0.109328    11.00000    0.02218    0.01814 =
         0.02058    0.00088    0.00811   -0.00258
AFIX  13
H2    2    0.925527    0.629275    0.114126    11.00000   -1.20000
AFIX   0
C6    1    0.511580    0.915623    0.318118    11.00000    0.02634    0.01824 =
         0.01391    0.00032    0.00341   -0.00276
AFIX  43
H6    2    0.575262    1.038808    0.326731    11.00000   -1.20000
AFIX   0
C7    1    0.401697    0.922078    0.391634    11.00000    0.02932    0.02243 =
         0.01262   -0.00232    0.00602    0.00615
AFIX  43
H7    2    0.392526    1.048162    0.450171    11.00000   -1.20000
AFIX   0
HKLF 5




REM  s5447l_twin1_hklf4_c.res in P2(1)
REM R1 =  0.0590 for    3332 Fo > 4sig(Fo)  and  0.0714 for all    3833 data
REM    130 parameters refined using      1 restraints

END

WGHT      0.1049     11.8661

REM Highest difference peak  2.561,  deepest hole -2.481,  1-sigma level  0.307
Q1    1   0.8012  0.7173  0.3420  11.00000  0.05    2.56
Q2    1   0.8775  0.8605  0.4018  11.00000  0.05    2.19
Q3    1   0.8776  0.5734  0.4019  11.00000  0.05    2.12
Q4    1   0.9618  0.7213  0.4628  11.00000  0.05    1.94
Q5    1   0.7532  0.7166  0.4623  11.00000  0.05    1.36
Q6    1   0.9453  0.5470  0.2195  11.00000  0.05    1.21
Q7    1   0.9598 -0.1151  0.2359  11.00000  0.05    1.12
Q8    1   0.9156  0.9989  0.4398  11.00000  0.05    1.04
Q9    1   0.9559  0.7186  0.5793  11.00000  0.05    1.02
Q10   1   0.3369  1.2238  0.5911  11.00000  0.05    1.02
Q11   1   0.6926  0.8180  0.4259  11.00000  0.05    0.96
Q12   1   0.9152  0.4338  0.4403  11.00000  0.05    0.93
Q13   1   0.2044  1.1088  0.4396  11.00000  0.05    0.91
Q14   1   0.8194  0.4317  0.2625  11.00000  0.05    0.89
Q15   1   0.9994  0.7122  0.2458  11.00000  0.05    0.89
Q16   1   0.6120  1.2132  0.3026  11.00000  0.05    0.83
Q17   1   0.2024  0.3232  0.4413  11.00000  0.05    0.83
Q18   1   1.0045  0.7875  0.2574  11.00000  0.05    0.82
Q19   1   0.5147  1.2156  0.4286  11.00000  0.05    0.80
Q20   1   0.7564  0.2171  0.2273  11.00000  0.05    0.79
;
_shelx_res_checksum              38699
_shelx_hkl_file
;
   0  -7   1 1829.02 359.162  -3
   0  -7   1 1829.02 359.162  -2
   0  -7   1 1829.02 359.162   1
   0  -7   2 2664.73 502.781  -3
   0  -7   2 2664.73 502.781  -2
   0  -7   2 2664.73 502.781   1
   0  -7   3 1863.69 442.709  -3
   0  -7   3 1863.69 442.709  -2
   0  -7   3 1863.69 442.709   1
   0  -7   4 2852.20 461.740  -3
   0  -7   4 2852.20 461.740  -2
   0  -7   4 2852.20 461.740   1
   0  -7   5 453.606 310.328  -3
   0  -7   5 453.606 310.328  -2
   0  -7   5 453.606 310.328   1
   0  -6   0 18610.5 1175.31  -3
   0  -6   0 18610.5 1175.31  -2
   0  -6   0 18610.5 1175.31   1
   0  -6   1 4920.18 456.993  -3
   0  -6   1 4920.18 456.993  -2
   0  -6   1 4920.18 456.993   1
   0  -6   2-12.5245 205.464  -3
   0  -6   2-12.5245 205.464  -2
   0  -6   2-12.5245 205.464   1
   0  -6   3 92.3889 204.642  -3
   0  -6   3 92.3889 204.642  -2
   0  -6   3 92.3889 204.642   1
   0  -6  -4 1902.07 306.292  -3
   0  -6  -4 1902.07 306.292  -2
   0  -6  -4 1902.07 306.292   1
   0  -6   5 7306.06 578.136  -3
   0  -6   5 7306.06 578.136  -2
   0  -6   5 7306.06 578.136   1
   0  -6   6 3866.08 429.059  -3
   0  -6   6 3866.08 429.059  -2
   0  -6   6 3866.08 429.059   1
   0  -6   7 828.832 321.647  -3
   0  -6   7 828.832 321.647  -2
   0  -6   7 828.832 321.647   1
   0  -6   8 122.826 303.955  -3
   0  -6   8 122.826 303.955  -2
   0  -6   8 122.826 303.955   1
   0  -5   1 13972.9 373.794  -3
   0  -5   1 13972.9 373.794  -2
   0  -5   1 13972.9 373.794   1
   0  -5   2 10646.3 331.172  -3
   0  -5   2 10646.3 331.172  -2
   0  -5   2 10646.3 331.172   1
   0  -5   3 12251.9 303.146  -3
   0  -5   3 12251.9 303.146  -2
   0  -5   3 12251.9 303.146   1
   0  -5  -4 6169.12 160.370  -3
   0  -5  -4 6169.12 160.370  -2
   0  -5  -4 6169.12 160.370   1
   0  -5  -5 196.635 105.692  -3
   0  -5  -5 196.635 105.692  -2
   0  -5  -5 196.635 105.692   1
   0  -5  -6 1575.34 168.162  -3
   0  -5  -6 1575.34 168.162  -2
   0  -5  -6 1575.34 168.162   1
   0  -5   7 10386.8 358.567  -3
   0  -5   7 10386.8 358.567  -2
   0  -5   7 10386.8 358.567   1
   0  -5   8 4947.51 387.337  -3
   0  -5   8 4947.51 387.337  -2
   0  -5   8 4947.51 387.337   1
   0  -5   9 4331.43 384.731  -3
   0  -5   9 4331.43 384.731  -2
   0  -5   9 4331.43 384.731   1
   0  -4   0 23919.2 716.389  -3
   0  -4   0 23919.2 716.389  -2
   0  -4   0 23919.2 716.389   1
   0  -4   1 25294.5 461.597  -3
   0  -4   1 25294.5 461.597  -2
   0  -4   1 25294.5 461.597   1
   0  -4   2 1069.77 55.3778  -3
   0  -4   2 1069.77 55.3778  -2
   0  -4   2 1069.77 55.3778   1
   0  -4   3 590.973 87.3489  -3
   0  -4   3 590.973 87.3489  -2
   0  -4   3 590.973 87.3489   1
   0  -4  -4 16315.0 306.037  -3
   0  -4  -4 16315.0 306.037  -2
   0  -4  -4 16315.0 306.037   1
   0  -4   5 16632.2 307.148  -3
   0  -4   5 16632.2 307.148  -2
   0  -4   5 16632.2 307.148   1
   0  -4   6 13152.1 287.353  -3
   0  -4   6 13152.1 287.353  -2
   0  -4   6 13152.1 287.353   1
   0  -4   7 2575.63 195.408  -3
   0  -4   7 2575.63 195.408  -2
   0  -4   7 2575.63 195.408   1
   0  -4   8 302.914 186.502  -3
   0  -4   8 302.914 186.502  -2
   0  -4   8 302.914 186.502   1
   0  -4   9 5723.95 416.081  -3
   0  -4   9 5723.95 416.081  -2
   0  -4   9 5723.95 416.081   1
   0  -4 -10 5683.78 420.677  -3
   0  -4 -10 5683.78 420.677  -2
   0  -4 -10 5683.78 420.677   1
   0  -4 -11 5447.61 631.039  -3
   0  -4 -11 5447.61 631.039  -2
   0  -4 -11 5447.61 631.039   1
   0  -3  -1 7127.80 204.602  -3
   0  -3  -1 7127.80 204.602  -2
   0  -3  -1 7127.80 204.602   1
   0  -3   2 29428.4 292.673  -3
   0  -3   2 29428.4 292.673  -2
   0  -3   2 29428.4 292.673   1
   0  -3   3 37529.4 487.348  -3
   0  -3   3 37529.4 487.348  -2
   0  -3   3 37529.4 487.348   1
   0  -3   4 18863.4 348.387  -3
   0  -3   4 18863.4 348.387  -2
   0  -3   4 18863.4 348.387   1
   0  -3  -5 122.762 83.9105  -3
   0  -3  -5 122.762 83.9105  -2
   0  -3  -5 122.762 83.9105   1
   0  -3   6 4985.24 193.064  -3
   0  -3   6 4985.24 193.064  -2
   0  -3   6 4985.24 193.064   1
   0  -3   7 14245.5 324.959  -3
   0  -3   7 14245.5 324.959  -2
   0  -3   7 14245.5 324.959   1
   0  -3  -8 20287.8 568.797  -3
   0  -3  -8 20287.8 568.797  -2
   0  -3  -8 20287.8 568.797   1
   0  -3   8 13745.4 513.169  -3
   0  -3   8 13745.4 513.169   1
   0  -3   9 4359.86 317.254  -3
   0  -3   9 4359.86 317.254  -2
   0  -3   9 4359.86 317.254   1
   0  -3  10 329.772 238.767  -3
   0  -3  10 329.772 238.767  -2
   0  -3  10 329.772 238.767   1
   0  -3  11 125.023 250.374  -3
   0  -3  11 125.023 250.374  -2
   0  -3  11 125.023 250.374   1
   0  -3 -12 4277.30 602.478  -3
   0  -3 -12 4277.30 602.478  -2
   0  -3 -12 4277.30 602.478   1
   0  -2   0 62950.0 434.531  -3
   0  -2   0 62950.0 434.531  -2
   0  -2   0 62950.0 434.531   1
   0  -2   1 43538.6 231.423  -3
   0  -2   1 43538.6 231.423  -2
   0  -2   1 43538.6 231.423   1
   0  -2   2 9672.27 233.861  -3
   0  -2   2 9672.27 233.861  -2
   0  -2   2 9672.27 233.861   1
   0  -2   3 335.098 120.639  -3
   0  -2   3 335.098 120.639  -2
   0  -2   3 335.098 120.639   1
   0  -2  -4 31299.2 503.021  -3
   0  -2  -4 31299.2 503.021  -2
   0  -2  -4 31299.2 503.021   1
   0  -2  -5 43351.5 548.645  -3
   0  -2  -5 43351.5 548.645  -2
   0  -2  -5 43351.5 548.645   1
   0  -2  -6 24317.5 533.427  -3
   0  -2  -6 24317.5 533.427  -2
   0  -2  -6 24317.5 533.427   1
   0  -2   7 6281.08 269.869  -3
   0  -2   7 6281.08 269.869  -2
   0  -2   7 6281.08 269.869   1
   0  -2   7 5494.06 354.932  -3
   0  -2   7 5494.06 354.932   1
   0  -2  -8 717.038 155.914  -3
   0  -2  -8 717.038 155.914  -2
   0  -2  -8 717.038 155.914   1
   0  -2   8 775.961 228.633  -3
   0  -2   8 775.961 228.633   1
   0  -2   9 9345.09 410.836  -3
   0  -2   9 9345.09 410.836  -2
   0  -2   9 9345.09 410.836   1
   0  -2   9 8404.53 411.136  -3
   0  -2   9 8404.53 411.136   1
   0  -2 -10 8647.37 470.513  -3
   0  -2 -10 8647.37 470.513  -2
   0  -2 -10 8647.37 470.513   1
   0  -2  11 8984.96 423.722  -3
   0  -2  11 8984.96 423.722  -2
   0  -2  11 8984.96 423.722   1
   0  -2 -12 4392.58 520.066  -3
   0  -2 -12 4392.58 520.066   1
   0  -1   1 77268.7 355.063  -3
   0  -1   1 77268.7 355.063  -2
   0  -1   1 77268.7 355.063   1
   0  -1  -2 92148.1 523.813  -3
   0  -1  -2 92148.1 523.813  -2
   0  -1  -2 92148.1 523.813   1
   0  -1   3 48001.3 446.737  -3
   0  -1   3 48001.3 446.737  -2
   0  -1   3 48001.3 446.737   1
   0  -1  -4 34367.0 393.416  -3
   0  -1  -4 34367.0 393.416  -2
   0  -1  -4 34367.0 393.416   1
   0  -1  -5 3980.40 174.159  -3
   0  -1  -5 3980.40 174.159  -2
   0  -1  -5 3980.40 174.159   1
   0  -1  -6 18906.5 330.988  -3
   0  -1  -6 18906.5 330.988  -2
   0  -1  -6 18906.5 330.988   1
   0  -1  -7 22806.8 383.880  -3
   0  -1  -7 22806.8 383.880  -2
   0  -1  -7 22806.8 383.880   1
   0  -1   8 31186.6 556.078  -3
   0  -1   8 31186.6 556.078  -2
   0  -1   8 31186.6 556.078   1
   0  -1   8 21620.8 671.326  -3
   0  -1   8 21620.8 671.326   1
   0  -1   9 9904.42 359.290  -3
   0  -1   9 9904.42 359.290  -2
   0  -1   9 9904.42 359.290   1
   0  -1   9 6750.80 415.704  -3
   0  -1   9 6750.80 415.704   1
   0  -1  10 1637.13 298.918  -3
   0  -1  10 1637.13 298.918  -2
   0  -1  10 1637.13 298.918   1
   0  -1  10 1511.96 206.343  -3
   0  -1  10 1511.96 206.343   1
   0  -1  11 1221.22 297.238  -3
   0  -1  11 1221.22 297.238  -2
   0  -1  11 1221.22 297.238   1
   0  -1  12 11000.1 626.808  -3
   0  -1  12 11000.1 626.808  -2
   0  -1  12 11000.1 626.808   1
   0   0  -1 16598.7 150.962  -3
   0   0  -1 16598.7 150.962  -2
   0   0  -1 16598.7 150.962   1
   0   0  -2 2714.51 92.8070  -3
   0   0  -2 2714.51 92.8070  -2
   0   0  -2 2714.51 92.8070   1
   0   0   3 7567.14 144.695  -3
   0   0   3 7567.14 144.695  -2
   0   0   3 7567.14 144.695   1
   0   0   4 44394.4 430.109  -3
   0   0   4 44394.4 430.109  -2
   0   0   4 44394.4 430.109   1
   0   0   5 57085.8 496.523  -3
   0   0   5 57085.8 496.523  -2
   0   0   5 57085.8 496.523   1
   0   0   6 40562.1 435.379  -3
   0   0   6 40562.1 435.379  -2
   0   0   6 40562.1 435.379   1
   0   0   7 9814.71 283.545  -3
   0   0   7 9814.71 283.545  -2
   0   0   7 9814.71 283.545   1
   0   0   8 2520.40 168.251  -3
   0   0   8 2520.40 168.251  -2
   0   0   8 2520.40 168.251   1
   0   0   9 2317.94 319.768  -3
   0   0   9 2317.94 319.768   1
   0   0   9 2864.76 287.653  -3
   0   0   9 2864.76 287.653  -2
   0   0   9 2864.76 287.653   1
   0   0  10 14176.0 683.225  -3
   0   0  10 14176.0 683.225   1
   0   0  10 23289.6 802.212  -3
   0   0  10 23289.6 802.212  -2
   0   0  10 23289.6 802.212   1
   0   0  11 18778.5 748.037  -3
   0   0  11 18778.5 748.037  -2
   0   0  11 18778.5 748.037   1
   0   0  12 2111.28 356.353  -3
   0   0  12 2111.28 356.353  -2
   0   0  12 2111.28 356.353   1
   0   1   1 79275.4 1124.73  -3
   0   1   1 79275.4 1124.73  -2
   0   1   1 79275.4 1124.73   1
   0   1   2 97283.3 1354.57  -3
   0   1   2 97283.3 1354.57  -2
   0   1   2 97283.3 1354.57   1
   0   1   3 48529.7 1007.92  -3
   0   1   3 48529.7 1007.92  -2
   0   1   3 48529.7 1007.92   1
   0   1   4 36142.8 628.191  -3
   0   1   4 36142.8 628.191  -2
   0   1   4 36142.8 628.191   1
   0   1   5 3585.78 244.073  -3
   0   1   5 3585.78 244.073  -2
   0   1   5 3585.78 244.073   1
   0   1   6 17951.4 501.605  -3
   0   1   6 17951.4 501.605  -2
   0   1   6 17951.4 501.605   1
   0   1   7 21614.3 576.665  -3
   0   1   7 21614.3 576.665  -2
   0   1   7 21614.3 576.665   1
   0   1   8 29752.7 616.760  -3
   0   1   8 29752.7 616.760  -2
   0   1   8 29752.7 616.760   1
   0   1   9 9382.28 348.762  -3
   0   1   9 9382.28 348.762  -2
   0   1   9 9382.28 348.762   1
   0   1  10 835.764 289.912  -3
   0   1  10 835.764 289.912   1
   0   1  10 1921.09 432.111  -3
   0   1  10 1921.09 432.111  -2
   0   1  10 1921.09 432.111   1
   0   1  11 1228.93 424.438  -3
   0   1  11 1228.93 424.438  -2
   0   1  11 1228.93 424.438   1
   0   1  12 11017.9 822.954  -3
   0   1  12 11017.9 822.954  -2
   0   1  12 11017.9 822.954   1
   0   2   1 44224.7 440.355  -3
   0   2   1 44224.7 440.355  -2
   0   2   1 44224.7 440.355   1
   0   2   2 9997.06 576.300  -3
   0   2   2 9997.06 576.300  -2
   0   2   2 9997.06 576.300   1
   0   2   3 31.6713 168.447  -3
   0   2   3 31.6713 168.447  -2
   0   2   3 31.6713 168.447   1
   0   2   4 33334.3 1063.62  -3
   0   2   4 33334.3 1063.62  -2
   0   2   4 33334.3 1063.62   1
   0   2   5 44895.5 1214.90  -3
   0   2   5 44895.5 1214.90  -2
   0   2   5 44895.5 1214.90   1
   0   2   6 23996.3 539.770  -3
   0   2   6 23996.3 539.770  -2
   0   2   6 23996.3 539.770   1
   0   2   7 5779.63 304.752  -3
   0   2   7 5779.63 304.752  -2
   0   2   7 5779.63 304.752   1
   0   2   8 510.763 168.261  -3
   0   2   8 510.763 168.261  -2
   0   2   8 510.763 168.261   1
   0   2   9 9860.44 412.160  -3
   0   2   9 9860.44 412.160  -2
   0   2   9 9860.44 412.160   1
   0   2  10 8235.97 656.037  -3
   0   2  10 8235.97 656.037  -2
   0   2  10 8235.97 656.037   1
   0   2  11 8592.89 686.719  -3
   0   2  11 8592.89 686.719  -2
   0   2  11 8592.89 686.719   1
   0   2  12 4718.82 580.191  -3
   0   2  12 4718.82 580.191  -2
   0   2  12 4718.82 580.191   1
   0   3   1 7063.73 219.138  -3
   0   3   1 7063.73 219.138  -2
   0   3   1 7063.73 219.138   1
   0   3   2 27737.3 381.442  -3
   0   3   2 27737.3 381.442  -2
   0   3   2 27737.3 381.442   1
   0   3   3 36452.4 553.470  -3
   0   3   3 36452.4 553.470  -2
   0   3   3 36452.4 553.470   1
   0   3   4 19889.2 502.080  -3
   0   3   4 19889.2 502.080  -2
   0   3   4 19889.2 502.080   1
   0   3   5 150.605 135.378  -3
   0   3   5 150.605 135.378  -2
   0   3   5 150.605 135.378   1
   0   3   6 4702.88 299.114  -3
   0   3   6 4702.88 299.114  -2
   0   3   6 4702.88 299.114   1
   0   3   7 14266.3 488.474  -3
   0   3   7 14266.3 488.474  -2
   0   3   7 14266.3 488.474   1
   0   3   8 19070.9 583.076  -3
   0   3   8 19070.9 583.076  -2
   0   3   8 19070.9 583.076   1
   0   3   9 4953.09 437.136  -3
   0   3   9 4953.09 437.136  -2
   0   3   9 4953.09 437.136   1
   0   3  10 205.345 403.252  -3
   0   3  10 205.345 403.252  -2
   0   3  10 205.345 403.252   1
   0   3  11 156.045 398.536  -3
   0   3  11 156.045 398.536  -2
   0   3  11 156.045 398.536   1
   0   4   0 24449.6 640.522  -3
   0   4   0 24449.6 640.522  -2
   0   4   0 24449.6 640.522   1
   0   4  -1 25652.8 465.623  -3
   0   4  -1 25652.8 465.623  -2
   0   4  -1 25652.8 465.623   1
   0   4   2 1188.73 149.496  -3
   0   4   2 1188.73 149.496  -2
   0   4   2 1188.73 149.496   1
   0   4   3 444.071 100.924  -3
   0   4   3 444.071 100.924  -2
   0   4   3 444.071 100.924   1
   0   4   4 16468.4 357.813  -3
   0   4   4 16468.4 357.813  -2
   0   4   4 16468.4 357.813   1
   0   4   5 17984.4 457.481  -3
   0   4   5 17984.4 457.481  -2
   0   4   5 17984.4 457.481   1
   0   4   6 13438.0 488.972  -3
   0   4   6 13438.0 488.972  -2
   0   4   6 13438.0 488.972   1
   0   4   7 2594.00 329.600  -3
   0   4   7 2594.00 329.600  -2
   0   4   7 2594.00 329.600   1
   0   4   8 410.797 253.037  -3
   0   4   8 410.797 253.037  -2
   0   4   8 410.797 253.037   1
   0   4   9 5082.89 668.512  -3
   0   4   9 5082.89 668.512  -2
   0   4   9 5082.89 668.512   1
   0   4  10 6733.31 761.185  -3
   0   4  10 6733.31 761.185  -2
   0   4  10 6733.31 761.185   1
   0   5   1 14750.4 448.440  -3
   0   5   1 14750.4 448.440  -2
   0   5   1 14750.4 448.440   1
   0   5   2 11270.8 478.600  -3
   0   5   2 11270.8 478.600  -2
   0   5   2 11270.8 478.600   1
   0   5   3 12280.6 432.994  -3
   0   5   3 12280.6 432.994  -2
   0   5   3 12280.6 432.994   1
   0   5   4 6367.91 306.968  -2
   0   5   4 6367.91 306.968   1
   0   5   4 6421.48 237.925  -3
   0   5   4 6421.48 237.925  -2
   0   5   4 6421.48 237.925   1
   0   5   5 299.715 130.346  -3
   0   5   5 299.715 130.346  -2
   0   5   5 299.715 130.346   1
   0   5   6 1592.44 184.980  -3
   0   5   6 1592.44 184.980  -2
   0   5   6 1592.44 184.980   1
   0   5   7 10218.8 449.857  -3
   0   5   7 10218.8 449.857  -2
   0   5   7 10218.8 449.857   1
   0   5   8 5061.28 361.962  -3
   0   5   8 5061.28 361.962  -2
   0   5   8 5061.28 361.962   1
   0   5   9 4868.08 677.106  -3
   0   5   9 4868.08 677.106  -2
   0   5   9 4868.08 677.106   1
   0   6   0 19479.3 963.522  -3
   0   6   0 19479.3 963.522  -2
   0   6   0 19479.3 963.522   1
   0   6   1 4890.22 377.943  -3
   0   6   1 4890.22 377.943  -2
   0   6   1 4890.22 377.943   1
   0   6   2 300.811 204.483  -3
   0   6   2 300.811 204.483  -2
   0   6   2 300.811 204.483   1
   0   6   3 702.158 216.224  -3
   0   6   3 702.158 216.224  -2
   0   6   3 702.158 216.224   1
   0   6   4 2121.18 236.980  -3
   0   6   4 2121.18 236.980  -2
   0   6   4 2121.18 236.980   1
   0   6   5 7734.33 367.246  -3
   0   6   5 7734.33 367.246  -2
   0   6   5 7734.33 367.246   1
   0   6   6 4449.71 304.643  -3
   0   6   6 4449.71 304.643  -2
   0   6   6 4449.71 304.643   1
   0   6   7 885.443 208.699  -3
   0   6   7 885.443 208.699  -2
   0   6   7 885.443 208.699   1
   0   7   1 2080.21 480.590  -3
   0   7   1 2080.21 480.590  -2
   0   7   1 2080.21 480.590   1
   0   7   2 2930.59 327.354  -3
   0   7   2 2930.59 327.354  -2
   0   7   2 2930.59 327.354   1
   0   7   3 1863.48 286.006  -3
   0   7   3 1863.48 286.006  -2
   0   7   3 1863.48 286.006   1
   0   7   4 2577.84 298.568  -3
   0   7   4 2577.84 298.568  -2
   0   7   4 2577.84 298.568   1
   0   7   5 91.1674 400.780  -3
   0   7   5 91.1674 400.780  -2
   0   7   5 91.1674 400.780   1
  -1  -7   4 2010.94 419.485  -3
  -1  -7   4 2010.94 419.485  -2
  -1  -7   4 2010.94 419.485   1
  -1  -7   3 2816.15 485.823  -3
  -1  -7   3 2816.15 485.823  -2
  -1  -7   3 2816.15 485.823   1
  -1  -7   2 2298.08 471.093  -3
  -1  -7   2 2298.08 471.093  -2
  -1  -7   2 2298.08 471.093   1
  -1  -7   1-24.7272 223.568  -3
  -1  -7   1-24.7272 223.568  -2
  -1  -7   1-24.7272 223.568   1
   1  -7   0 2552.13 387.043  -3
   1  -7   0 2552.13 387.043  -2
   1  -7   0 2552.13 387.043   1
   1  -7   1 2399.86 373.342  -3
   1  -7   1 2399.86 373.342  -2
   1  -7   1 2399.86 373.342   1
   1  -7   2 5343.38 657.617  -3
   1  -7   2 5343.38 657.617  -2
   1  -7   2 5343.38 657.617   1
   1  -7   3 1959.65 440.975  -3
   1  -7   3 1959.65 440.975  -2
   1  -7   3 1959.65 440.975   1
   1  -7   4 29.7205 281.840  -3
   1  -7   4 29.7205 281.840  -2
   1  -7   4 29.7205 281.840   1
   1  -7   5 1889.36 396.302  -3
   1  -7   5 1889.36 396.302  -2
   1  -7   5 1889.36 396.302   1
  -1  -6   7 4348.58 496.216  -3
  -1  -6   7 4348.58 496.216  -2
  -1  -6   7 4348.58 496.216   1
  -1  -6   6 4790.74 384.900  -3
  -1  -6   6 4790.74 384.900  -2
  -1  -6   6 4790.74 384.900   1
  -1  -6   5 2817.62 410.771  -3
  -1  -6   5 2817.62 410.771  -2
  -1  -6   5 2817.62 410.771   1
   1  -6  -4-94.8994 335.058  -3
   1  -6  -4-94.8994 335.058  -2
   1  -6  -4-94.8994 335.058   1
  -1  -6   3 837.128 259.809  -3
  -1  -6   3 837.128 259.809  -2
  -1  -6   3 837.128 259.809   1
  -1  -6   2 7382.85 393.580  -3
  -1  -6   2 7382.85 393.580  -2
  -1  -6   2 7382.85 393.580   1
   1  -6  -1 7752.94 407.961  -3
   1  -6  -1 7752.94 407.961  -2
   1  -6  -1 7752.94 407.961   1
   1  -6   0 2148.02 254.143  -3
   1  -6   0 2148.02 254.143  -2
   1  -6   0 2148.02 254.143   1
   1  -6   1 270.553 180.394  -3
   1  -6   1 270.553 180.394  -2
   1  -6   1 270.553 180.394   1
   1  -6   2 42.1401 161.391  -3
   1  -6   2 42.1401 161.391  -2
   1  -6   2 42.1401 161.391   1
   1  -6   3 5655.22 455.365  -3
   1  -6   3 5655.22 455.365  -2
   1  -6   3 5655.22 455.365   1
  -1  -6  -4 9205.63 523.887  -3
  -1  -6  -4 9205.63 523.887  -2
  -1  -6  -4 9205.63 523.887   1
   1  -6   5 3207.30 347.923  -3
   1  -6   5 3207.30 347.923  -2
   1  -6   5 3207.30 347.923   1
   1  -6   6 944.533 216.889  -3
   1  -6   6 944.533 216.889  -2
   1  -6   6 944.533 216.889   1
   1  -6   7 500.782 206.682  -3
   1  -6   7 500.782 206.682  -2
   1  -6   7 500.782 206.682   1
   1  -6   8 1460.53 362.410  -3
   1  -6   8 1460.53 362.410  -2
   1  -6   8 1460.53 362.410   1
   1  -5  -9 3411.06 366.648  -3
   1  -5  -9 3411.06 366.648  -2
   1  -5  -9 3411.06 366.648   1
  -1  -5   8 4507.43 390.459  -3
  -1  -5   8 4507.43 390.459  -2
  -1  -5   8 4507.43 390.459   1
  -1  -5   7 672.620 176.486  -3
  -1  -5   7 672.620 176.486  -2
  -1  -5   7 672.620 176.486   1
   1  -5  -6 1464.34 247.399  -3
   1  -5  -6 1464.34 247.399  -2
   1  -5  -6 1464.34 247.399   1
   1  -5  -5 4362.53 178.648  -3
   1  -5  -5 4362.53 178.648  -2
   1  -5  -5 4362.53 178.648   1
  -1  -5   4 10596.1 209.432  -3
  -1  -5   4 10596.1 209.432  -2
  -1  -5   4 10596.1 209.432   1
  -1  -5   3 8753.02 267.208  -3
  -1  -5   3 8753.02 267.208  -2
  -1  -5   3 8753.02 267.208   1
  -1  -5   2 1342.52 141.806  -3
  -1  -5   2 1342.52 141.806  -2
  -1  -5   2 1342.52 141.806   1
   1  -5  -1 692.827 160.746  -3
   1  -5  -1 692.827 160.746  -2
   1  -5  -1 692.827 160.746   1
   1  -5   0 5851.38 294.051  -3
   1  -5   0 5851.38 294.051  -2
   1  -5   0 5851.38 294.051   1
  -1  -5  -1 6367.76 262.072  -3
  -1  -5  -1 6367.76 262.072  -2
  -1  -5  -1 6367.76 262.072   1
  -1  -5  -2 6585.08 265.577  -3
  -1  -5  -2 6585.08 265.577  -2
  -1  -5  -2 6585.08 265.577   1
   1  -5   3 10976.5 330.751  -3
   1  -5   3 10976.5 330.751  -2
   1  -5   3 10976.5 330.751   1
   1  -5   4 837.143 119.023  -3
   1  -5   4 837.143 119.023  -2
   1  -5   4 837.143 119.023   1
   1  -5   5 1534.43 154.168  -3
   1  -5   5 1534.43 154.168  -2
   1  -5   5 1534.43 154.168   1
  -1  -5  -6 5518.73 262.023  -3
  -1  -5  -6 5518.73 262.023  -2
  -1  -5  -6 5518.73 262.023   1
   1  -5   7 7945.01 330.405  -3
   1  -5   7 7945.01 330.405  -2
   1  -5   7 7945.01 330.405   1
   1  -5   8 2163.97 277.713  -3
   1  -5   8 2163.97 277.713   1
   1  -5   8 3544.28 348.611  -3
   1  -5   8 3544.28 348.611  -2
   1  -5   8 3544.28 348.611   1
   1  -5   9 179.134 312.199  -3
   1  -5   9 179.134 312.199  -2
   1  -5   9 179.134 312.199   1
   1  -4 -11 3140.03 530.638  -3
   1  -4 -11 3140.03 530.638  -2
   1  -4 -11 3140.03 530.638   1
   1  -4 -10 2204.00 319.886  -3
   1  -4 -10 2204.00 319.886  -2
   1  -4 -10 2204.00 319.886   1
  -1  -4   9-20.2367 219.735  -3
  -1  -4   9-20.2367 219.735  -2
  -1  -4   9-20.2367 219.735   1
  -1  -4   8 4749.23 278.565  -3
  -1  -4   8 4749.23 278.565   1
   1  -4  -8 6254.72 350.335  -3
   1  -4  -8 6254.72 350.335  -2
   1  -4  -8 6254.72 350.335   1
  -1  -4   7 10767.8 254.672  -3
  -1  -4   7 10767.8 254.672  -2
  -1  -4   7 10767.8 254.672   1
  -1  -4   6 8476.19 221.528  -3
  -1  -4   6 8476.19 221.528  -2
  -1  -4   6 8476.19 221.528   1
  -1  -4   5 8778.44 216.471  -3
  -1  -4   5 8778.44 216.471  -2
  -1  -4   5 8778.44 216.471   1
  -1  -4   4 432.818 85.4354  -3
  -1  -4   4 432.818 85.4354  -2
  -1  -4   4 432.818 85.4354   1
  -1  -4   3 1728.32 107.022  -3
  -1  -4   3 1728.32 107.022  -2
  -1  -4   3 1728.32 107.022   1
  -1  -4   2 19752.7 327.126  -2
  -1  -4   2 19752.7 327.126   1
  -1  -4   2 19844.9 367.142  -3
  -1  -4   2 19844.9 367.142  -2
  -1  -4   2 19844.9 367.142   1
   1  -4  -1 20433.4 374.635  -3
   1  -4  -1 20433.4 374.635  -2
   1  -4  -1 20433.4 374.635   1
   1  -4   0 9058.53 277.011  -3
   1  -4   0 9058.53 277.011  -2
   1  -4   0 9058.53 277.011   1
   1  -4   1 1210.17 131.598  -3
   1  -4   1 1210.17 131.598  -2
   1  -4   1 1210.17 131.598   1
  -1  -4  -2 1169.09 95.1802  -3
  -1  -4  -2 1169.09 95.1802  -2
  -1  -4  -2 1169.09 95.1802   1
   1  -4   3 14993.3 259.782  -3
   1  -4   3 14993.3 259.782  -2
   1  -4   3 14993.3 259.782   1
   1  -4   4 14278.4 263.127  -3
   1  -4   4 14278.4 263.127  -2
   1  -4   4 14278.4 263.127   1
   1  -4   5 11185.3 259.060  -3
   1  -4   5 11185.3 259.060  -2
   1  -4   5 11185.3 259.060   1
  -1  -4  -6 3073.09 178.998  -3
  -1  -4  -6 3073.09 178.998  -2
  -1  -4  -6 3073.09 178.998   1
  -1  -4  -7 134.626 140.354  -3
  -1  -4  -7 134.626 140.354  -2
  -1  -4  -7 134.626 140.354   1
   1  -4   8 5104.75 328.469  -3
   1  -4   8 5104.75 328.469  -2
   1  -4   8 5104.75 328.469   1
   1  -4   9 9223.67 496.499  -3
   1  -4   9 9223.67 496.499  -2
   1  -4   9 9223.67 496.499   1
  -1  -4 -10 5895.37 433.503  -3
  -1  -4 -10 5895.37 433.503  -2
  -1  -4 -10 5895.37 433.503   1
   1  -3 -12 203.498 409.221  -3
   1  -3 -12 203.498 409.221  -2
   1  -3 -12 203.498 409.221   1
  -1  -3  11 677.235 269.537  -3
  -1  -3  11 677.235 269.537  -2
  -1  -3  11 677.235 269.537   1
  -1  -3  10 8278.11 471.484  -3
  -1  -3  10 8278.11 471.484  -2
  -1  -3  10 8278.11 471.484   1
   1  -3  -9 20805.4 593.417  -3
   1  -3  -9 20805.4 593.417  -2
   1  -3  -9 20805.4 593.417   1
  -1  -3   8 6059.86 341.940  -3
  -1  -3   8 6059.86 341.940   1
  -1  -3   8 7746.56 434.515  -3
  -1  -3   8 7746.56 434.515  -2
  -1  -3   8 7746.56 434.515   1
  -1  -3   7 690.538 145.565  -3
  -1  -3   7 690.538 145.565  -2
  -1  -3   7 690.538 145.565   1
  -1  -3   6 1476.91 133.093  -3
  -1  -3   6 1476.91 133.093  -2
  -1  -3   6 1476.91 133.093   1
   1  -3  -5 11983.0 241.532  -3
   1  -3  -5 11983.0 241.532  -2
   1  -3  -5 11983.0 241.532   1
  -1  -3   4 23531.7 359.157  -3
  -1  -3   4 23531.7 359.157  -2
  -1  -3   4 23531.7 359.157   1
  -1  -3   3 20836.1 404.228  -3
  -1  -3   3 20836.1 404.228  -2
  -1  -3   3 20836.1 404.228   1
   1  -3  -2 18851.2 276.660  -3
   1  -3  -2 18851.2 276.660  -2
   1  -3  -2 18851.2 276.660   1
   1  -3  -1 1169.99 77.9001  -3
   1  -3  -1 1169.99 77.9001  -2
   1  -3  -1 1169.99 77.9001   1
   1  -3   0 12190.7 263.174  -3
   1  -3   0 12190.7 263.174  -2
   1  -3   0 12190.7 263.174   1
   1  -3   1 44075.0 396.915  -3
   1  -3   1 44075.0 396.915  -2
   1  -3   1 44075.0 396.915   1
   1  -3   2 27628.4 291.800  -3
   1  -3   2 27628.4 291.800  -2
   1  -3   2 27628.4 291.800   1
   1  -3   3 15254.6 318.585  -3
   1  -3   3 15254.6 318.585  -2
   1  -3   3 15254.6 318.585   1
   1  -3   4 1484.94 128.768  -3
   1  -3   4 1484.94 128.768  -2
   1  -3   4 1484.94 128.768   1
   1  -3   5 4320.87 189.587  -3
   1  -3   5 4320.87 189.587  -2
   1  -3   5 4320.87 189.587   1
   1  -3   6 18366.6 368.601  -3
   1  -3   6 18366.6 368.601  -2
   1  -3   6 18366.6 368.601   1
   1  -3   7 16971.6 406.031  -3
   1  -3   7 16971.6 406.031  -2
   1  -3   7 16971.6 406.031   1
   1  -3   8 10155.7 495.596  -3
   1  -3   8 10155.7 495.596   1
   1  -3   8 11393.1 441.175  -3
   1  -3   8 11393.1 441.175  -2
   1  -3   8 11393.1 441.175   1
   1  -3   9 42.8164 266.987  -3
   1  -3   9 42.8164 266.987   1
   1  -3   9 312.833 229.739  -3
   1  -3   9 312.833 229.739  -2
   1  -3   9 312.833 229.739   1
  -1  -3 -10 1142.29 284.921  -3
  -1  -3 -10 1142.29 284.921  -2
  -1  -3 -10 1142.29 284.921   1
  -1  -3 -11 8506.14 497.886  -3
  -1  -3 -11 8506.14 497.886  -2
  -1  -3 -11 8506.14 497.886   1
  -1  -3 -12 7328.90 702.776  -3
  -1  -3 -12 7328.90 702.776   1
   1  -2 -12 8961.98 656.998  -3
   1  -2 -12 8961.98 656.998   1
  -1  -2  11 10172.8 509.425  -3
  -1  -2  11 10172.8 509.425  -2
  -1  -2  11 10172.8 509.425   1
   1  -2 -10 6301.74 413.349  -3
   1  -2 -10 6301.74 413.349  -2
   1  -2 -10 6301.74 413.349   1
  -1  -2   9 69.7291 169.240  -3
  -1  -2   9 69.7291 169.240   1
  -1  -2   9 147.609 209.058  -3
  -1  -2   9 147.609 209.058  -2
  -1  -2   9 147.609 209.058   1
  -1  -2   8 11649.3 384.889  -3
  -1  -2   8 11649.3 384.889   1
   1  -2  -8 13996.4 433.754  -3
   1  -2  -8 13996.4 433.754  -2
   1  -2  -8 13996.4 433.754   1
  -1  -2   7 19380.6 467.631  -3
  -1  -2   7 19380.6 467.631   1
   1  -2  -7 20927.2 501.411  -3
   1  -2  -7 20927.2 501.411  -2
   1  -2  -7 20927.2 501.411   1
   1  -2  -6 27878.5 550.375  -3
   1  -2  -6 27878.5 550.375  -2
   1  -2  -6 27878.5 550.375   1
  -1  -2   5 13018.2 331.843  -3
  -1  -2   5 13018.2 331.843  -2
  -1  -2   5 13018.2 331.843   1
  -1  -2   4 2289.62 145.010  -3
  -1  -2   4 2289.62 145.010  -2
  -1  -2   4 2289.62 145.010   1
   1  -2  -3 6195.36 172.696  -3
   1  -2  -3 6195.36 172.696  -2
   1  -2  -3 6195.36 172.696   1
  -1  -2   2 34540.7 375.112  -3
  -1  -2   2 34540.7 375.112  -2
  -1  -2   2 34540.7 375.112   1
  -1  -2   1 78269.0 482.502  -3
  -1  -2   1 78269.0 482.502  -2
  -1  -2   1 78269.0 482.502   1
   1  -2   0 39045.2 202.366  -3
   1  -2   0 39045.2 202.366  -2
   1  -2   0 39045.2 202.366   1
  -1  -2  -1 5023.49 98.4948  -3
  -1  -2  -1 5023.49 98.4948  -2
  -1  -2  -1 5023.49 98.4948   1
   1  -2   2 4078.54 150.355  -3
   1  -2   2 4078.54 150.355  -2
   1  -2   2 4078.54 150.355   1
  -1  -2  -3 36836.7 468.933  -3
  -1  -2  -3 36836.7 468.933  -2
  -1  -2  -3 36836.7 468.933   1
  -1  -2  -4 52441.3 590.497  -3
  -1  -2  -4 52441.3 590.497  -2
  -1  -2  -4 52441.3 590.497   1
  -1  -2  -5 21233.3 365.874  -3
  -1  -2  -5 21233.3 365.874  -2
  -1  -2  -5 21233.3 365.874   1
   1  -2   6 4620.20 195.556  -3
   1  -2   6 4620.20 195.556  -2
   1  -2   6 4620.20 195.556   1
   1  -2   7 536.590 262.479  -3
   1  -2   7 536.590 262.479   1
   1  -2   7 410.874 128.215  -3
   1  -2   7 410.874 128.215  -2
   1  -2   7 410.874 128.215   1
   1  -2   8 10158.9 500.390  -3
   1  -2   8 10158.9 500.390   1
   1  -2   8 12204.1 446.789  -3
   1  -2   8 12204.1 446.789  -2
   1  -2   8 12204.1 446.789   1
   1  -2   9 12882.2 559.983  -3
   1  -2   9 12882.2 559.983   1
   1  -2   9 15852.2 517.562  -3
   1  -2   9 15852.2 517.562  -2
   1  -2   9 15852.2 517.562   1
  -1  -2 -10 14478.9 606.582  -3
  -1  -2 -10 14478.9 606.582  -2
  -1  -2 -10 14478.9 606.582   1
  -1  -2 -11 3208.73 496.688  -3
  -1  -2 -11 3208.73 496.688   1
   1  -2  11 3200.29 526.311  -3
   1  -2  11 3200.29 526.311  -2
   1  -2  11 3200.29 526.311   1
  -1  -2 -12 753.432 373.127  -3
  -1  -2 -12 753.432 373.127   1
  -1  -1  12 105.600 258.542  -3
  -1  -1  12 105.600 258.542  -2
  -1  -1  12 105.600 258.542   1
  -1  -1  11 4162.98 398.303  -3
  -1  -1  11 4162.98 398.303  -2
  -1  -1  11 4162.98 398.303   1
  -1  -1  10 3466.63 291.588  -3
  -1  -1  10 3466.63 291.588   1
  -1  -1  10 6738.84 343.072  -3
  -1  -1  10 6738.84 343.072  -2
  -1  -1  10 6738.84 343.072   1
  -1  -1   9 15266.3 515.002  -3
  -1  -1   9 15266.3 515.002   1
   1  -1  -9 24621.3 671.424  -3
   1  -1  -9 24621.3 671.424  -2
   1  -1  -9 24621.3 671.424   1
  -1  -1   8 11280.1 417.430  -3
  -1  -1   8 11280.1 417.430   1
  -1  -1   8 14414.7 391.985  -3
  -1  -1   8 14414.7 391.985  -2
  -1  -1   8 14414.7 391.985   1
  -1  -1   7 1671.26 126.277  -3
  -1  -1   7 1671.26 126.277  -2
  -1  -1   7 1671.26 126.277   1
   1  -1  -6 2206.26 128.452  -3
   1  -1  -6 2206.26 128.452  -2
   1  -1  -6 2206.26 128.452   1
  -1  -1   5 37369.3 388.864  -3
  -1  -1   5 37369.3 388.864  -2
  -1  -1   5 37369.3 388.864   1
  -1  -1   4 45126.2 354.461  -3
  -1  -1   4 45126.2 354.461  -2
  -1  -1   4 45126.2 354.461   1
  -1  -1   3 37006.6 530.157  -3
  -1  -1   3 37006.6 530.157  -2
  -1  -1   3 37006.6 530.157   1
   1  -1  -2 25077.1 205.897  -3
   1  -1  -2 25077.1 205.897  -2
   1  -1  -2 25077.1 205.897   1
   1  -1  -1 8020.04 111.537  -3
   1  -1  -1 8020.04 111.537  -2
   1  -1  -1 8020.04 111.537   1
  -1  -1   0 51103.7 227.830  -3
  -1  -1   0 51103.7 227.830  -2
  -1  -1   0 51103.7 227.830   1
  -1  -1  -1 10044.7 195.049  -3
  -1  -1  -1 10044.7 195.049  -2
  -1  -1  -1 10044.7 195.049   1
  -1  -1  -2 113462. 557.705  -3
  -1  -1  -2 113462. 557.705  -2
  -1  -1  -2 113462. 557.705   1
  -1  -1  -3 22766.4 339.878  -3
  -1  -1  -3 22766.4 339.878  -2
  -1  -1  -3 22766.4 339.878   1
   1  -1   4 2609.21 160.534  -3
   1  -1   4 2609.21 160.534  -2
   1  -1   4 2609.21 160.534   1
   1  -1   5 25204.2 324.189  -3
   1  -1   5 25204.2 324.189  -2
   1  -1   5 25204.2 324.189   1
   1  -1   6 22608.1 358.527  -3
   1  -1   6 22608.1 358.527  -2
   1  -1   6 22608.1 358.527   1
   1  -1   7 23995.1 728.967  -3
   1  -1   7 23995.1 728.967   1
   1  -1   7 29706.6 523.984  -3
   1  -1   7 29706.6 523.984  -2
   1  -1   7 29706.6 523.984   1
   1  -1   8 10106.7 509.910  -3
   1  -1   8 10106.7 509.910   1
   1  -1   8 13503.6 387.453  -3
   1  -1   8 13503.6 387.453  -2
   1  -1   8 13503.6 387.453   1
   1  -1   9 1612.94 288.733  -3
   1  -1   9 1612.94 288.733   1
   1  -1   9 2346.66 262.881  -3
   1  -1   9 2346.66 262.881  -2
   1  -1   9 2346.66 262.881   1
   1  -1  10 2368.08 322.194  -3
   1  -1  10 2368.08 322.194   1
   1  -1  10 3076.95 365.243  -3
   1  -1  10 3076.95 365.243  -2
   1  -1  10 3076.95 365.243   1
   1  -1  11 9020.25 548.151  -3
   1  -1  11 9020.25 548.151  -2
   1  -1  11 9020.25 548.151   1
  -1   0  12 10440.2 596.351  -3
  -1   0  12 10440.2 596.351  -2
  -1   0  12 10440.2 596.351   1
  -1   0  11 5689.34 457.791  -3
  -1   0  11 5689.34 457.791  -2
  -1   0  11 5689.34 457.791   1
  -1   0  10 1484.21 274.490  -3
  -1   0  10 1484.21 274.490   1
  -1   0  10 2131.55 320.500  -3
  -1   0  10 2131.55 320.500  -2
  -1   0  10 2131.55 320.500   1
  -1   0   9 60.7805 167.484  -3
  -1   0   9 60.7805 167.484   1
  -1   0   9 55.6959 188.469  -3
  -1   0   9 55.6959 188.469  -2
  -1   0   9 55.6959 188.469   1
  -1   0   8 2579.32 276.909  -3
  -1   0   8 2579.32 276.909   1
  -1   0   8 4494.66 264.055  -3
  -1   0   8 4494.66 264.055  -2
  -1   0   8 4494.66 264.055   1
  -1   0   7 34836.5 486.733  -3
  -1   0   7 34836.5 486.733  -2
  -1   0   7 34836.5 486.733   1
   1   0  -6 44690.3 466.690  -3
   1   0  -6 44690.3 466.690  -2
   1   0  -6 44690.3 466.690   1
  -1   0   5 6180.60 180.651  -3
  -1   0   5 6180.60 180.651  -2
  -1   0   5 6180.60 180.651   1
   1   0  -4 7754.66 161.737  -3
   1   0  -4 7754.66 161.737  -2
   1   0  -4 7754.66 161.737   1
   1   0  -3 43244.2 298.932  -3
   1   0  -3 43244.2 298.932  -2
   1   0  -3 43244.2 298.932   1
  -1   0   2 29135.7 222.040  -3
  -1   0   2 29135.7 222.040  -2
  -1   0   2 29135.7 222.040   1
   1   0  -1 69923.8 260.850  -3
   1   0  -1 69923.8 260.850  -2
   1   0  -1 69923.8 260.850   1
   1   0   0 9110.75 128.564  -3
   1   0   0 9110.75 128.564  -2
   1   0   0 9110.75 128.564   1
   1   0   1 157.709 42.9223  -3
   1   0   1 157.709 42.9223  -2
   1   0   1 157.709 42.9223   1
  -1   0  -2 10768.4 154.574  -3
  -1   0  -2 10768.4 154.574  -2
  -1   0  -2 10768.4 154.574   1
   1   0   3 21132.0 286.239  -3
   1   0   3 21132.0 286.239  -2
   1   0   3 21132.0 286.239   1
   1   0   4 112367. 747.801  -3
   1   0   4 112367. 747.801  -2
   1   0   4 112367. 747.801   1
   1   0   5 11945.6 281.666  -3
   1   0   5 11945.6 281.666  -2
   1   0   5 11945.6 281.666   1
   1   0   6 15088.0 402.366  -3
   1   0   6 15088.0 402.366  -2
   1   0   6 15088.0 402.366   1
   1   0   7 955.530 173.735  -3
   1   0   7 955.530 173.735  -2
   1   0   7 955.530 173.735   1
   1   0   8 7589.12 508.646  -3
   1   0   8 7589.12 508.646   1
   1   0   8 12249.3 467.339  -3
   1   0   8 12249.3 467.339  -2
   1   0   8 12249.3 467.339   1
   1   0   9 9640.52 593.101  -3
   1   0   9 9640.52 593.101   1
   1   0   9 14216.2 519.725  -3
   1   0   9 14216.2 519.725  -2
   1   0   9 14216.2 519.725   1
   1   0  10 13642.8 721.759  -3
   1   0  10 13642.8 721.759   1
   1   0  10 21988.8 774.173  -3
   1   0  10 21988.8 774.173  -2
   1   0  10 21988.8 774.173   1
   1   0  11 2213.43 354.071  -3
   1   0  11 2213.43 354.071  -2
   1   0  11 2213.43 354.071   1
   1   0  12 159.337 395.035  -3
   1   0  12 159.337 395.035  -2
   1   0  12 159.337 395.035   1
  -1   1  13 3968.19 591.995  -3
  -1   1  13 3968.19 591.995  -2
  -1   1  13 3968.19 591.995   1
  -1   1  12 504.338 390.437  -3
  -1   1  12 504.338 390.437  -2
  -1   1  12 504.338 390.437   1
  -1   1  11 4437.24 571.961  -3
  -1   1  11 4437.24 571.961  -2
  -1   1  11 4437.24 571.961   1
  -1   1  10 4170.07 438.554  -3
  -1   1  10 4170.07 438.554   1
  -1   1  10 6552.04 596.549  -3
  -1   1  10 6552.04 596.549  -2
  -1   1  10 6552.04 596.549   1
  -1   1   9 23391.1 644.772  -3
  -1   1   9 23391.1 644.772  -2
  -1   1   9 23391.1 644.772   1
  -1   1   8 15937.4 513.119  -3
  -1   1   8 15937.4 513.119  -2
  -1   1   8 15937.4 513.119   1
  -1   1   7 1313.02 194.290  -3
  -1   1   7 1313.02 194.290  -2
  -1   1   7 1313.02 194.290   1
  -1   1   6 1894.41 195.818  -3
  -1   1   6 1894.41 195.818  -2
  -1   1   6 1894.41 195.818   1
  -1   1   5 34162.5 623.678  -3
  -1   1   5 34162.5 623.678  -2
  -1   1   5 34162.5 623.678   1
  -1   1   4 38834.7 620.579  -3
  -1   1   4 38834.7 620.579  -2
  -1   1   4 38834.7 620.579   1
  -1   1   3 39864.3 562.878  -3
  -1   1   3 39864.3 562.878  -2
  -1   1   3 39864.3 562.878   1
  -1   1   2 22987.0 263.572  -3
  -1   1   2 22987.0 263.572  -2
  -1   1   2 22987.0 263.572   1
   1   1  -1 8484.35 272.924  -3
   1   1  -1 8484.35 272.924  -2
   1   1  -1 8484.35 272.924   1
   1   1   0 49300.7 607.564  -3
   1   1   0 49300.7 607.564  -2
   1   1   0 49300.7 607.564   1
   1   1   1 11703.6 265.151  -3
   1   1   1 11703.6 265.151  -2
   1   1   1 11703.6 265.151   1
   1   1   2 110168. 1057.49  -3
   1   1   2 110168. 1057.49  -2
   1   1   2 110168. 1057.49   1
   1   1   3 21742.9 511.036  -3
   1   1   3 21742.9 511.036  -2
   1   1   3 21742.9 511.036   1
   1   1   4 2573.69 232.553  -3
   1   1   4 2573.69 232.553  -2
   1   1   4 2573.69 232.553   1
  -1   1  -5 22774.2 399.749  -3
  -1   1  -5 22774.2 399.749  -2
  -1   1  -5 22774.2 399.749   1
   1   1   6 22153.9 420.893  -3
   1   1   6 22153.9 420.893  -2
   1   1   6 22153.9 420.893   1
   1   1   7 29224.3 507.804  -3
   1   1   7 29224.3 507.804  -2
   1   1   7 29224.3 507.804   1
   1   1   8 13702.1 352.261  -3
   1   1   8 13702.1 352.261  -2
   1   1   8 13702.1 352.261   1
   1   1   9 1019.64 287.021  -3
   1   1   9 1019.64 287.021   1
   1   1   9 1969.20 263.738  -3
   1   1   9 1969.20 263.738  -2
   1   1   9 1969.20 263.738   1
   1   1  10 1934.05 368.302  -3
   1   1  10 1934.05 368.302   1
   1   1  10 2857.34 365.104  -3
   1   1  10 2857.34 365.104  -2
   1   1  10 2857.34 365.104   1
   1   1  11 9112.14 558.840  -3
   1   1  11 9112.14 558.840  -2
   1   1  11 9112.14 558.840   1
   1   1  12 11809.2 874.191  -3
   1   1  12 11809.2 874.191  -2
   1   1  12 11809.2 874.191   1
  -1   2  13 4569.47 584.159  -3
  -1   2  13 4569.47 584.159  -2
  -1   2  13 4569.47 584.159   1
  -1   2  12 8491.47 688.419  -3
  -1   2  12 8491.47 688.419  -2
  -1   2  12 8491.47 688.419   1
  -1   2  11 9828.07 553.034  -3
  -1   2  11 9828.07 553.034  -2
  -1   2  11 9828.07 553.034   1
  -1   2  10 5570.74 330.103  -3
  -1   2  10 5570.74 330.103  -2
  -1   2  10 5570.74 330.103   1
  -1   2   9 148.579 161.203  -3
  -1   2   9 148.579 161.203  -2
  -1   2   9 148.579 161.203   1
  -1   2   8 14025.8 448.890  -3
  -1   2   8 14025.8 448.890  -2
  -1   2   8 14025.8 448.890   1
  -1   2   7 19600.9 502.565  -3
  -1   2   7 19600.9 502.565  -2
  -1   2   7 19600.9 502.565   1
  -1   2   6 25635.8 549.031  -3
  -1   2   6 25635.8 549.031  -2
  -1   2   6 25635.8 549.031   1
  -1   2   5 13930.0 520.713  -3
  -1   2   5 13930.0 520.713  -2
  -1   2   5 13930.0 520.713   1
  -1   2   4 2467.50 247.308  -3
  -1   2   4 2467.50 247.308  -2
  -1   2   4 2467.50 247.308   1
  -1   2   3 5798.64 331.067  -3
  -1   2   3 5798.64 331.067  -2
  -1   2   3 5798.64 331.067   1
  -1   2   2 37580.8 720.405  -3
  -1   2   2 37580.8 720.405  -2
  -1   2   2 37580.8 720.405   1
   1   2  -1 80980.4 376.219  -3
   1   2  -1 80980.4 376.219  -2
   1   2  -1 80980.4 376.219   1
  -1   2   0 37046.3 272.750  -3
  -1   2   0 37046.3 272.750  -2
  -1   2   0 37046.3 272.750   1
   1   2   1 4839.87 208.153  -3
   1   2   1 4839.87 208.153  -2
   1   2   1 4839.87 208.153   1
   1   2   2 4051.31 241.014  -3
   1   2   2 4051.31 241.014  -2
   1   2   2 4051.31 241.014   1
   1   2   3 35895.5 701.524  -3
   1   2   3 35895.5 701.524  -2
   1   2   3 35895.5 701.524   1
   1   2   4 48160.7 870.313  -3
   1   2   4 48160.7 870.313  -2
   1   2   4 48160.7 870.313   1
   1   2   5 20519.7 586.218  -3
   1   2   5 20519.7 586.218  -2
   1   2   5 20519.7 586.218   1
   1   2   6 4598.14 329.320  -3
   1   2   6 4598.14 329.320  -2
   1   2   6 4598.14 329.320   1
   1   2   7 443.540 168.810  -3
   1   2   7 443.540 168.810  -2
   1   2   7 443.540 168.810   1
   1   2   8 12354.4 441.362  -3
   1   2   8 12354.4 441.362  -2
   1   2   8 12354.4 441.362   1
   1   2   9 9918.37 727.159  -3
   1   2   9 9918.37 727.159   1
   1   2   9 15750.9 646.810  -3
   1   2   9 15750.9 646.810  -2
   1   2   9 15750.9 646.810   1
   1   2  10 14175.1 833.986  -3
   1   2  10 14175.1 833.986  -2
   1   2  10 14175.1 833.986   1
   1   2  11 3566.58 537.655  -3
   1   2  11 3566.58 537.655  -2
   1   2  11 3566.58 537.655   1
   1   2  12 868.915 435.139  -3
   1   2  12 868.915 435.139  -2
   1   2  12 868.915 435.139   1
  -1   3  11 647.711 426.473  -3
  -1   3  11 647.711 426.473  -2
  -1   3  11 647.711 426.473   1
  -1   3  10 9031.23 813.262  -3
  -1   3  10 9031.23 813.262  -2
  -1   3  10 9031.23 813.262   1
  -1   3   9 21019.9 819.672  -3
  -1   3   9 21019.9 819.672  -2
  -1   3   9 21019.9 819.672   1
  -1   3   8 8053.47 395.338  -3
  -1   3   8 8053.47 395.338  -2
  -1   3   8 8053.47 395.338   1
  -1   3   7 787.123 237.828  -3
  -1   3   7 787.123 237.828  -2
  -1   3   7 787.123 237.828   1
  -1   3   6 1340.02 249.466  -3
  -1   3   6 1340.02 249.466  -2
  -1   3   6 1340.02 249.466   1
  -1   3   5 12755.5 561.786  -3
  -1   3   5 12755.5 561.786  -2
  -1   3   5 12755.5 561.786   1
  -1   3   4 25474.1 757.123  -3
  -1   3   4 25474.1 757.123  -2
  -1   3   4 25474.1 757.123   1
  -1   3   3 23314.1 388.129  -3
  -1   3   3 23314.1 388.129  -2
  -1   3   3 23314.1 388.129   1
  -1   3   2 18023.5 528.712  -2
  -1   3   2 18023.5 528.712   1
  -1   3   2 18935.9 378.537  -3
  -1   3   2 18935.9 378.537  -2
  -1   3   2 18935.9 378.537   1
  -1   3   1 1187.85 78.3355  -3
  -1   3   1 1187.85 78.3355  -2
  -1   3   1 1187.85 78.3355   1
   1   3   0 11912.6 294.004  -3
   1   3   0 11912.6 294.004  -2
   1   3   0 11912.6 294.004   1
   1   3   1 43219.0 468.194  -3
   1   3   1 43219.0 468.194  -2
   1   3   1 43219.0 468.194   1
   1   3   2 25986.8 454.204  -3
   1   3   2 25986.8 454.204  -2
   1   3   2 25986.8 454.204   1
   1   3   3 16266.5 483.123  -3
   1   3   3 16266.5 483.123  -2
   1   3   3 16266.5 483.123   1
   1   3   4 1494.65 204.527  -3
   1   3   4 1494.65 204.527  -2
   1   3   4 1494.65 204.527   1
   1   3   5 4375.20 318.145  -3
   1   3   5 4375.20 318.145  -2
   1   3   5 4375.20 318.145   1
   1   3   6 18928.4 626.582  -3
   1   3   6 18928.4 626.582  -2
   1   3   6 18928.4 626.582   1
   1   3   7 16728.9 626.294  -3
   1   3   7 16728.9 626.294  -2
   1   3   7 16728.9 626.294   1
   1   3   8 10731.8 789.084  -3
   1   3   8 10731.8 789.084  -2
   1   3   8 10731.8 789.084   1
  -1   4  10 2587.95 554.309  -3
  -1   4  10 2587.95 554.309  -2
  -1   4  10 2587.95 554.309   1
  -1   4   9 18.9117 233.083  -3
  -1   4   9 18.9117 233.083  -2
  -1   4   9 18.9117 233.083   1
  -1   4   8 6029.69 460.837  -3
  -1   4   8 6029.69 460.837  -2
  -1   4   8 6029.69 460.837   1
  -1   4   7 11690.5 573.614  -3
  -1   4   7 11690.5 573.614  -2
  -1   4   7 11690.5 573.614   1
  -1   4   6 8413.34 472.688  -3
  -1   4   6 8413.34 472.688  -2
  -1   4   6 8413.34 472.688   1
  -1   4   5 8962.65 383.984  -3
  -1   4   5 8962.65 383.984  -2
  -1   4   5 8962.65 383.984   1
  -1   4   4 556.057 105.878  -3
  -1   4   4 556.057 105.878  -2
  -1   4   4 556.057 105.878   1
  -1   4   3 1667.48 216.919  -2
  -1   4   3 1667.48 216.919   1
  -1   4   3 1870.05 134.920  -3
  -1   4   3 1870.05 134.920  -2
  -1   4   3 1870.05 134.920   1
  -1   4   2 19344.8 264.169  -3
  -1   4   2 19344.8 264.169  -2
  -1   4   2 19344.8 264.169   1
   1   4  -1 20488.2 370.203  -3
   1   4  -1 20488.2 370.203  -2
   1   4  -1 20488.2 370.203   1
  -1   4   0 9925.75 298.321  -3
  -1   4   0 9925.75 298.321  -2
  -1   4   0 9925.75 298.321   1
   1   4   1 1108.18 205.439  -3
   1   4   1 1108.18 205.439  -2
   1   4   1 1108.18 205.439   1
   1   4   2 943.668 106.518  -3
   1   4   2 943.668 106.518  -2
   1   4   2 943.668 106.518   1
   1   4   3 15499.5 326.149  -3
   1   4   3 15499.5 326.149  -2
   1   4   3 15499.5 326.149   1
   1   4   4 16086.0 411.188  -3
   1   4   4 16086.0 411.188  -2
   1   4   4 16086.0 411.188   1
   1   4   5 10949.6 408.052  -3
   1   4   5 10949.6 408.052  -2
   1   4   5 10949.6 408.052   1
   1   4   6 3422.15 339.124  -3
   1   4   6 3422.15 339.124  -2
   1   4   6 3422.15 339.124   1
   1   4   7 420.053 232.298  -3
   1   4   7 420.053 232.298  -2
   1   4   7 420.053 232.298   1
   1   4   8 5130.91 431.905  -3
   1   4   8 5130.91 431.905  -2
   1   4   8 5130.91 431.905   1
   1   4   9 9889.96 626.071  -3
   1   4   9 9889.96 626.071  -2
   1   4   9 9889.96 626.071   1
  -1   5   9 3809.52 625.957  -3
  -1   5   9 3809.52 625.957  -2
  -1   5   9 3809.52 625.957   1
  -1   5   8 4945.36 356.352  -3
  -1   5   8 4945.36 356.352  -2
  -1   5   8 4945.36 356.352   1
  -1   5   7 625.674 152.446  -3
  -1   5   7 625.674 152.446  -2
  -1   5   7 625.674 152.446   1
  -1   5   6 1213.09 139.778  -3
  -1   5   6 1213.09 139.778  -2
  -1   5   6 1213.09 139.778   1
  -1   5   5 4709.37 188.834  -3
  -1   5   5 4709.37 188.834  -2
  -1   5   5 4709.37 188.834   1
  -1   5   4 9362.55 451.677  -2
  -1   5   4 9362.55 451.677   1
  -1   5   4 10897.5 270.729  -3
  -1   5   4 10897.5 270.729  -2
  -1   5   4 10897.5 270.729   1
  -1   5   3 8287.45 340.300  -3
  -1   5   3 8287.45 340.300  -2
  -1   5   3 8287.45 340.300   1
  -1   5   2 1516.69 189.909  -3
  -1   5   2 1516.69 189.909  -2
  -1   5   2 1516.69 189.909   1
  -1   5   1 817.969 152.569  -3
  -1   5   1 817.969 152.569  -2
  -1   5   1 817.969 152.569   1
   1   5   0 5644.46 308.620  -3
   1   5   0 5644.46 308.620  -2
   1   5   0 5644.46 308.620   1
   1   5   1 5768.36 384.558  -3
   1   5   1 5768.36 384.558  -2
   1   5   1 5768.36 384.558   1
   1   5   2 7134.53 421.003  -3
   1   5   2 7134.53 421.003  -2
   1   5   2 7134.53 421.003   1
   1   5   3 11528.7 437.930  -3
   1   5   3 11528.7 437.930  -2
   1   5   3 11528.7 437.930   1
   1   5   4 879.919 142.580  -3
   1   5   4 879.919 142.580  -2
   1   5   4 879.919 142.580   1
   1   5   5 1948.21 186.317  -3
   1   5   5 1948.21 186.317  -2
   1   5   5 1948.21 186.317   1
   1   5   6 5473.46 276.878  -3
   1   5   6 5473.46 276.878  -2
   1   5   6 5473.46 276.878   1
   1   5   7 8432.62 417.354  -3
   1   5   7 8432.62 417.354  -2
   1   5   7 8432.62 417.354   1
   1   5   8 3429.27 326.720  -3
   1   5   8 3429.27 326.720  -2
   1   5   8 3429.27 326.720   1
  -1   6   8 630.261 452.608  -3
  -1   6   8 630.261 452.608  -2
  -1   6   8 630.261 452.608   1
  -1   6   7 4005.78 278.377  -3
  -1   6   7 4005.78 278.377  -2
  -1   6   7 4005.78 278.377   1
  -1   6   6 4110.67 318.580  -2
  -1   6   6 4110.67 318.580   1
  -1   6   6 4526.44 455.320  -3
  -1   6   6 4526.44 455.320  -2
  -1   6   6 4526.44 455.320   1
  -1   6   5 2390.45 269.883  -2
  -1   6   5 2390.45 269.883   1
  -1   6   5 2854.74 371.218  -3
  -1   6   5 2854.74 371.218  -2
  -1   6   5 2854.74 371.218   1
  -1   6   4 92.9743 152.144  -3
  -1   6   4 92.9743 152.144  -2
  -1   6   4 92.9743 152.144   1
  -1   6   3 751.498 211.866  -3
  -1   6   3 751.498 211.866  -2
  -1   6   3 751.498 211.866   1
  -1   6   2 7115.44 398.456  -3
  -1   6   2 7115.44 398.456  -2
  -1   6   2 7115.44 398.456   1
   1   6  -1 7832.15 377.555  -3
   1   6  -1 7832.15 377.555  -2
   1   6  -1 7832.15 377.555   1
  -1   6   0 1992.76 237.979  -3
  -1   6   0 1992.76 237.979  -2
  -1   6   0 1992.76 237.979   1
   1   6   1 317.073 217.591  -3
   1   6   1 317.073 217.591  -2
   1   6   1 317.073 217.591   1
   1   6   2-46.7650 206.569  -3
   1   6   2-46.7650 206.569  -2
   1   6   2-46.7650 206.569   1
   1   6   3 5136.49 379.449  -3
   1   6   3 5136.49 379.449  -2
   1   6   3 5136.49 379.449   1
   1   6   4 8564.15 468.238  -3
   1   6   4 8564.15 468.238  -2
   1   6   4 8564.15 468.238   1
   1   6   5 3069.70 286.637  -3
   1   6   5 3069.70 286.637  -2
   1   6   5 3069.70 286.637   1
   1   6   6 833.669 219.175  -3
   1   6   6 833.669 219.175  -2
   1   6   6 833.669 219.175   1
   1   6   7 17.6846 227.763  -3
   1   6   7 17.6846 227.763  -2
   1   6   7 17.6846 227.763   1
   1   6   8 1671.65 338.980  -3
   1   6   8 1671.65 338.980  -2
   1   6   8 1671.65 338.980   1
  -1   7   6 320.493 410.392  -3
  -1   7   6 320.493 410.392  -2
  -1   7   6 320.493 410.392   1
  -1   7   5 3066.83 530.571  -3
  -1   7   5 3066.83 530.571  -2
  -1   7   5 3066.83 530.571   1
  -1   7   4 2665.66 495.684  -3
  -1   7   4 2665.66 495.684  -2
  -1   7   4 2665.66 495.684   1
  -1   7   3 2919.76 511.707  -3
  -1   7   3 2919.76 511.707  -2
  -1   7   3 2919.76 511.707   1
  -1   7   2 1868.79 438.393  -3
  -1   7   2 1868.79 438.393  -2
  -1   7   2 1868.79 438.393   1
  -1   7   1-95.6555 326.544  -3
  -1   7   1-95.6555 326.544  -2
  -1   7   1-95.6555 326.544   1
   1   7   0 2178.28 503.722  -3
   1   7   0 2178.28 503.722  -2
   1   7   0 2178.28 503.722   1
   1   7   1 2417.25 339.898  -3
   1   7   1 2417.25 339.898  -2
   1   7   1 2417.25 339.898   1
   1   7   2 5043.49 400.588  -3
   1   7   2 5043.49 400.588  -2
   1   7   2 5043.49 400.588   1
   1   7   3 1386.99 278.296  -3
   1   7   3 1386.99 278.296  -2
   1   7   3 1386.99 278.296   1
   1   7   4 178.927 235.785  -3
   1   7   4 178.927 235.785  -2
   1   7   4 178.927 235.785   1
   1   7   5 1646.29 349.432  -3
   1   7   5 1646.29 349.432  -2
   1   7   5 1646.29 349.432   1
  -2  -7   4 1973.71 404.623  -3
  -2  -7   4 1973.71 404.623  -2
  -2  -7   4 1973.71 404.623   1
  -2  -7   3 819.007 342.641  -3
  -2  -7   3 819.007 342.641  -2
  -2  -7   3 819.007 342.641   1
  -2  -7   2 335.693 333.781  -3
  -2  -7   2 335.693 333.781  -2
  -2  -7   2 335.693 333.781   1
  -2  -7   1 4007.62 577.728  -3
  -2  -7   1 4007.62 577.728  -2
  -2  -7   1 4007.62 577.728   1
  -2  -7   0 2794.97 393.277  -3
  -2  -7   0 2794.97 393.277  -2
  -2  -7   0 2794.97 393.277   1
  -2  -7  -1 2677.65 390.334  -3
  -2  -7  -1 2677.65 390.334  -2
  -2  -7  -1 2677.65 390.334   1
   2  -7   2 381.912 356.517  -3
   2  -7   2 381.912 356.517  -2
   2  -7   2 381.912 356.517   1
   2  -7   3 62.3474 305.477  -3
   2  -7   3 62.3474 305.477  -2
   2  -7   3 62.3474 305.477   1
   2  -6  -6 2772.16 588.947  -3
   2  -6  -6 2772.16 588.947  -2
   2  -6  -6 2772.16 588.947   1
  -2  -6   5 118.211 254.589  -3
  -2  -6   5 118.211 254.589  -2
  -2  -6   5 118.211 254.589   1
  -2  -6   4 1946.42 376.326  -3
  -2  -6   4 1946.42 376.326  -2
  -2  -6   4 1946.42 376.326   1
  -2  -6   3 6166.61 294.065  -3
  -2  -6   3 6166.61 294.065  -2
  -2  -6   3 6166.61 294.065   1
   2  -6  -2 7372.94 384.872  -3
   2  -6  -2 7372.94 384.872  -2
   2  -6  -2 7372.94 384.872   1
   2  -6  -1 4131.50 309.162  -3
   2  -6  -1 4131.50 309.162  -2
   2  -6  -1 4131.50 309.162   1
   2  -6   0 83.0092 160.786  -3
   2  -6   0 83.0092 160.786  -2
   2  -6   0 83.0092 160.786   1
  -2  -6  -1 1465.89 221.902  -3
  -2  -6  -1 1465.89 221.902  -2
  -2  -6  -1 1465.89 221.902   1
   2  -6   2 8100.88 519.188  -3
   2  -6   2 8100.88 519.188  -2
   2  -6   2 8100.88 519.188   1
   2  -6   3 4949.93 419.464  -3
   2  -6   3 4949.93 419.464  -2
   2  -6   3 4949.93 419.464   1
   2  -6   4 2695.01 330.447  -3
   2  -6   4 2695.01 330.447  -2
   2  -6   4 2695.01 330.447   1
   2  -6   5 1604.90 204.406  -3
   2  -6   5 1604.90 204.406  -2
   2  -6   5 1604.90 204.406   1
   2  -6   6 447.807 200.458  -3
   2  -6   6 447.807 200.458  -2
   2  -6   6 447.807 200.458   1
   2  -6   7 3804.60 430.671  -3
   2  -6   7 3804.60 430.671  -2
   2  -6   7 3804.60 430.671   1
  -2  -5   9 2450.90 340.802  -3
  -2  -5   9 2450.90 340.802  -2
  -2  -5   9 2450.90 340.802   1
   2  -5  -8 351.212 245.211  -3
   2  -5  -8 351.212 245.211  -2
   2  -5  -8 351.212 245.211   1
  -2  -5   7 813.576 218.796  -3
  -2  -5   7 813.576 218.796  -2
  -2  -5   7 813.576 218.796   1
   2  -5  -6 8684.46 441.079  -3
   2  -5  -6 8684.46 441.079  -2
   2  -5  -6 8684.46 441.079   1
   2  -5  -5 10995.3 240.368  -3
   2  -5  -5 10995.3 240.368  -2
   2  -5  -5 10995.3 240.368   1
  -2  -5   4 7254.75 184.916  -3
  -2  -5   4 7254.75 184.916  -2
  -2  -5   4 7254.75 184.916   1
  -2  -5   3 1646.26 116.487  -3
  -2  -5   3 1646.26 116.487  -2
  -2  -5   3 1646.26 116.487   1
   2  -5  -2 1684.73 165.806  -3
   2  -5  -2 1684.73 165.806  -2
   2  -5  -2 1684.73 165.806   1
  -2  -5   1 5190.36 242.089  -3
  -2  -5   1 5190.36 242.089  -2
  -2  -5   1 5190.36 242.089   1
   2  -5   0 20188.7 490.300  -3
   2  -5   0 20188.7 490.300  -2
   2  -5   0 20188.7 490.300   1
  -2  -5  -1 11559.7 329.026  -3
  -2  -5  -1 11559.7 329.026  -2
  -2  -5  -1 11559.7 329.026   1
   2  -5   2 4422.41 243.408  -3
   2  -5   2 4422.41 243.408  -2
   2  -5   2 4422.41 243.408   1
   2  -5   3 1222.65 118.069  -3
   2  -5   3 1222.65 118.069  -2
   2  -5   3 1222.65 118.069   1
   2  -5   4 4952.95 201.836  -3
   2  -5   4 4952.95 201.836  -2
   2  -5   4 4952.95 201.836   1
   2  -5   5 8447.32 267.356  -3
   2  -5   5 8447.32 267.356  -2
   2  -5   5 8447.32 267.356   1
   2  -5   6 9571.49 558.283  -3
   2  -5   6 9571.49 558.283  -2
   2  -5   6 9571.49 558.283   1
  -2  -5  -7 2919.22 312.243  -3
  -2  -5  -7 2919.22 312.243  -2
  -2  -5  -7 2919.22 312.243   1
  -2  -5  -8 330.988 232.876  -3
  -2  -5  -8 330.988 232.876  -2
  -2  -5  -8 330.988 232.876   1
   2  -5   9 1009.64 336.226  -3
   2  -5   9 1009.64 336.226  -2
   2  -5   9 1009.64 336.226   1
   2  -4 -11 2988.53 511.584  -3
   2  -4 -11 2988.53 511.584  -2
   2  -4 -11 2988.53 511.584   1
   2  -4 -10 524.936 254.560  -3
   2  -4 -10 524.936 254.560  -2
   2  -4 -10 524.936 254.560   1
   2  -4  -9 5027.72 395.659  -3
   2  -4  -9 5027.72 395.659  -2
   2  -4  -9 5027.72 395.659   1
  -2  -4   8 11240.6 371.018  -2
  -2  -4   8 11240.6 371.018   1
   2  -4  -8 12947.1 571.567  -3
   2  -4  -8 12947.1 571.567  -2
   2  -4  -8 12947.1 571.567   1
  -2  -4   7 10029.2 280.633  -3
  -2  -4   7 10029.2 280.633  -2
  -2  -4   7 10029.2 280.633   1
   2  -4  -6 6807.59 200.524  -3
   2  -4  -6 6807.59 200.524  -2
   2  -4  -6 6807.59 200.524   1
   2  -4  -5 85.6038 87.6071  -3
   2  -4  -5 85.6038 87.6071  -2
   2  -4  -5 85.6038 87.6071   1
  -2  -4   4 9231.48 219.943  -3
  -2  -4   4 9231.48 219.943  -2
  -2  -4   4 9231.48 219.943   1
  -2  -4   3 20548.3 353.409  -3
  -2  -4   3 20548.3 353.409  -2
  -2  -4   3 20548.3 353.409   1
  -2  -4   2 20054.2 290.868  -3
  -2  -4   2 20054.2 290.868  -2
  -2  -4   2 20054.2 290.868   1
  -2  -4   1 6651.62 209.415  -2
  -2  -4   1 6651.62 209.415   1
   2  -4  -1 7983.92 263.126  -3
   2  -4  -1 7983.92 263.126  -2
   2  -4  -1 7983.92 263.126   1
  -2  -4   0 1219.72 118.424  -3
  -2  -4   0 1219.72 118.424  -2
  -2  -4   0 1219.72 118.424   1
   2  -4   1 3623.95 132.332  -3
   2  -4   1 3623.95 132.332  -2
   2  -4   1 3623.95 132.332   1
   2  -4   2 23539.8 309.280  -3
   2  -4   2 23539.8 309.280  -2
   2  -4   2 23539.8 309.280   1
   2  -4   3 25785.3 422.894  -3
   2  -4   3 25785.3 422.894  -2
   2  -4   3 25785.3 422.894   1
   2  -4   4 3544.60 150.107  -3
   2  -4   4 3544.60 150.107  -2
   2  -4   4 3544.60 150.107   1
   2  -4   5 2350.31 159.090  -3
   2  -4   5 2350.31 159.090  -2
   2  -4   5 2350.31 159.090   1
   2  -4   6 3135.27 195.185  -3
   2  -4   6 3135.27 195.185  -2
   2  -4   6 3135.27 195.185   1
   2  -4   7 8392.49 377.515  -3
   2  -4   7 8392.49 377.515  -2
   2  -4   7 8392.49 377.515   1
   2  -4   8 10247.1 426.149  -3
   2  -4   8 10247.1 426.149  -2
   2  -4   8 10247.1 426.149   1
   2  -4   9 3364.83 355.207  -3
   2  -4   9 3364.83 355.207  -2
   2  -4   9 3364.83 355.207   1
   2  -4  10 955.683 287.152  -3
   2  -4  10 955.683 287.152  -2
   2  -4  10 955.683 287.152   1
   2  -3 -12 1690.55 441.182  -3
   2  -3 -12 1690.55 441.182  -2
   2  -3 -12 1690.55 441.182   1
  -2  -3  11 7436.99 451.192  -3
  -2  -3  11 7436.99 451.192  -2
  -2  -3  11 7436.99 451.192   1
  -2  -3  10 10230.3 496.945  -3
  -2  -3  10 10230.3 496.945  -2
  -2  -3  10 10230.3 496.945   1
  -2  -3   9 4347.60 190.811   1
  -2  -3   9 7642.72 444.146  -3
  -2  -3   9 7642.72 444.146  -2
  -2  -3   9 7642.72 444.146   1
  -2  -3   8 180.530 197.755  -3
  -2  -3   8 180.530 197.755  -2
  -2  -3   8 180.530 197.755   1
   2  -3  -7 933.485 119.950  -3
   2  -3  -7 933.485 119.950  -2
   2  -3  -7 933.485 119.950   1
  -2  -3   6 15774.4 292.282  -3
  -2  -3   6 15774.4 292.282  -2
  -2  -3   6 15774.4 292.282   1
   2  -3  -5 31118.5 351.272  -3
   2  -3  -5 31118.5 351.272  -2
   2  -3  -5 31118.5 351.272   1
  -2  -3   4 18429.4 263.016  -3
  -2  -3   4 18429.4 263.016  -2
  -2  -3   4 18429.4 263.016   1
  -2  -3   3 4317.98 143.025  -3
  -2  -3   3 4317.98 143.025  -2
  -2  -3   3 4317.98 143.025   1
  -2  -3   2 14918.6 244.885  -3
  -2  -3   2 14918.6 244.885  -2
  -2  -3   2 14918.6 244.885   1
   2  -3  -1 17268.7 273.493  -3
   2  -3  -1 17268.7 273.493  -2
   2  -3  -1 17268.7 273.493   1
  -2  -3   0 22116.6 238.146  -3
  -2  -3   0 22116.6 238.146  -2
  -2  -3   0 22116.6 238.146   1
  -2  -3  -1 31367.2 255.303  -3
  -2  -3  -1 31367.2 255.303  -2
  -2  -3  -1 31367.2 255.303   1
   2  -3   2 9404.82 240.923  -3
   2  -3   2 9404.82 240.923  -2
   2  -3   2 9404.82 240.923   1
   2  -3   3 3371.45 140.408  -3
   2  -3   3 3371.45 140.408   1
   2  -3   3 4131.70 179.715  -3
   2  -3   3 4131.70 179.715  -2
   2  -3   3 4131.70 179.715   1
   2  -3   4 9036.30 249.646  -3
   2  -3   4 9036.30 249.646  -2
   2  -3   4 9036.30 249.646   1
   2  -3   5 19186.3 404.761  -3
   2  -3   5 19186.3 404.761  -2
   2  -3   5 19186.3 404.761   1
  -2  -3  -6 13184.9 318.187  -3
  -2  -3  -6 13184.9 318.187  -2
  -2  -3  -6 13184.9 318.187   1
  -2  -3  -7 8783.57 309.596  -3
  -2  -3  -7 8783.57 309.596  -2
  -2  -3  -7 8783.57 309.596   1
   2  -3   8 340.347 308.975  -3
   2  -3   8 340.347 308.975   1
  -2  -3  -8 136.954 179.211  -3
  -2  -3  -8 136.954 179.211  -2
  -2  -3  -8 136.954 179.211   1
   2  -3   9 2136.11 366.819  -3
   2  -3   9 2136.11 366.819   1
   2  -3   9 3000.59 280.497  -3
   2  -3   9 3000.59 280.497  -2
   2  -3   9 3000.59 280.497   1
   2  -3  10 6264.35 371.760  -3
   2  -3  10 6264.35 371.760  -2
   2  -3  10 6264.35 371.760   1
  -2  -3 -11 3628.07 562.921  -3
  -2  -3 -11 3628.07 562.921   1
   2  -3  11 5643.51 617.878  -3
   2  -3  11 5643.51 617.878  -2
   2  -3  11 5643.51 617.878   1
   2  -2 -12 5816.08 549.089  -3
   2  -2 -12 5816.08 549.089  -2
   2  -2 -12 5816.08 549.089   1
  -2  -2  11 2377.21 314.010  -3
  -2  -2  11 2377.21 314.010  -2
  -2  -2  11 2377.21 314.010   1
  -2  -2  10 431.832 223.634  -3
  -2  -2  10 431.832 223.634  -2
  -2  -2  10 431.832 223.634   1
  -2  -2   9 6031.30 226.213   1
   2  -2  -9 11970.9 508.207  -3
   2  -2  -9 11970.9 508.207  -2
   2  -2  -9 11970.9 508.207   1
  -2  -2   8 8103.28 244.915   1
   2  -2  -8 12678.2 350.943  -3
   2  -2  -8 12678.2 350.943  -2
   2  -2  -8 12678.2 350.943   1
  -2  -2   7 11907.6 279.763   1
  -2  -2   7 23749.2 525.954  -3
  -2  -2   7 23749.2 525.954  -2
  -2  -2   7 23749.2 525.954   1
  -2  -2   6 13407.7 385.335  -3
  -2  -2   6 13407.7 385.335  -2
  -2  -2   6 13407.7 385.335   1
   2  -2  -5 53.7004 121.121  -3
   2  -2  -5 53.7004 121.121  -2
   2  -2  -5 53.7004 121.121   1
  -2  -2   4 18888.0 277.043  -3
  -2  -2   4 18888.0 277.043  -2
  -2  -2   4 18888.0 277.043   1
  -2  -2   3 48056.1 311.208  -3
  -2  -2   3 48056.1 311.208  -2
  -2  -2   3 48056.1 311.208   1
  -2  -2   2 53783.0 411.548  -3
  -2  -2   2 53783.0 411.548  -2
  -2  -2   2 53783.0 411.548   1
  -2  -2   1 5828.42 103.108  -3
  -2  -2   1 5828.42 103.108  -2
  -2  -2   1 5828.42 103.108   1
  -2  -2   0 1495.41 74.3601  -3
  -2  -2   0 1495.41 74.3601  -2
  -2  -2   0 1495.41 74.3601   1
   2  -2   1 10516.9 188.759  -3
   2  -2   1 10516.9 188.759  -2
   2  -2   1 10516.9 188.759   1
  -2  -2  -2 50915.3 422.153  -3
  -2  -2  -2 50915.3 422.153  -2
  -2  -2  -2 50915.3 422.153   1
   2  -2   3 38521.3 447.524  -3
   2  -2   3 38521.3 447.524  -2
   2  -2   3 38521.3 447.524   1
  -2  -2  -4 11908.7 297.284  -3
  -2  -2  -4 11908.7 297.284  -2
  -2  -2  -4 11908.7 297.284   1
   2  -2   5 1768.13 150.995  -3
   2  -2   5 1768.13 150.995  -2
   2  -2   5 1768.13 150.995   1
   2  -2   6 2385.60 161.401  -3
   2  -2   6 2385.60 161.401  -2
   2  -2   6 2385.60 161.401   1
   2  -2   7 12170.1 608.354  -3
   2  -2   7 12170.1 608.354   1
  -2  -2  -7 14609.8 344.942  -3
  -2  -2  -7 14609.8 344.942  -2
  -2  -2  -7 14609.8 344.942   1
   2  -2   8 14828.0 664.379  -3
   2  -2   8 14828.0 664.379   1
   2  -2   8 18723.8 471.878  -3
   2  -2   8 18723.8 471.878  -2
   2  -2   8 18723.8 471.878   1
   2  -2   9 6349.39 480.736  -3
   2  -2   9 6349.39 480.736   1
   2  -2   9 8847.46 399.399  -3
   2  -2   9 8847.46 399.399  -2
   2  -2   9 8847.46 399.399   1
   2  -2  10 2041.32 317.681  -3
   2  -2  10 2041.32 317.681  -2
   2  -2  10 2041.32 317.681   1
  -2  -2 -11 936.781 380.079  -3
  -2  -2 -11 936.781 380.079   1
   2  -2  11 344.520 354.127  -3
   2  -2  11 344.520 354.127  -2
   2  -2  11 344.520 354.127   1
  -2  -1  12 1989.29 338.973  -3
  -2  -1  12 1989.29 338.973  -2
  -2  -1  12 1989.29 338.973   1
   2  -1 -11 12590.0 611.097  -3
   2  -1 -11 12590.0 611.097   1
  -2  -1  11 11847.7 570.009  -3
  -2  -1  11 11847.7 570.009  -2
  -2  -1  11 11847.7 570.009   1
   2  -1 -10 25454.6 679.022  -3
   2  -1 -10 25454.6 679.022  -2
   2  -1 -10 25454.6 679.022   1
  -2  -1   9 7843.55 295.473  -3
  -2  -1   9 7843.55 295.473   1
   2  -1  -9 13545.4 491.735  -3
   2  -1  -9 13545.4 491.735  -2
   2  -1  -9 13545.4 491.735   1
  -2  -1   8 461.466 124.526  -3
  -2  -1   8 461.466 124.526   1
   2  -1  -8 935.388 161.660  -3
   2  -1  -8 935.388 161.660  -2
   2  -1  -8 935.388 161.660   1
  -2  -1   7 2595.72 154.125  -3
  -2  -1   7 2595.72 154.125   1
   2  -1  -7 4018.30 208.711  -3
   2  -1  -7 4018.30 208.711  -2
   2  -1  -7 4018.30 208.711   1
  -2  -1   6 15124.9 259.266   1
   2  -1  -6 21940.6 387.895  -3
   2  -1  -6 21940.6 387.895  -2
   2  -1  -6 21940.6 387.895   1
  -2  -1   5 37061.0 301.922   1
   2  -1  -5 64172.4 635.824  -3
   2  -1  -5 64172.4 635.824  -2
   2  -1  -5 64172.4 635.824   1
   2  -1  -4 36213.4 615.240  -3
   2  -1  -4 36213.4 615.240  -2
   2  -1  -4 36213.4 615.240   1
   2  -1  -3 5646.73 232.269  -3
   2  -1  -3 5646.73 232.269  -2
   2  -1  -3 5646.73 232.269   1
  -2  -1   2 1812.89 106.253  -2
  -2  -1   2 1812.89 106.253   1
  -2  -1   2 2464.73 128.008  -3
  -2  -1   2 2464.73 128.008  -2
  -2  -1   2 2464.73 128.008   1
  -2  -1   1 100700. 359.468  -3
  -2  -1   1 100700. 359.468  -2
  -2  -1   1 100700. 359.468   1
   2  -1   0 47951.4 270.907  -3
   2  -1   0 47951.4 270.907  -2
   2  -1   0 47951.4 270.907   1
   2  -1   1 92747.5 391.593  -3
   2  -1   1 92747.5 391.593  -2
   2  -1   1 92747.5 391.593   1
  -2  -1  -2 15981.7 244.259  -3
  -2  -1  -2 15981.7 244.259  -2
  -2  -1  -2 15981.7 244.259   1
   2  -1   3 9995.67 224.161  -3
   2  -1   3 9995.67 224.161  -2
   2  -1   3 9995.67 224.161   1
   2  -1   4 22042.0 384.484  -3
   2  -1   4 22042.0 384.484  -2
   2  -1   4 22042.0 384.484   1
   2  -1   5 30002.9 366.098  -3
   2  -1   5 30002.9 366.098  -2
   2  -1   5 30002.9 366.098   1
   2  -1   6 46862.0 529.005  -3
   2  -1   6 46862.0 529.005  -2
   2  -1   6 46862.0 529.005   1
   2  -1   7 3907.90 373.343  -3
   2  -1   7 3907.90 373.343   1
   2  -1   7 4212.19 245.384  -3
   2  -1   7 4212.19 245.384  -2
   2  -1   7 4212.19 245.384   1
   2  -1   8 283.109 245.145  -3
   2  -1   8 283.109 245.145   1
   2  -1   8 529.356 199.419  -3
   2  -1   8 529.356 199.419  -2
   2  -1   8 529.356 199.419   1
  -2  -1  -9 5299.41 338.846  -3
  -2  -1  -9 5299.41 338.846   1
   2  -1   9 6465.78 603.779  -3
   2  -1   9 6465.78 603.779  -2
   2  -1   9 6465.78 603.779   1
   2  -1  10 9086.39 581.841  -3
   2  -1  10 9086.39 581.841   1
   2  -1  10 11891.6 837.615  -3
   2  -1  10 11891.6 837.615  -2
   2  -1  10 11891.6 837.615   1
   2  -1  11 10547.0 598.416  -3
   2  -1  11 10547.0 598.416  -2
   2  -1  11 10547.0 598.416   1
  -2   0  13 7745.63 741.910  -3
  -2   0  13 7745.63 741.910  -2
  -2   0  13 7745.63 741.910   1
  -2   0  12 9134.78 758.129  -3
  -2   0  12 9134.78 758.129  -2
  -2   0  12 9134.78 758.129   1
  -2   0  11 9245.61 739.205  -3
  -2   0  11 9245.61 739.205  -2
  -2   0  11 9245.61 739.205   1
  -2   0  10 163.676 169.671  -3
  -2   0  10 163.676 169.671   1
  -2   0  10-54.2874 304.882  -3
  -2   0  10-54.2874 304.882  -2
  -2   0  10-54.2874 304.882   1
  -2   0   9 13274.7 539.893  -3
  -2   0   9 13274.7 539.893   1
  -2   0   9 21282.1 929.738  -3
  -2   0   9 21282.1 929.738  -2
  -2   0   9 21282.1 929.738   1
  -2   0   8 17117.8 527.990  -3
  -2   0   8 17117.8 527.990  -2
  -2   0   8 17117.8 527.990   1
  -2   0   7 56689.5 611.627  -3
  -2   0   7 56689.5 611.627  -2
  -2   0   7 56689.5 611.627   1
  -2   0   6 8663.68 213.912  -3
  -2   0   6 8663.68 213.912  -2
  -2   0   6 8663.68 213.912   1
   2   0  -5 144.791 92.9038  -3
   2   0  -5 144.791 92.9038  -2
   2   0  -5 144.791 92.9038   1
  -2   0   4 12971.0 219.634  -3
  -2   0   4 12971.0 219.634  -2
  -2   0   4 12971.0 219.634   1
  -2   0   3 84713.7 774.273  -3
  -2   0   3 84713.7 774.273   1
  -2   0   3 113904. 554.639  -3
  -2   0   3 113904. 554.639  -2
  -2   0   3 113904. 554.639   1
   2   0  -2 54225.7 540.761  -3
   2   0  -2 54225.7 540.761   1
  -2   0   2 60316.8 508.751  -3
  -2   0   2 60316.8 508.751  -2
  -2   0   2 60316.8 508.751   1
   2   0  -1 70454.9 337.956  -3
   2   0  -1 70454.9 337.956  -2
   2   0  -1 70454.9 337.956   1
  -2   0   0 1334.68 81.6145  -3
  -2   0   0 1334.68 81.6145  -2
  -2   0   0 1334.68 81.6145   1
   2   0   1 43181.9 342.382  -3
   2   0   1 43181.9 342.382  -2
   2   0   1 43181.9 342.382   1
  -2   0  -2 76710.0 427.080  -3
  -2   0  -2 76710.0 427.080  -2
  -2   0  -2 76710.0 427.080   1
  -2   0  -3 70348.3 493.848  -3
  -2   0  -3 70348.3 493.848  -2
  -2   0  -3 70348.3 493.848   1
   2   0   4 38692.7 495.984  -3
   2   0   4 38692.7 495.984  -2
   2   0   4 38692.7 495.984   1
   2   0   5 249.733 132.462  -3
   2   0   5 249.733 132.462  -2
   2   0   5 249.733 132.462   1
   2   0   6 1128.10 137.362  -3
   2   0   6 1128.10 137.362  -2
   2   0   6 1128.10 137.362   1
   2   0   7 28116.4 940.618  -3
   2   0   7 28116.4 940.618   1
   2   0   7 45457.5 801.293  -3
   2   0   7 45457.5 801.293  -2
   2   0   7 45457.5 801.293   1
   2   0   8 9597.00 598.572  -3
   2   0   8 9597.00 598.572   1
   2   0   8 14403.1 493.228  -3
   2   0   8 14403.1 493.228  -2
   2   0   8 14403.1 493.228   1
   2   0   9 8869.31 599.856  -3
   2   0   9 8869.31 599.856   1
   2   0   9 13845.3 618.416  -3
   2   0   9 13845.3 618.416  -2
   2   0   9 13845.3 618.416   1
   2   0  10 1474.59 325.960  -3
   2   0  10 1474.59 325.960   1
   2   0  10 2256.13 335.604  -3
   2   0  10 2256.13 335.604  -2
   2   0  10 2256.13 335.604   1
   2   0  11 767.058 296.148  -3
   2   0  11 767.058 296.148  -2
   2   0  11 767.058 296.148   1
  -2   1  13 516.201 387.247  -3
  -2   1  13 516.201 387.247  -2
  -2   1  13 516.201 387.247   1
  -2   1  12 1713.92 329.056  -3
  -2   1  12 1713.92 329.056  -2
  -2   1  12 1713.92 329.056   1
  -2   1  11 11545.3 573.731  -3
  -2   1  11 11545.3 573.731  -2
  -2   1  11 11545.3 573.731   1
  -2   1  10 15209.1 701.928  -3
  -2   1  10 15209.1 701.928   1
  -2   1  10 22647.8 753.560  -3
  -2   1  10 22647.8 753.560  -2
  -2   1  10 22647.8 753.560   1
  -2   1   9 13498.5 416.380  -3
  -2   1   9 13498.5 416.380  -2
  -2   1   9 13498.5 416.380   1
  -2   1   8 865.491 163.174  -3
  -2   1   8 865.491 163.174  -2
  -2   1   8 865.491 163.174   1
  -2   1   7 3445.72 211.918  -3
  -2   1   7 3445.72 211.918  -2
  -2   1   7 3445.72 211.918   1
  -2   1   6 27121.9 489.082  -3
  -2   1   6 27121.9 489.082  -2
  -2   1   6 27121.9 489.082   1
  -2   1   5 65654.0 694.640  -3
  -2   1   5 65654.0 694.640  -2
  -2   1   5 65654.0 694.640   1
  -2   1   4 32217.4 373.420  -3
  -2   1   4 32217.4 373.420  -2
  -2   1   4 32217.4 373.420   1
  -2   1   3 5734.78 151.391  -3
  -2   1   3 5734.78 151.391  -2
  -2   1   3 5734.78 151.391   1
   2   1  -2 2876.14 105.538  -3
   2   1  -2 2876.14 105.538  -2
   2   1  -2 2876.14 105.538   1
  -2   1   1 96446.1 580.917  -3
  -2   1   1 96446.1 580.917  -2
  -2   1   1 96446.1 580.917   1
   2   1   0 46155.2 941.954  -3
   2   1   0 46155.2 941.954  -2
   2   1   0 46155.2 941.954   1
   2   1   1 96261.4 784.542  -3
   2   1   1 96261.4 784.542  -2
   2   1   1 96261.4 784.542   1
   2   1   2 17605.9 278.758  -3
   2   1   2 17605.9 278.758  -2
   2   1   2 17605.9 278.758   1
   2   1   3 9898.50 242.886  -3
   2   1   3 9898.50 242.886  -2
   2   1   3 9898.50 242.886   1
   2   1   4 22825.5 428.990  -3
   2   1   4 22825.5 428.990  -2
   2   1   4 22825.5 428.990   1
   2   1   5 31456.7 539.952  -3
   2   1   5 31456.7 539.952  -2
   2   1   5 31456.7 539.952   1
  -2   1  -6 44471.8 679.081  -3
  -2   1  -6 44471.8 679.081  -2
  -2   1  -6 44471.8 679.081   1
  -2   1  -7 4611.72 235.416  -3
  -2   1  -7 4611.72 235.416  -2
  -2   1  -7 4611.72 235.416   1
   2   1   8 328.888 233.755  -3
   2   1   8 328.888 233.755   1
   2   1   8 373.130 155.567  -3
   2   1   8 373.130 155.567  -2
   2   1   8 373.130 155.567   1
   2   1   9 4402.14 475.686  -3
   2   1   9 4402.14 475.686   1
   2   1   9 6759.59 460.270  -3
   2   1   9 6759.59 460.270  -2
   2   1   9 6759.59 460.270   1
   2   1  10 11337.4 602.073  -3
   2   1  10 11337.4 602.073  -2
   2   1  10 11337.4 602.073   1
   2   1  11 9831.11 581.155  -3
   2   1  11 9831.11 581.155  -2
   2   1  11 9831.11 581.155   1
  -2   2  13 6509.45 633.512  -3
  -2   2  13 6509.45 633.512  -2
  -2   2  13 6509.45 633.512   1
  -2   2  12 5086.22 558.151  -3
  -2   2  12 5086.22 558.151  -2
  -2   2  12 5086.22 558.151   1
  -2   2  11 2303.44 332.026  -3
  -2   2  11 2303.44 332.026  -2
  -2   2  11 2303.44 332.026   1
  -2   2  10 304.300 179.053  -3
  -2   2  10 304.300 179.053  -2
  -2   2  10 304.300 179.053   1
  -2   2   9 11856.6 416.649  -3
  -2   2   9 11856.6 416.649  -2
  -2   2   9 11856.6 416.649   1
  -2   2   8 16307.1 460.580  -3
  -2   2   8 16307.1 460.580  -2
  -2   2   8 16307.1 460.580   1
  -2   2   7 22060.9 514.610  -3
  -2   2   7 22060.9 514.610  -2
  -2   2   7 22060.9 514.610   1
  -2   2   6 13155.6 388.138  -3
  -2   2   6 13155.6 388.138  -2
  -2   2   6 13155.6 388.138   1
  -2   2   5 105.557 134.035  -3
  -2   2   5 105.557 134.035  -2
  -2   2   5 105.557 134.035   1
  -2   2   4 20348.3 585.272  -3
  -2   2   4 20348.3 585.272  -2
  -2   2   4 20348.3 585.272   1
  -2   2   3 51128.9 697.593  -3
  -2   2   3 51128.9 697.593  -2
  -2   2   3 51128.9 697.593   1
  -2   2   2 34932.0 195.143  -3
  -2   2   2 34932.0 195.143  -2
  -2   2   2 34932.0 195.143   1
   2   2  -1 5235.78 126.598  -3
   2   2  -1 5235.78 126.598  -2
   2   2  -1 5235.78 126.598   1
   2   2   0 1621.31 102.730  -3
   2   2   0 1621.31 102.730  -2
   2   2   0 1621.31 102.730   1
  -2   2  -1 9244.45 259.443  -3
  -2   2  -1 9244.45 259.443  -2
  -2   2  -1 9244.45 259.443   1
   2   2   2 49769.9 510.023  -3
   2   2   2 49769.9 510.023  -2
   2   2   2 49769.9 510.023   1
   2   2   3 41240.8 569.460  -3
   2   2   3 41240.8 569.460  -2
   2   2   3 41240.8 569.460   1
   2   2   4 10493.8 315.757  -3
   2   2   4 10493.8 315.757  -2
   2   2   4 10493.8 315.757   1
   2   2   5 1682.92 191.086  -3
   2   2   5 1682.92 191.086  -2
   2   2   5 1682.92 191.086   1
   2   2   6 2811.48 238.197  -3
   2   2   6 2811.48 238.197  -2
   2   2   6 2811.48 238.197   1
   2   2   7 14844.9 485.168  -3
   2   2   7 14844.9 485.168  -2
   2   2   7 14844.9 485.168   1
   2   2   8 20403.9 577.689  -3
   2   2   8 20403.9 577.689  -2
   2   2   8 20403.9 577.689   1
   2   2   9 7537.05 742.003  -3
   2   2   9 7537.05 742.003  -2
   2   2   9 7537.05 742.003   1
   2   2  10 1512.75 473.933  -3
   2   2  10 1512.75 473.933  -2
   2   2  10 1512.75 473.933   1
   2   2  11 377.256 432.027  -3
   2   2  11 377.256 432.027  -2
   2   2  11 377.256 432.027   1
  -2   3  11 7510.44 768.205  -3
  -2   3  11 7510.44 768.205  -2
  -2   3  11 7510.44 768.205   1
  -2   3  10 9789.61 829.945  -3
  -2   3  10 9789.61 829.945  -2
  -2   3  10 9789.61 829.945   1
  -2   3   9 7768.09 482.483  -3
  -2   3   9 7768.09 482.483  -2
  -2   3   9 7768.09 482.483   1
  -2   3   8-83.8400 254.694  -3
  -2   3   8-83.8400 254.694  -2
  -2   3   8-83.8400 254.694   1
  -2   3   7 774.240 234.177  -3
  -2   3   7 774.240 234.177  -2
  -2   3   7 774.240 234.177   1
  -2   3   6 16829.9 648.271  -3
  -2   3   6 16829.9 648.271  -2
  -2   3   6 16829.9 648.271   1
  -2   3   5 34439.0 889.190  -3
  -2   3   5 34439.0 889.190  -2
  -2   3   5 34439.0 889.190   1
  -2   3   4 19449.4 435.864  -3
  -2   3   4 19449.4 435.864  -2
  -2   3   4 19449.4 435.864   1
  -2   3   3 4609.07 159.542  -3
  -2   3   3 4609.07 159.542  -2
  -2   3   3 4609.07 159.542   1
  -2   3   2 13778.8 401.754  -2
  -2   3   2 13778.8 401.754   1
  -2   3   2 15253.0 315.658  -3
  -2   3   2 15253.0 315.658  -2
  -2   3   2 15253.0 315.658   1
  -2   3   1 16431.2 292.525  -3
  -2   3   1 16431.2 292.525  -2
  -2   3   1 16431.2 292.525   1
   2   3   0 22749.0 267.245  -3
   2   3   0 22749.0 267.245  -2
   2   3   0 22749.0 267.245   1
  -2   3  -1 29150.3 339.884  -3
  -2   3  -1 29150.3 339.884  -2
  -2   3  -1 29150.3 339.884   1
   2   3   2 9026.55 417.632  -3
   2   3   2 9026.55 417.632  -2
   2   3   2 9026.55 417.632   1
   2   3   3 4713.56 281.412  -3
   2   3   3 4713.56 281.412  -2
   2   3   3 4713.56 281.412   1
   2   3   4 8740.29 346.472  -3
   2   3   4 8740.29 346.472  -2
   2   3   4 8740.29 346.472   1
   2   3   5 18530.9 518.841  -3
   2   3   5 18530.9 518.841  -2
   2   3   5 18530.9 518.841   1
   2   3   6 13227.3 466.347  -3
   2   3   6 13227.3 466.347  -2
   2   3   6 13227.3 466.347   1
   2   3   7 8404.81 514.455  -3
   2   3   7 8404.81 514.455  -2
   2   3   7 8404.81 514.455   1
   2   3   8 18.5927 210.709  -3
   2   3   8 18.5927 210.709  -2
   2   3   8 18.5927 210.709   1
   2   3   9 3053.76 572.821  -3
   2   3   9 3053.76 572.821  -2
   2   3   9 3053.76 572.821   1
   2   3  10 6349.26 745.664  -3
   2   3  10 6349.26 745.664  -2
   2   3  10 6349.26 745.664   1
  -2   4  10 616.186 411.103  -3
  -2   4  10 616.186 411.103  -2
  -2   4  10 616.186 411.103   1
  -2   4   9 4524.90 430.669  -3
  -2   4   9 4524.90 430.669  -2
  -2   4   9 4524.90 430.669   1
  -2   4   8 11566.2 860.532  -3
  -2   4   8 11566.2 860.532  -2
  -2   4   8 11566.2 860.532   1
  -2   4   7 10134.4 784.572  -3
  -2   4   7 10134.4 784.572  -2
  -2   4   7 10134.4 784.572   1
  -2   4   6 6758.40 415.227  -3
  -2   4   6 6758.40 415.227  -2
  -2   4   6 6758.40 415.227   1
  -2   4   5-29.4938 100.107  -3
  -2   4   5-29.4938 100.107  -2
  -2   4   5-29.4938 100.107   1
  -2   4   4 8781.53 255.024  -3
  -2   4   4 8781.53 255.024  -2
  -2   4   4 8781.53 255.024   1
  -2   4   3 19867.2 536.122  -2
  -2   4   3 19867.2 536.122   1
  -2   4   3 21985.2 470.179  -3
  -2   4   3 21985.2 470.179  -2
  -2   4   3 21985.2 470.179   1
  -2   4   2 19139.2 594.929  -2
  -2   4   2 19139.2 594.929   1
   2   4  -2 19948.4 332.483  -3
   2   4  -2 19948.4 332.483  -2
   2   4  -2 19948.4 332.483   1
   2   4  -1 7471.47 154.921  -3
   2   4  -1 7471.47 154.921  -2
   2   4  -1 7471.47 154.921   1
   2   4   0 1196.12 145.734  -3
   2   4   0 1196.12 145.734  -2
   2   4   0 1196.12 145.734   1
   2   4   1 4091.27 163.615  -3
   2   4   1 4091.27 163.615  -2
   2   4   1 4091.27 163.615   1
   2   4   2 23531.3 352.355  -3
   2   4   2 23531.3 352.355  -2
   2   4   2 23531.3 352.355   1
   2   4   3 26361.5 475.444  -3
   2   4   3 26361.5 475.444  -2
   2   4   3 26361.5 475.444   1
   2   4   4 3614.89 246.413  -3
   2   4   4 3614.89 246.413  -2
   2   4   4 3614.89 246.413   1
   2   4   5 2642.19 292.498  -3
   2   4   5 2642.19 292.498  -2
   2   4   5 2642.19 292.498   1
   2   4   6 2898.08 325.903  -3
   2   4   6 2898.08 325.903  -2
   2   4   6 2898.08 325.903   1
   2   4   7 8744.37 435.850  -3
   2   4   7 8744.37 435.850  -2
   2   4   7 8744.37 435.850   1
   2   4   8 10784.3 487.513  -3
   2   4   8 10784.3 487.513  -2
   2   4   8 10784.3 487.513   1
   2   4   9 4268.66 463.447  -3
   2   4   9 4268.66 463.447  -2
   2   4   9 4268.66 463.447   1
  -2   5   9 2736.63 546.767  -3
  -2   5   9 2736.63 546.767  -2
  -2   5   9 2736.63 546.767   1
  -2   5   8 161.723 116.874   1
  -2   5   8 334.231 183.928  -3
  -2   5   8 334.231 183.928  -2
  -2   5   8 334.231 183.928   1
  -2   5   7 1038.74 139.172  -3
  -2   5   7 1038.74 139.172  -2
  -2   5   7 1038.74 139.172   1
  -2   5   6 7279.19 235.109  -3
  -2   5   6 7279.19 235.109  -2
  -2   5   6 7279.19 235.109   1
  -2   5   5 11017.3 262.360  -3
  -2   5   5 11017.3 262.360  -2
  -2   5   5 11017.3 262.360   1
  -2   5   4 6886.66 348.730  -2
  -2   5   4 6886.66 348.730   1
  -2   5   4 7808.89 251.905  -3
  -2   5   4 7808.89 251.905  -2
  -2   5   4 7808.89 251.905   1
  -2   5   3 1810.81 235.809  -2
  -2   5   3 1810.81 235.809   1
  -2   5   3 1602.14 93.9151  -3
  -2   5   3 1602.14 93.9151  -2
  -2   5   3 1602.14 93.9151   1
  -2   5   2 1767.59 214.216  -3
  -2   5   2 1767.59 214.216  -2
  -2   5   2 1767.59 214.216   1
   2   5  -1 5924.54 314.946  -3
   2   5  -1 5924.54 314.946  -2
   2   5  -1 5924.54 314.946   1
  -2   5   0 21155.2 526.262  -3
  -2   5   0 21155.2 526.262  -2
  -2   5   0 21155.2 526.262   1
   2   5   1 11698.1 437.661  -3
   2   5   1 11698.1 437.661  -2
   2   5   1 11698.1 437.661   1
   2   5   2 4809.47 378.172  -3
   2   5   2 4809.47 378.172  -2
   2   5   2 4809.47 378.172   1
   2   5   3 1276.41 158.406  -3
   2   5   3 1276.41 158.406  -2
   2   5   3 1276.41 158.406   1
   2   5   4 5312.42 248.722  -3
   2   5   4 5312.42 248.722  -2
   2   5   4 5312.42 248.722   1
   2   5   5 8368.34 319.098  -3
   2   5   5 8368.34 319.098  -2
   2   5   5 8368.34 319.098   1
   2   5   6 10346.6 433.349  -3
   2   5   6 10346.6 433.349  -2
   2   5   6 10346.6 433.349   1
   2   5   7 2338.42 323.585  -3
   2   5   7 2338.42 323.585  -2
   2   5   7 2338.42 323.585   1
   2   5   8 489.662 458.926  -3
   2   5   8 489.662 458.926  -2
   2   5   8 489.662 458.926   1
  -2   6   8 4209.63 612.914  -3
  -2   6   8 4209.63 612.914  -2
  -2   6   8 4209.63 612.914   1
  -2   6   7 3833.62 425.826  -3
  -2   6   7 3833.62 425.826  -2
  -2   6   7 3833.62 425.826   1
  -2   6   6 1902.93 213.419  -2
  -2   6   6 1902.93 213.419   1
  -2   6   6 2741.25 362.367  -3
  -2   6   6 2741.25 362.367  -2
  -2   6   6 2741.25 362.367   1
  -2   6   5 85.6230 150.366  -2
  -2   6   5 85.6230 150.366   1
  -2   6   5 351.979 249.992  -3
  -2   6   5 351.979 249.992  -2
  -2   6   5 351.979 249.992   1
  -2   6   4 1530.69 234.121  -2
  -2   6   4 1530.69 234.121   1
  -2   6   4 1709.35 299.744  -3
  -2   6   4 1709.35 299.744  -2
  -2   6   4 1709.35 299.744   1
  -2   6   3 6939.97 438.620  -3
  -2   6   3 6939.97 438.620  -2
  -2   6   3 6939.97 438.620   1
  -2   6   2 7806.37 458.747  -3
  -2   6   2 7806.37 458.747  -2
  -2   6   2 7806.37 458.747   1
   2   6  -1 4399.98 304.878  -3
   2   6  -1 4399.98 304.878  -2
   2   6  -1 4399.98 304.878   1
   2   6   0 208.433 229.140  -3
   2   6   0 208.433 229.140  -2
   2   6   0 208.433 229.140   1
   2   6   1 1522.77 288.929  -3
   2   6   1 1522.77 288.929  -2
   2   6   1 1522.77 288.929   1
   2   6   2 8286.28 478.489  -3
   2   6   2 8286.28 478.489  -2
   2   6   2 8286.28 478.489   1
   2   6   3 5113.56 398.641  -3
   2   6   3 5113.56 398.641  -2
   2   6   3 5113.56 398.641   1
   2   6   4 3265.74 346.590  -3
   2   6   4 3265.74 346.590  -2
   2   6   4 3265.74 346.590   1
   2   6   5 1324.21 284.184  -3
   2   6   5 1324.21 284.184  -2
   2   6   5 1324.21 284.184   1
   2   6   6 611.594 220.169  -3
   2   6   6 611.594 220.169  -2
   2   6   6 611.594 220.169   1
   2   6   7 3862.46 467.787  -3
   2   6   7 3862.46 467.787  -2
   2   6   7 3862.46 467.787   1
   2   6   8 1999.48 403.859  -3
   2   6   8 1999.48 403.859  -2
   2   6   8 1999.48 403.859   1
  -2   7   6 1520.33 459.282  -3
  -2   7   6 1520.33 459.282  -2
  -2   7   6 1520.33 459.282   1
  -2   7   5 3794.50 396.708  -3
  -2   7   5 3794.50 396.708  -2
  -2   7   5 3794.50 396.708   1
  -2   7   4 1971.20 438.114  -3
  -2   7   4 1971.20 438.114  -2
  -2   7   4 1971.20 438.114   1
  -2   7   3 517.559 347.272  -3
  -2   7   3 517.559 347.272  -2
  -2   7   3 517.559 347.272   1
  -2   7   2 295.545 323.416  -3
  -2   7   2 295.545 323.416  -2
  -2   7   2 295.545 323.416   1
   2   7  -1 4729.40 599.447  -3
   2   7  -1 4729.40 599.447  -2
   2   7  -1 4729.40 599.447   1
   2   7   0 2428.57 351.774  -3
   2   7   0 2428.57 351.774  -2
   2   7   0 2428.57 351.774   1
   2   7   1 3033.12 366.774  -3
   2   7   1 3033.12 366.774  -2
   2   7   1 3033.12 366.774   1
   2   7   2 485.948 257.793  -3
   2   7   2 485.948 257.793  -2
   2   7   2 485.948 257.793   1
   2   7   3 109.842 240.130  -3
   2   7   3 109.842 240.130  -2
   2   7   3 109.842 240.130   1
   2   7   4 823.732 336.223  -3
   2   7   4 823.732 336.223  -2
   2   7   4 823.732 336.223   1
   2   7   5 2023.97 389.846  -3
   2   7   5 2023.97 389.846  -2
   2   7   5 2023.97 389.846   1
  -3  -7   3 605.651 324.470  -3
  -3  -7   3 605.651 324.470  -2
  -3  -7   3 605.651 324.470   1
  -3  -7   2 2259.32 442.225  -3
  -3  -7   2 2259.32 442.225  -2
  -3  -7   2 2259.32 442.225   1
  -3  -7   1 3625.44 531.770  -3
  -3  -7   1 3625.44 531.770  -2
  -3  -7   1 3625.44 531.770   1
  -3  -7   0 2880.59 503.518  -3
  -3  -7   0 2880.59 503.518  -2
  -3  -7   0 2880.59 503.518   1
   3  -6  -6 235.668 404.749  -3
   3  -6  -6 235.668 404.749  -2
   3  -6  -6 235.668 404.749   1
   3  -6  -5 2591.34 323.161  -3
   3  -6  -5 2591.34 323.161  -2
   3  -6  -5 2591.34 323.161   1
  -3  -6   4 3847.21 453.784  -3
  -3  -6   4 3847.21 453.784  -2
  -3  -6   4 3847.21 453.784   1
   3  -6  -3 6398.05 462.076  -3
   3  -6  -3 6398.05 462.076  -2
   3  -6  -3 6398.05 462.076   1
  -3  -6   2 2801.39 356.654  -3
  -3  -6   2 2801.39 356.654  -2
  -3  -6   2 2801.39 356.654   1
   3  -6  -1 63.5786 223.912  -3
   3  -6  -1 63.5786 223.912  -2
   3  -6  -1 63.5786 223.912   1
  -3  -6   0 2013.65 325.824  -3
  -3  -6   0 2013.65 325.824  -2
  -3  -6   0 2013.65 325.824   1
  -3  -6  -1 5026.03 435.488  -3
  -3  -6  -1 5026.03 435.488  -2
  -3  -6  -1 5026.03 435.488   1
  -3  -6  -2 7356.73 488.802  -3
  -3  -6  -2 7356.73 488.802  -2
  -3  -6  -2 7356.73 488.802   1
   3  -6   3 3302.39 363.517  -3
   3  -6   3 3302.39 363.517  -2
   3  -6   3 3302.39 363.517   1
   3  -6   4 137.855 226.084  -3
   3  -6   4 137.855 226.084  -2
   3  -6   4 137.855 226.084   1
   3  -6   5 1136.10 341.839  -3
   3  -6   5 1136.10 341.839  -2
   3  -6   5 1136.10 341.839   1
   3  -6   6 3200.12 409.063  -3
   3  -6   6 3200.12 409.063  -2
   3  -6   6 3200.12 409.063   1
   3  -6   7 1395.13 305.163  -3
   3  -6   7 1395.13 305.163   1
   3  -5  -9 736.937 390.797  -3
   3  -5  -9 736.937 390.797  -2
   3  -5  -9 736.937 390.797   1
  -3  -5   8 825.976 263.113  -3
  -3  -5   8 825.976 263.113  -2
  -3  -5   8 825.976 263.113   1
   3  -5  -7 7391.75 789.873  -3
   3  -5  -7 7391.75 789.873  -2
   3  -5  -7 7391.75 789.873   1
  -3  -5   6 8705.97 348.099  -3
  -3  -5   6 8705.97 348.099  -2
  -3  -5   6 8705.97 348.099   1
  -3  -5   5 1413.44 191.470  -3
  -3  -5   5 1413.44 191.470  -2
  -3  -5   5 1413.44 191.470   1
  -3  -5   4 2176.43 131.948  -3
  -3  -5   4 2176.43 131.948  -2
  -3  -5   4 2176.43 131.948   1
  -3  -5   3 2093.10 147.604  -3
  -3  -5   3 2093.10 147.604  -2
  -3  -5   3 2093.10 147.604   1
  -3  -5   2 4069.79 198.679  -2
  -3  -5   2 4069.79 198.679   1
  -3  -5   2 6412.66 283.248  -3
  -3  -5   2 6412.66 283.248  -2
  -3  -5   2 6412.66 283.248   1
  -3  -5   1 13543.0 385.989  -3
  -3  -5   1 13543.0 385.989  -2
  -3  -5   1 13543.0 385.989   1
   3  -5   0 8081.85 269.353  -3
   3  -5   0 8081.85 269.353  -2
   3  -5   0 8081.85 269.353   1
  -3  -5  -1 1445.44 160.887  -3
  -3  -5  -1 1445.44 160.887  -2
  -3  -5  -1 1445.44 160.887   1
  -3  -5  -2 1003.35 109.927  -3
  -3  -5  -2 1003.35 109.927  -2
  -3  -5  -2 1003.35 109.927   1
   3  -5   3 2760.57 173.201  -3
   3  -5   3 2760.57 173.201  -2
   3  -5   3 2760.57 173.201   1
   3  -5   4 9202.32 228.484  -3
   3  -5   4 9202.32 228.484  -2
   3  -5   4 9202.32 228.484   1
  -3  -5  -5 6253.14 276.411  -3
  -3  -5  -5 6253.14 276.411  -2
  -3  -5  -5 6253.14 276.411   1
   3  -5   6 1719.71 298.145  -3
   3  -5   6 1719.71 298.145  -2
   3  -5   6 1719.71 298.145   1
   3  -5   8 1372.39 320.095  -3
   3  -5   8 1372.39 320.095  -2
   3  -5   8 1372.39 320.095   1
   3  -4 -12 1320.42 441.784  -3
   3  -4 -12 1320.42 441.784  -2
   3  -4 -12 1320.42 441.784   1
   3  -4 -11 2171.86 459.925  -3
   3  -4 -11 2171.86 459.925  -2
   3  -4 -11 2171.86 459.925   1
   3  -4 -10 4673.50 397.939  -3
   3  -4 -10 4673.50 397.939  -2
   3  -4 -10 4673.50 397.939   1
  -3  -4   9 6705.59 442.641  -3
  -3  -4   9 6705.59 442.641  -2
  -3  -4   9 6705.59 442.641   1
   3  -4  -8 5544.26 338.280  -3
   3  -4  -8 5544.26 338.280  -2
   3  -4  -8 5544.26 338.280   1
  -3  -4   7 3236.90 247.652  -2
  -3  -4   7 3236.90 247.652   1
  -3  -4   7 3405.09 256.986  -3
  -3  -4   7 3405.09 256.986  -2
  -3  -4   7 3405.09 256.986   1
   3  -4  -6 827.023 136.405  -3
   3  -4  -6 827.023 136.405  -2
   3  -4  -6 827.023 136.405   1
   3  -4  -5 2901.03 174.965  -3
   3  -4  -5 2901.03 174.965   1
  -3  -4   5 4913.21 204.074  -3
  -3  -4   5 4913.21 204.074  -2
  -3  -4   5 4913.21 204.074   1
  -3  -4   4 17063.0 254.586  -3
  -3  -4   4 17063.0 254.586  -2
  -3  -4   4 17063.0 254.586   1
  -3  -4   3 12727.0 283.243  -3
  -3  -4   3 12727.0 283.243  -2
  -3  -4   3 12727.0 283.243   1
  -3  -4   2 6440.27 202.679  -3
  -3  -4   2 6440.27 202.679  -2
  -3  -4   2 6440.27 202.679   1
  -3  -4   1 1035.18 103.035  -3
  -3  -4   1 1035.18 103.035  -2
  -3  -4   1 1035.18 103.035   1
   3  -4   0 9437.08 180.911  -3
   3  -4   0 9437.08 180.911  -2
   3  -4   0 9437.08 180.911   1
   3  -4   1 16207.3 250.699  -3
   3  -4   1 16207.3 250.699  -2
   3  -4   1 16207.3 250.699   1
   3  -4   2 18396.8 295.276  -3
   3  -4   2 18396.8 295.276  -2
   3  -4   2 18396.8 295.276   1
   3  -4   3 5784.09 175.701  -3
   3  -4   3 5784.09 175.701  -2
   3  -4   3 5784.09 175.701   1
  -3  -4  -4 2822.27 144.856  -3
  -3  -4  -4 2822.27 144.856  -2
  -3  -4  -4 2822.27 144.856   1
  -3  -4  -5 2208.16 144.233  -3
  -3  -4  -5 2208.16 144.233  -2
  -3  -4  -5 2208.16 144.233   1
   3  -4   6 11542.2 363.672  -3
   3  -4   6 11542.2 363.672  -2
   3  -4   6 11542.2 363.672   1
   3  -4   7 12209.6 435.571  -3
   3  -4   7 12209.6 435.571  -2
   3  -4   7 12209.6 435.571   1
   3  -4   8 3180.64 329.301  -3
   3  -4   8 3180.64 329.301  -2
   3  -4   8 3180.64 329.301   1
   3  -4   9 1691.27 254.253  -3
   3  -4   9 1691.27 254.253  -2
   3  -4   9 1691.27 254.253   1
   3  -4  10 1033.39 369.031  -3
   3  -4  10 1033.39 369.031  -2
   3  -4  10 1033.39 369.031   1
   3  -3 -12 6198.99 571.538  -3
   3  -3 -12 6198.99 571.538  -2
   3  -3 -12 6198.99 571.538   1
   3  -3 -11 9937.72 502.308  -3
   3  -3 -11 9937.72 502.308  -2
   3  -3 -11 9937.72 502.308   1
  -3  -3  10 4867.55 373.373  -3
  -3  -3  10 4867.55 373.373  -2
  -3  -3  10 4867.55 373.373   1
   3  -3  -9 279.689 217.307  -3
   3  -3  -9 279.689 217.307  -2
   3  -3  -9 279.689 217.307   1
  -3  -3   8 1170.00 49.6021   1
   3  -3  -8 2922.16 234.668  -3
   3  -3  -8 2922.16 234.668  -2
   3  -3  -8 2922.16 234.668   1
   3  -3  -7 10945.1 335.682  -3
   3  -3  -7 10945.1 335.682  -2
   3  -3  -7 10945.1 335.682   1
  -3  -3   6 23816.1 496.995  -2
  -3  -3   6 23816.1 496.995   1
   3  -3  -6 25295.0 491.000  -3
   3  -3  -6 25295.0 491.000  -2
   3  -3  -6 25295.0 491.000   1
  -3  -3   5 14144.1 267.526  -3
  -3  -3   5 14144.1 267.526  -2
  -3  -3   5 14144.1 267.526   1
  -3  -3   4 1183.91 104.967  -3
  -3  -3   4 1183.91 104.967  -2
  -3  -3   4 1183.91 104.967   1
  -3  -3   3 1801.52 88.6190  -3
  -3  -3   3 1801.52 88.6190  -2
  -3  -3   3 1801.52 88.6190   1
  -3  -3   2 19260.0 310.890  -3
  -3  -3   2 19260.0 310.890  -2
  -3  -3   2 19260.0 310.890   1
   3  -3  -1 24530.7 540.062  -2
   3  -3  -1 24530.7 540.062   1
   3  -3  -1 26464.5 317.457  -3
   3  -3  -1 26464.5 317.457  -2
   3  -3  -1 26464.5 317.457   1
  -3  -3   0 38218.1 353.393  -3
  -3  -3   0 38218.1 353.393  -2
  -3  -3   0 38218.1 353.393   1
   3  -3   1 7553.86 153.152  -3
   3  -3   1 7553.86 153.152  -2
   3  -3   1 7553.86 153.152   1
   3  -3   2 5933.57 151.990  -3
   3  -3   2 5933.57 151.990  -2
   3  -3   2 5933.57 151.990   1
  -3  -3  -3 7958.91 180.303  -3
  -3  -3  -3 7958.91 180.303  -2
  -3  -3  -3 7958.91 180.303   1
  -3  -3  -4 19915.0 362.375  -3
  -3  -3  -4 19915.0 362.375  -2
  -3  -3  -4 19915.0 362.375   1
   3  -3   5 35640.2 547.626  -3
   3  -3   5 35640.2 547.626  -2
   3  -3   5 35640.2 547.626   1
   3  -3   6 4935.17 276.347  -3
   3  -3   6 4935.17 276.347  -2
   3  -3   6 4935.17 276.347   1
   3  -3   7 574.686 163.117  -3
   3  -3   7 574.686 163.117  -2
   3  -3   7 574.686 163.117   1
   3  -3   8 8214.95 340.194  -3
   3  -3   8 8214.95 340.194  -2
   3  -3   8 8214.95 340.194   1
  -3  -3  -9 8467.90 408.408  -3
  -3  -3  -9 8467.90 408.408  -2
  -3  -3  -9 8467.90 408.408   1
   3  -3  10 8370.00 424.461  -3
   3  -3  10 8370.00 424.461  -2
   3  -3  10 8370.00 424.461   1
   3  -3  11 3664.01 541.527  -3
   3  -3  11 3664.01 541.527  -2
   3  -3  11 3664.01 541.527   1
   3  -2 -12 3170.50 431.913  -3
   3  -2 -12 3170.50 431.913  -2
   3  -2 -12 3170.50 431.913   1
   3  -2 -11 865.663 254.057  -3
   3  -2 -11 865.663 254.057  -2
   3  -2 -11 865.663 254.057   1
   3  -2 -10 9014.97 437.686  -3
   3  -2 -10 9014.97 437.686  -2
   3  -2 -10 9014.97 437.686   1
  -3  -2   9 15002.8 539.190  -3
  -3  -2   9 15002.8 539.190  -2
  -3  -2   9 15002.8 539.190   1
   3  -2  -8 15976.5 389.892  -3
   3  -2  -8 15976.5 389.892  -2
   3  -2  -8 15976.5 389.892   1
   3  -2  -7 9079.30 297.035  -3
   3  -2  -7 9079.30 297.035  -2
   3  -2  -7 9079.30 297.035   1
   3  -2  -6 1034.91 132.351  -3
   3  -2  -6 1034.91 132.351  -2
   3  -2  -6 1034.91 132.351   1
  -3  -2   5 11426.1 188.434   1
   3  -2  -5 17517.2 422.946  -3
   3  -2  -5 17517.2 422.946  -2
   3  -2  -5 17517.2 422.946   1
  -3  -2   4 29718.6 469.609  -2
  -3  -2   4 29718.6 469.609   1
   3  -2  -4 31340.8 464.576  -3
   3  -2  -4 31340.8 464.576  -2
   3  -2  -4 31340.8 464.576   1
   3  -2  -3 41840.3 403.398  -3
   3  -2  -3 41840.3 403.398  -2
   3  -2  -3 41840.3 403.398   1
  -3  -2   2 14538.0 222.134  -3
  -3  -2   2 14538.0 222.134  -2
  -3  -2   2 14538.0 222.134   1
   3  -2  -1 2069.78 130.837  -2
   3  -2  -1 2069.78 130.837   1
   3  -2  -1 2292.95 91.7414  -3
   3  -2  -1 2292.95 91.7414  -2
   3  -2  -1 2292.95 91.7414   1
  -3  -2   0 8961.54 162.332  -3
  -3  -2   0 8961.54 162.332  -2
  -3  -2   0 8961.54 162.332   1
   3  -2   1 63316.9 324.108  -3
   3  -2   1 63316.9 324.108  -2
   3  -2   1 63316.9 324.108   1
   3  -2   2 37981.3 374.288  -3
   3  -2   2 37981.3 374.288  -2
   3  -2   2 37981.3 374.288   1
  -3  -2  -3 23701.6 332.985  -3
  -3  -2  -3 23701.6 332.985  -2
  -3  -2  -3 23701.6 332.985   1
   3  -2   4 8971.18 230.672  -3
   3  -2   4 8971.18 230.672  -2
   3  -2   4 8971.18 230.672   1
   3  -2   5 5906.15 238.322  -3
   3  -2   5 5906.15 238.322  -2
   3  -2   5 5906.15 238.322   1
  -3  -2  -6 29909.7 463.536  -3
  -3  -2  -6 29909.7 463.536  -2
  -3  -2  -6 29909.7 463.536   1
   3  -2   7 19283.3 800.290  -3
   3  -2   7 19283.3 800.290   1
  -3  -2  -7 24309.9 442.623  -3
  -3  -2  -7 24309.9 442.623  -2
  -3  -2  -7 24309.9 442.623   1
   3  -2   8 6843.18 539.280  -3
   3  -2   8 6843.18 539.280   1
  -3  -2  -8 10073.1 372.934  -3
  -3  -2  -8 10073.1 372.934  -2
  -3  -2  -8 10073.1 372.934   1
  -3  -2  -9 1121.12 235.235  -3
  -3  -2  -9 1121.12 235.235  -2
  -3  -2  -9 1121.12 235.235   1
  -3  -2 -10 1101.59 407.915  -3
  -3  -2 -10 1101.59 407.915   1
   3  -2  10 702.724 274.004  -3
   3  -2  10 702.724 274.004  -2
   3  -2  10 702.724 274.004   1
   3  -2  11 6754.84 689.525  -3
   3  -2  11 6754.84 689.525  -2
   3  -2  11 6754.84 689.525   1
  -3  -1  12 10241.7 767.766  -3
  -3  -1  12 10241.7 767.766  -2
  -3  -1  12 10241.7 767.766   1
   3  -1 -11 13974.0 582.399  -3
   3  -1 -11 13974.0 582.399  -2
   3  -1 -11 13974.0 582.399   1
   3  -1 -10 2750.62 356.440  -3
   3  -1 -10 2750.62 356.440  -2
   3  -1 -10 2750.62 356.440   1
  -3  -1   9 1739.33 230.780  -3
  -3  -1   9 1739.33 230.780  -2
  -3  -1   9 1739.33 230.780   1
   3  -1  -8 2837.26 204.688  -3
   3  -1  -8 2837.26 204.688  -2
   3  -1  -8 2837.26 204.688   1
   3  -1  -7 25067.0 504.131  -3
   3  -1  -7 25067.0 504.131  -2
   3  -1  -7 25067.0 504.131   1
  -3  -1   6 20877.4 715.362  -2
  -3  -1   6 20877.4 715.362   1
   3  -1  -6 26285.8 553.190  -3
   3  -1  -6 26285.8 553.190  -2
   3  -1  -6 26285.8 553.190   1
  -3  -1   5 17107.8 618.891  -2
  -3  -1   5 17107.8 618.891   1
   3  -1  -5 21801.8 483.636  -3
   3  -1  -5 21801.8 483.636  -2
   3  -1  -5 21801.8 483.636   1
  -3  -1   4 580.622 182.414  -2
  -3  -1   4 580.622 182.414   1
   3  -1  -4 941.780 127.205  -3
   3  -1  -4 941.780 127.205  -2
   3  -1  -4 941.780 127.205   1
  -3  -1   3 1489.89 128.667  -3
  -3  -1   3 1489.89 128.667  -2
  -3  -1   3 1489.89 128.667   1
   3  -1  -2-25.7739 43.4331  -3
   3  -1  -2-25.7739 43.4331   1
  -3  -1   2 42342.5 363.661  -3
  -3  -1   2 42342.5 363.661  -2
  -3  -1   2 42342.5 363.661   1
   3  -1  -1 76298.8 566.414  -3
   3  -1  -1 76298.8 566.414  -2
   3  -1  -1 76298.8 566.414   1
  -3  -1   0 36659.2 353.110  -3
  -3  -1   0 36659.2 353.110  -2
  -3  -1   0 36659.2 353.110   1
  -3  -1  -1 13084.2 188.779  -3
  -3  -1  -1 13084.2 188.779  -2
  -3  -1  -1 13084.2 188.779   1
   3  -1   2 8153.16 183.827  -3
   3  -1   2 8153.16 183.827  -2
   3  -1   2 8153.16 183.827   1
  -3  -1  -3 27182.2 304.355  -3
  -3  -1  -3 27182.2 304.355  -2
  -3  -1  -3 27182.2 304.355   1
  -3  -1  -4 41346.8 444.744  -3
  -3  -1  -4 41346.8 444.744  -2
  -3  -1  -4 41346.8 444.744   1
   3  -1   5 42369.0 507.048  -3
   3  -1   5 42369.0 507.048  -2
   3  -1   5 42369.0 507.048   1
  -3  -1  -6 6128.82 211.482  -3
  -3  -1  -6 6128.82 211.482  -2
  -3  -1  -6 6128.82 211.482   1
   3  -1   7 555.705 276.923  -3
   3  -1   7 555.705 276.923   1
   3  -1   7 899.204 150.692  -3
   3  -1   7 899.204 150.692  -2
   3  -1   7 899.204 150.692   1
   3  -1   8 2885.69 392.643  -3
   3  -1   8 2885.69 392.643   1
   3  -1   8 3525.28 255.944  -3
   3  -1   8 3525.28 255.944  -2
   3  -1   8 3525.28 255.944   1
   3  -1   9 15172.5 752.875  -3
   3  -1   9 15172.5 752.875   1
   3  -1   9 20546.3 1017.32  -3
   3  -1   9 20546.3 1017.32  -2
   3  -1   9 20546.3 1017.32   1
   3  -1  10 12612.9 848.178  -3
   3  -1  10 12612.9 848.178  -2
   3  -1  10 12612.9 848.178   1
   3  -1  11 3682.95 547.648  -3
   3  -1  11 3682.95 547.648  -2
   3  -1  11 3682.95 547.648   1
  -3   0  13 7805.24 724.846  -3
  -3   0  13 7805.24 724.846  -2
  -3   0  13 7805.24 724.846   1
  -3   0  12 209.044 383.974  -3
  -3   0  12 209.044 383.974  -2
  -3   0  12 209.044 383.974   1
  -3   0  11 824.800 364.371  -3
  -3   0  11 824.800 364.371  -2
  -3   0  11 824.800 364.371   1
  -3   0  10 9613.15 372.820  -3
  -3   0  10 9613.15 372.820   1
  -3   0  10 14250.8 799.972  -3
  -3   0  10 14250.8 799.972  -2
  -3   0  10 14250.8 799.972   1
  -3   0   9 4480.70 272.965  -3
  -3   0   9 4480.70 272.965   1
  -3   0   8 14726.5 438.347  -3
  -3   0   8 14726.5 438.347   1
   3   0  -7 10774.7 330.076  -3
   3   0  -7 10774.7 330.076  -2
   3   0  -7 10774.7 330.076   1
  -3   0   6 5752.76 347.535  -2
  -3   0   6 5752.76 347.535   1
   3   0  -6 7301.46 243.814  -3
   3   0  -6 7301.46 243.814  -2
   3   0  -6 7301.46 243.814   1
  -3   0   5 10397.4 365.710  -3
  -3   0   5 10397.4 365.710   1
  -3   0   5 15074.9 243.933  -3
  -3   0   5 15074.9 243.933  -2
  -3   0   5 15074.9 243.933   1
  -3   0   4 10136.2 316.000  -3
  -3   0   4 10136.2 316.000   1
  -3   0   4 14855.3 206.350  -3
  -3   0   4 14855.3 206.350  -2
  -3   0   4 14855.3 206.350   1
  -3   0   3 63930.3 674.769  -3
  -3   0   3 63930.3 674.769   1
  -3   0   3 88712.2 672.943  -3
  -3   0   3 88712.2 672.943  -2
  -3   0   3 88712.2 672.943   1
   3   0  -2 10783.4 185.206  -3
   3   0  -2 10783.4 185.206   1
   3   0  -2 12876.2 239.646  -3
   3   0  -2 12876.2 239.646  -2
   3   0  -2 12876.2 239.646   1
  -3   0   1 292.380 94.4448  -3
  -3   0   1 292.380 94.4448  -2
  -3   0   1 292.380 94.4448   1
  -3   0   0 12800.9 193.645  -3
  -3   0   0 12800.9 193.645  -2
  -3   0   0 12800.9 193.645   1
   3   0   1 69756.3 434.688  -3
   3   0   1 69756.3 434.688  -2
   3   0   1 69756.3 434.688   1
   3   0   2 19636.4 242.263  -3
   3   0   2 19636.4 242.263  -2
   3   0   2 19636.4 242.263   1
   3   0   3 61121.8 456.153  -3
   3   0   3 61121.8 456.153  -2
   3   0   3 61121.8 456.153   1
  -3   0  -4 122.461 78.2698  -3
  -3   0  -4 122.461 78.2698  -2
  -3   0  -4 122.461 78.2698   1
   3   0   5 5566.49 206.505  -3
   3   0   5 5566.49 206.505  -2
   3   0   5 5566.49 206.505   1
  -3   0  -6 24234.1 421.487  -3
  -3   0  -6 24234.1 421.487  -2
  -3   0  -6 24234.1 421.487   1
   3   0   7 9557.87 605.679  -3
   3   0   7 9557.87 605.679   1
  -3   0  -7 15085.3 490.868  -3
  -3   0  -7 15085.3 490.868  -2
  -3   0  -7 15085.3 490.868   1
   3   0   8 12416.3 706.054  -3
   3   0   8 12416.3 706.054   1
  -3   0  -8 19536.9 575.031  -3
  -3   0  -8 19536.9 575.031  -2
  -3   0  -8 19536.9 575.031   1
   3   0   9 2524.64 388.081  -3
   3   0   9 2524.64 388.081   1
   3   0   9 3152.31 501.059  -3
   3   0   9 3152.31 501.059  -2
   3   0   9 3152.31 501.059   1
   3   0  10 518.705 279.920  -3
   3   0  10 518.705 279.920  -2
   3   0  10 518.705 279.920   1
   3   0  11 12630.1 633.484  -3
   3   0  11 12630.1 633.484  -2
   3   0  11 12630.1 633.484   1
  -3   1  13 2460.20 484.302  -3
  -3   1  13 2460.20 484.302  -2
  -3   1  13 2460.20 484.302   1
  -3   1  12 11623.6 522.066  -3
  -3   1  12 11623.6 522.066  -2
  -3   1  12 11623.6 522.066   1
  -3   1  11 11356.5 553.949  -3
  -3   1  11 11356.5 553.949  -2
  -3   1  11 11356.5 553.949   1
  -3   1  10 1959.55 204.846  -3
  -3   1  10 1959.55 204.846  -2
  -3   1  10 1959.55 204.846   1
  -3   1   9 1511.57 185.295  -3
  -3   1   9 1511.57 185.295  -2
  -3   1   9 1511.57 185.295   1
  -3   1   8 2871.40 198.733  -3
  -3   1   8 2871.40 198.733  -2
  -3   1   8 2871.40 198.733   1
  -3   1   7 28885.0 562.120  -3
  -3   1   7 28885.0 562.120  -2
  -3   1   7 28885.0 562.120   1
  -3   1   6 25644.4 561.316  -3
  -3   1   6 25644.4 561.316  -2
  -3   1   6 25644.4 561.316   1
  -3   1   5 23136.7 802.521  -3
  -3   1   5 23136.7 802.521  -2
  -3   1   5 23136.7 802.521   1
  -3   1   4 607.040 88.8276  -3
  -3   1   4 607.040 88.8276   1
  -3   1   4 1151.52 109.072  -3
  -3   1   4 1151.52 109.072  -2
  -3   1   4 1151.52 109.072   1
  -3   1   3 609.711 46.1520  -3
  -3   1   3 609.711 46.1520   1
   3   1  -3 1373.20 229.032  -2
   3   1  -3 1373.20 229.032   1
  -3   1   3 1391.84 199.443  -3
  -3   1   3 1391.84 199.443  -2
  -3   1   3 1391.84 199.443   1
  -3   1   2 40043.4 345.212  -3
  -3   1   2 40043.4 345.212  -2
  -3   1   2 40043.4 345.212   1
  -3   1   1 74698.2 441.003  -3
  -3   1   1 74698.2 441.003  -2
  -3   1   1 74698.2 441.003   1
   3   1   0 36758.0 932.192  -3
   3   1   0 36758.0 932.192  -2
   3   1   0 36758.0 932.192   1
  -3   1  -1 12792.4 189.974  -3
  -3   1  -1 12792.4 189.974  -2
  -3   1  -1 12792.4 189.974   1
   3   1   2 9513.67 214.911  -3
   3   1   2 9513.67 214.911  -2
   3   1   2 9513.67 214.911   1
  -3   1  -3 26012.9 391.049  -3
  -3   1  -3 26012.9 391.049  -2
  -3   1  -3 26012.9 391.049   1
  -3   1  -4 39967.9 515.497  -3
  -3   1  -4 39967.9 515.497  -2
  -3   1  -4 39967.9 515.497   1
  -3   1  -5 43077.9 575.638  -3
  -3   1  -5 43077.9 575.638  -2
  -3   1  -5 43077.9 575.638   1
   3   1   6 5925.08 278.269  -3
   3   1   6 5925.08 278.269  -2
   3   1   6 5925.08 278.269   1
   3   1   7 250.766 217.393  -3
   3   1   7 250.766 217.393   1
  -3   1  -7 736.233 200.027  -3
  -3   1  -7 736.233 200.027  -2
  -3   1  -7 736.233 200.027   1
   3   1   8 2457.71 378.020  -3
   3   1   8 2457.71 378.020   1
   3   1   8 3756.90 248.901  -3
   3   1   8 3756.90 248.901  -2
   3   1   8 3756.90 248.901   1
   3   1   9 21312.8 757.235  -3
   3   1   9 21312.8 757.235  -2
   3   1   9 21312.8 757.235   1
   3   1  10 14274.1 647.303  -3
   3   1  10 14274.1 647.303  -2
   3   1  10 14274.1 647.303   1
   3   1  11 4388.10 433.601  -3
   3   1  11 4388.10 433.601  -2
   3   1  11 4388.10 433.601   1
  -3   2  12 1910.30 327.058  -3
  -3   2  12 1910.30 327.058  -2
  -3   2  12 1910.30 327.058   1
  -3   2  11 1032.97 266.702  -3
  -3   2  11 1032.97 266.702  -2
  -3   2  11 1032.97 266.702   1
  -3   2  10 8277.86 454.176  -3
  -3   2  10 8277.86 454.176  -2
  -3   2  10 8277.86 454.176   1
  -3   2   9 13730.9 536.724  -3
  -3   2   9 13730.9 536.724  -2
  -3   2   9 13730.9 536.724   1
  -3   2   8 14301.7 510.282  -3
  -3   2   8 14301.7 510.282  -2
  -3   2   8 14301.7 510.282   1
  -3   2   7 8702.45 384.247  -3
  -3   2   7 8702.45 384.247  -2
  -3   2   7 8702.45 384.247   1
  -3   2   6 1043.48 165.530  -3
  -3   2   6 1043.48 165.530  -2
  -3   2   6 1043.48 165.530   1
  -3   2   5 17146.7 567.472  -3
  -3   2   5 17146.7 567.472  -2
  -3   2   5 17146.7 567.472   1
  -3   2   4 32448.1 610.199  -3
  -3   2   4 32448.1 610.199  -2
  -3   2   4 32448.1 610.199   1
   3   2  -3 41460.2 519.606  -3
   3   2  -3 41460.2 519.606  -2
   3   2  -3 41460.2 519.606   1
   3   2  -2 14732.4 211.778  -3
   3   2  -2 14732.4 211.778  -2
   3   2  -2 14732.4 211.778   1
   3   2  -1 2300.77 96.8553  -3
   3   2  -1 2300.77 96.8553  -2
   3   2  -1 2300.77 96.8553   1
   3   2   0 9815.44 228.079  -3
   3   2   0 9815.44 228.079  -2
   3   2   0 9815.44 228.079   1
  -3   2  -1 60625.4 594.973  -3
  -3   2  -1 60625.4 594.973  -2
  -3   2  -1 60625.4 594.973   1
   3   2   2 37514.4 535.820  -3
   3   2   2 37514.4 535.820  -2
   3   2   2 37514.4 535.820   1
  -3   2  -3 21419.9 378.795  -3
  -3   2  -3 21419.9 378.795  -2
  -3   2  -3 21419.9 378.795   1
   3   2   4 9028.00 270.574  -3
   3   2   4 9028.00 270.574  -2
   3   2   4 9028.00 270.574   1
   3   2   5 6104.10 272.454  -3
   3   2   5 6104.10 272.454  -2
   3   2   5 6104.10 272.454   1
   3   2   6 30333.9 583.009  -3
   3   2   6 30333.9 583.009  -2
   3   2   6 30333.9 583.009   1
   3   2   7 26975.0 572.979  -3
   3   2   7 26975.0 572.979  -2
   3   2   7 26975.0 572.979   1
   3   2   8 9487.68 460.176  -3
   3   2   8 9487.68 460.176  -2
   3   2   8 9487.68 460.176   1
   3   2   9 1202.12 308.142  -3
   3   2   9 1202.12 308.142  -2
   3   2   9 1202.12 308.142   1
   3   2  10 834.416 303.177  -3
   3   2  10 834.416 303.177  -2
   3   2  10 834.416 303.177   1
   3   2  11 6560.22 764.210  -3
   3   2  11 6560.22 764.210  -2
   3   2  11 6560.22 764.210   1
  -3   3  11 9849.79 840.921  -3
  -3   3  11 9849.79 840.921  -2
  -3   3  11 9849.79 840.921   1
  -3   3  10 4720.29 599.572  -3
  -3   3  10 4720.29 599.572  -2
  -3   3  10 4720.29 599.572   1
  -3   3   9-11.7717 315.129  -3
  -3   3   9-11.7717 315.129  -2
  -3   3   9-11.7717 315.129   1
  -3   3   8 2664.33 464.879  -3
  -3   3   8 2664.33 464.879  -2
  -3   3   8 2664.33 464.879   1
  -3   3   7 10307.7 526.671  -3
  -3   3   7 10307.7 526.671  -2
  -3   3   7 10307.7 526.671   1
  -3   3   6 26844.5 603.003  -3
  -3   3   6 26844.5 603.003  -2
  -3   3   6 26844.5 603.003   1
  -3   3   5 14050.1 417.230  -3
  -3   3   5 14050.1 417.230  -2
  -3   3   5 14050.1 417.230   1
   3   3  -4 1317.52 173.277  -3
   3   3  -4 1317.52 173.277  -2
   3   3  -4 1317.52 173.277   1
   3   3  -3 2306.82 158.875  -3
   3   3  -3 2306.82 158.875  -2
   3   3  -3 2306.82 158.875   1
   3   3  -2 19034.0 301.755  -3
   3   3  -2 19034.0 301.755  -2
   3   3  -2 19034.0 301.755   1
  -3   3   1 28056.8 356.128  -3
  -3   3   1 28056.8 356.128  -2
  -3   3   1 28056.8 356.128   1
   3   3   0 38694.8 418.436  -3
   3   3   0 38694.8 418.436  -2
   3   3   0 38694.8 418.436   1
   3   3   1 7943.07 200.895  -3
   3   3   1 7943.07 200.895  -2
   3   3   1 7943.07 200.895   1
   3   3   2 5668.61 244.585  -3
   3   3   2 5668.61 244.585  -2
   3   3   2 5668.61 244.585   1
   3   3   3 8120.63 338.605  -3
   3   3   3 8120.63 338.605  -2
   3   3   3 8120.63 338.605   1
   3   3   4 21181.5 469.317  -3
   3   3   4 21181.5 469.317  -2
   3   3   4 21181.5 469.317   1
   3   3   5 36970.9 637.454  -3
   3   3   5 36970.9 637.454  -2
   3   3   5 36970.9 637.454   1
   3   3   6 5099.99 340.764  -3
   3   3   6 5099.99 340.764  -2
   3   3   6 5099.99 340.764   1
   3   3   7 561.716 209.177  -3
   3   3   7 561.716 209.177  -2
   3   3   7 561.716 209.177   1
   3   3   8 8966.09 457.263  -3
   3   3   8 8966.09 457.263  -2
   3   3   8 8966.09 457.263   1
   3   3   9 8542.03 582.891  -3
   3   3   9 8542.03 582.891  -2
   3   3   9 8542.03 582.891   1
   3   3  10 8650.63 599.002  -3
   3   3  10 8650.63 599.002  -2
   3   3  10 8650.63 599.002   1
  -3   4  11 2144.42 521.114  -3
  -3   4  11 2144.42 521.114  -2
  -3   4  11 2144.42 521.114   1
  -3   4  10 4240.19 600.334  -3
  -3   4  10 4240.19 600.334  -2
  -3   4  10 4240.19 600.334   1
  -3   4   9 6895.02 695.105  -3
  -3   4   9 6895.02 695.105  -2
  -3   4   9 6895.02 695.105   1
  -3   4   8 6403.03 461.025  -3
  -3   4   8 6403.03 461.025  -2
  -3   4   8 6403.03 461.025   1
  -3   4   7 3433.60 345.390  -3
  -3   4   7 3433.60 345.390  -2
  -3   4   7 3433.60 345.390   1
  -3   4   6 918.281 129.227  -2
  -3   4   6 918.281 129.227   1
  -3   4   6 1190.31 238.735  -3
  -3   4   6 1190.31 238.735  -2
  -3   4   6 1190.31 238.735   1
  -3   4   5 3992.09 188.735  -2
  -3   4   5 3992.09 188.735   1
  -3   4   5 4905.69 344.171  -3
  -3   4   5 4905.69 344.171  -2
  -3   4   5 4905.69 344.171   1
  -3   4   4 16019.0 352.967  -2
  -3   4   4 16019.0 352.967   1
  -3   4   4 18871.1 567.265  -3
  -3   4   4 18871.1 567.265  -2
  -3   4   4 18871.1 567.265   1
  -3   4   3 13847.5 352.069  -3
  -3   4   3 13847.5 352.069  -2
  -3   4   3 13847.5 352.069   1
  -3   4   2 6471.00 252.478  -3
  -3   4   2 6471.00 252.478  -2
  -3   4   2 6471.00 252.478   1
  -3   4   1 1050.63 110.978  -3
  -3   4   1 1050.63 110.978  -2
  -3   4   1 1050.63 110.978   1
   3   4   0 9407.39 224.698  -3
   3   4   0 9407.39 224.698  -2
   3   4   0 9407.39 224.698   1
   3   4   1 16232.0 303.908  -3
   3   4   1 16232.0 303.908  -2
   3   4   1 16232.0 303.908   1
   3   4   2 19256.1 353.035  -3
   3   4   2 19256.1 353.035  -2
   3   4   2 19256.1 353.035   1
   3   4   3 6747.69 435.301  -3
   3   4   3 6747.69 435.301  -2
   3   4   3 6747.69 435.301   1
   3   4   4 2535.51 339.128  -3
   3   4   4 2535.51 339.128  -2
   3   4   4 2535.51 339.128   1
   3   4   5 2528.13 373.971  -3
   3   4   5 2528.13 373.971  -2
   3   4   5 2528.13 373.971   1
   3   4   6 11033.3 556.061  -3
   3   4   6 11033.3 556.061  -2
   3   4   6 11033.3 556.061   1
   3   4   7 12763.3 622.179  -3
   3   4   7 12763.3 622.179  -2
   3   4   7 12763.3 622.179   1
   3   4   8 3118.56 602.051  -3
   3   4   8 3118.56 602.051  -2
   3   4   8 3118.56 602.051   1
   3   4   9 2359.36 580.007  -3
   3   4   9 2359.36 580.007  -2
   3   4   9 2359.36 580.007   1
  -3   5  10 223.010 399.246  -3
  -3   5  10 223.010 399.246  -2
  -3   5  10 223.010 399.246   1
  -3   5   9 388.209 385.659  -3
  -3   5   9 388.209 385.659  -2
  -3   5   9 388.209 385.659   1
  -3   5   8 374.577 235.981  -3
  -3   5   8 374.577 235.981  -2
  -3   5   8 374.577 235.981   1
  -3   5   7 1987.59 179.331   1
  -3   5   7 6606.77 424.926  -3
  -3   5   7 6606.77 424.926  -2
  -3   5   7 6606.77 424.926   1
  -3   5   6 5963.17 241.149  -2
  -3   5   6 5963.17 241.149   1
  -3   5   6 8697.45 444.410  -3
  -3   5   6 8697.45 444.410  -2
  -3   5   6 8697.45 444.410   1
  -3   5   5 1178.41 151.393  -2
  -3   5   5 1178.41 151.393   1
  -3   5   5 1402.04 228.278  -3
  -3   5   5 1402.04 228.278  -2
  -3   5   5 1402.04 228.278   1
  -3   5   4 2431.30 209.801  -3
  -3   5   4 2431.30 209.801  -2
  -3   5   4 2431.30 209.801   1
  -3   5   3 1989.71 160.058  -3
  -3   5   3 1989.71 160.058  -2
  -3   5   3 1989.71 160.058   1
   3   5  -2 5226.55 153.796  -3
   3   5  -2 5226.55 153.796  -2
   3   5  -2 5226.55 153.796   1
  -3   5   1 14995.4 445.427  -3
  -3   5   1 14995.4 445.427  -2
  -3   5   1 14995.4 445.427   1
   3   5   0 7404.70 356.988  -3
   3   5   0 7404.70 356.988  -2
   3   5   0 7404.70 356.988   1
   3   5   1 1361.67 279.086  -3
   3   5   1 1361.67 279.086  -2
   3   5   1 1361.67 279.086   1
   3   5   2 750.613 166.649  -2
   3   5   2 750.613 166.649   1
   3   5   2 1009.88 260.075  -3
   3   5   2 1009.88 260.075  -2
   3   5   2 1009.88 260.075   1
   3   5   3 3401.12 229.092  -3
   3   5   3 3401.12 229.092  -2
   3   5   3 3401.12 229.092   1
   3   5   4 10104.1 299.747  -3
   3   5   4 10104.1 299.747  -2
   3   5   4 10104.1 299.747   1
   3   5   5 6339.23 344.959  -3
   3   5   5 6339.23 344.959  -2
   3   5   5 6339.23 344.959   1
   3   5   6 2050.85 294.686  -3
   3   5   6 2050.85 294.686  -2
   3   5   6 2050.85 294.686   1
   3   5   7 181.773 235.831  -3
   3   5   7 181.773 235.831  -2
   3   5   7 181.773 235.831   1
  -3   6   8 4758.97 599.890  -3
  -3   6   8 4758.97 599.890  -2
  -3   6   8 4758.97 599.890   1
  -3   6   7 1372.62 316.669  -3
  -3   6   7 1372.62 316.669  -2
  -3   6   7 1372.62 316.669   1
  -3   6   6 719.606 273.668  -3
  -3   6   6 719.606 273.668  -2
  -3   6   6 719.606 273.668   1
  -3   6   5 2742.99 335.561  -3
  -3   6   5 2742.99 335.561  -2
  -3   6   5 2742.99 335.561   1
  -3   6   4 3635.60 349.571  -3
  -3   6   4 3635.60 349.571  -2
  -3   6   4 3635.60 349.571   1
  -3   6   3 7213.53 354.661  -3
  -3   6   3 7213.53 354.661  -2
  -3   6   3 7213.53 354.661   1
   3   6  -2 2976.74 312.346  -3
   3   6  -2 2976.74 312.346  -2
   3   6  -2 2976.74 312.346   1
   3   6  -1-150.797 220.486  -3
   3   6  -1-150.797 220.486  -2
   3   6  -1-150.797 220.486   1
   3   6   0 1927.56 316.701  -3
   3   6   0 1927.56 316.701  -2
   3   6   0 1927.56 316.701   1
   3   6   1 5345.81 423.920  -3
   3   6   1 5345.81 423.920  -2
   3   6   1 5345.81 423.920   1
   3   6   2 6880.75 468.852  -3
   3   6   2 6880.75 468.852  -2
   3   6   2 6880.75 468.852   1
   3   6   3 3598.66 376.238  -3
   3   6   3 3598.66 376.238  -2
   3   6   3 3598.66 376.238   1
   3   6   4 173.542 251.189  -3
   3   6   4 173.542 251.189  -2
   3   6   4 173.542 251.189   1
   3   6   5 2037.33 320.235  -3
   3   6   5 2037.33 320.235  -2
   3   6   5 2037.33 320.235   1
   3   6   6 3779.13 494.684  -3
   3   6   6 3779.13 494.684  -2
   3   6   6 3779.13 494.684   1
   3   6   7 2135.05 425.435  -3
   3   6   7 2135.05 425.435  -2
   3   6   7 2135.05 425.435   1
  -3   7   5 1403.13 459.406  -3
  -3   7   5 1403.13 459.406  -2
  -3   7   5 1403.13 459.406   1
  -3   7   3 203.407 305.189  -3
  -3   7   3 203.407 305.189  -2
  -3   7   3 203.407 305.189   1
   3   7  -2 2426.79 505.223  -3
   3   7  -2 2426.79 505.223  -2
   3   7  -2 2426.79 505.223   1
   3   7  -1 3389.83 548.376  -3
   3   7  -1 3389.83 548.376  -2
   3   7  -1 3389.83 548.376   1
   3   7   0 2695.75 375.013  -3
   3   7   0 2695.75 375.013  -2
   3   7   0 2695.75 375.013   1
   3   7   1 930.451 293.546  -3
   3   7   1 930.451 293.546  -2
   3   7   1 930.451 293.546   1
   3   7   2 284.829 330.435  -3
   3   7   2 284.829 330.435  -2
   3   7   2 284.829 330.435   1
   3   7   3 1159.23 372.672  -3
   3   7   3 1159.23 372.672  -2
   3   7   3 1159.23 372.672   1
   3   7   4 5016.23 542.741  -3
   3   7   4 5016.23 542.741  -2
   3   7   4 5016.23 542.741   1
  -4  -7   3 3290.63 450.541  -3
  -4  -7   3 3290.63 450.541  -2
  -4  -7   3 3290.63 450.541   1
  -4  -7   2 3406.55 472.115  -3
  -4  -7   2 3406.55 472.115  -2
  -4  -7   2 3406.55 472.115   1
  -4  -7   1 1610.27 425.143  -3
  -4  -7   1 1610.27 425.143  -2
  -4  -7   1 1610.27 425.143   1
  -4  -7   0 209.464 351.467  -3
  -4  -7   0 209.464 351.467  -2
  -4  -7   0 209.464 351.467   1
   4  -6  -6 2408.71 569.511  -3
   4  -6  -6 2408.71 569.511  -2
   4  -6  -6 2408.71 569.511   1
   4  -6  -5 4241.47 681.712  -3
   4  -6  -5 4241.47 681.712  -2
   4  -6  -5 4241.47 681.712   1
  -4  -6   4 8791.88 480.583  -3
  -4  -6   4 8791.88 480.583  -2
  -4  -6   4 8791.88 480.583   1
  -4  -6   3 1558.19 344.360  -3
  -4  -6   3 1558.19 344.360  -2
  -4  -6   3 1558.19 344.360   1
  -4  -6   2 638.779 256.242  -3
  -4  -6   2 638.779 256.242  -2
  -4  -6   2 638.779 256.242   1
  -4  -6   1 4580.08 406.211  -3
  -4  -6   1 4580.08 406.211  -2
  -4  -6   1 4580.08 406.211   1
  -4  -6   0 4074.02 397.354  -3
  -4  -6   0 4074.02 397.354  -2
  -4  -6   0 4074.02 397.354   1
  -4  -6  -1 5018.01 421.176  -3
  -4  -6  -1 5018.01 421.176  -2
  -4  -6  -1 5018.01 421.176   1
  -4  -6  -2 1516.05 296.410  -3
  -4  -6  -2 1516.05 296.410  -2
  -4  -6  -2 1516.05 296.410   1
  -4  -6  -3 26.3822 226.579  -3
  -4  -6  -3 26.3822 226.579  -2
  -4  -6  -3 26.3822 226.579   1
  -4  -6  -4 2040.49 306.753  -3
  -4  -6  -4 2040.49 306.753  -2
  -4  -6  -4 2040.49 306.753   1
   4  -6   5 3489.52 439.998  -3
   4  -6   5 3489.52 439.998  -2
   4  -6   5 3489.52 439.998   1
   4  -5  -9 2319.10 522.996  -3
   4  -5  -9 2319.10 522.996  -2
   4  -5  -9 2319.10 522.996   1
   4  -5  -8 7536.59 776.946  -3
   4  -5  -8 7536.59 776.946  -2
   4  -5  -8 7536.59 776.946   1
   4  -5  -7 10462.2 932.206  -3
   4  -5  -7 10462.2 932.206  -2
   4  -5  -7 10462.2 932.206   1
   4  -5  -6 1967.85 252.761  -3
   4  -5  -6 1967.85 252.761  -2
   4  -5  -6 1967.85 252.761   1
   4  -5  -5 1248.13 176.001  -3
   4  -5  -5 1248.13 176.001  -2
   4  -5  -5 1248.13 176.001   1
  -4  -5   4 3412.51 159.824  -3
  -4  -5   4 3412.51 159.824  -2
  -4  -5   4 3412.51 159.824   1
  -4  -5   3 12326.7 315.778  -3
  -4  -5   3 12326.7 315.778  -2
  -4  -5   3 12326.7 315.778   1
  -4  -5   2 9704.47 272.016  -3
  -4  -5   2 9704.47 272.016  -2
  -4  -5   2 9704.47 272.016   1
  -4  -5   1 4531.36 187.737  -3
  -4  -5   1 4531.36 187.737  -2
  -4  -5   1 4531.36 187.737   1
   4  -5   0 958.924 108.189  -3
   4  -5   0 958.924 108.189  -2
   4  -5   0 958.924 108.189   1
  -4  -5  -1 1800.42 130.920  -3
  -4  -5  -1 1800.42 130.920  -2
  -4  -5  -1 1800.42 130.920   1
   4  -5   2 4372.65 152.484  -3
   4  -5   2 4372.65 152.484  -2
   4  -5   2 4372.65 152.484   1
   4  -5   3 10068.5 227.626  -3
   4  -5   3 10068.5 227.626  -2
   4  -5   3 10068.5 227.626   1
   4  -5   4 8065.85 291.860  -3
   4  -5   4 8065.85 291.860  -2
   4  -5   4 8065.85 291.860   1
  -4  -5  -5 899.035 202.165  -3
  -4  -5  -5 899.035 202.165  -2
  -4  -5  -5 899.035 202.165   1
  -4  -5  -6 445.389 413.455  -3
  -4  -5  -6 445.389 413.455  -2
  -4  -5  -6 445.389 413.455   1
   4  -5   7 3873.73 563.749  -3
   4  -5   7 3873.73 563.749  -2
   4  -5   7 3873.73 563.749   1
   4  -4 -11 3421.35 514.008  -3
   4  -4 -11 3421.35 514.008  -2
   4  -4 -11 3421.35 514.008   1
   4  -4 -10 5826.24 625.755  -3
   4  -4 -10 5826.24 625.755  -2
   4  -4 -10 5826.24 625.755   1
   4  -4  -9 5636.16 428.095  -3
   4  -4  -9 5636.16 428.095  -2
   4  -4  -9 5636.16 428.095   1
  -4  -4   8 3266.19 348.195  -3
  -4  -4   8 3266.19 348.195  -2
  -4  -4   8 3266.19 348.195   1
   4  -4  -7 2935.76 241.957  -3
   4  -4  -7 2935.76 241.957  -2
   4  -4  -7 2935.76 241.957   1
   4  -4  -6 7398.06 247.276  -3
   4  -4  -6 7398.06 247.276  -2
   4  -4  -6 7398.06 247.276   1
   4  -4  -5 16121.0 344.143  -3
   4  -4  -5 16121.0 344.143  -2
   4  -4  -5 16121.0 344.143   1
  -4  -4   4 16851.2 304.285  -3
  -4  -4   4 16851.2 304.285  -2
  -4  -4   4 16851.2 304.285   1
   4  -4  -3 873.815 65.7898  -3
   4  -4  -3 873.815 65.7898   1
  -4  -4   3 1341.57 119.504  -3
  -4  -4   3 1341.57 119.504  -2
  -4  -4   3 1341.57 119.504   1
  -4  -4   2 129.781 89.6731  -3
  -4  -4   2 129.781 89.6731  -2
  -4  -4   2 129.781 89.6731   1
   4  -4  -1 7620.67 340.084  -2
   4  -4  -1 7620.67 340.084   1
  -4  -4   1 8762.96 212.521  -3
  -4  -4   1 8762.96 212.521  -2
  -4  -4   1 8762.96 212.521   1
   4  -4   0 17510.2 253.526  -3
   4  -4   0 17510.2 253.526  -2
   4  -4   0 17510.2 253.526   1
  -4  -4  -1 13053.6 234.862  -3
  -4  -4  -1 13053.6 234.862  -2
  -4  -4  -1 13053.6 234.862   1
   4  -4   2 6334.09 143.566  -3
   4  -4   2 6334.09 143.566  -2
   4  -4   2 6334.09 143.566   1
   4  -4   3 103.063 77.4554  -3
   4  -4   3 103.063 77.4554  -2
   4  -4   3 103.063 77.4554   1
   4  -4   4 6697.65 207.404  -3
   4  -4   4 6697.65 207.404  -2
   4  -4   4 6697.65 207.404   1
  -4  -4  -5 11322.6 299.308  -3
  -4  -4  -5 11322.6 299.308  -2
  -4  -4  -5 11322.6 299.308   1
   4  -4   6 9959.19 336.550  -3
   4  -4   6 9959.19 336.550  -2
   4  -4   6 9959.19 336.550   1
   4  -4   7 3443.54 264.252  -3
   4  -4   7 3443.54 264.252  -2
   4  -4   7 3443.54 264.252   1
  -4  -4  -8 542.947 200.040  -3
  -4  -4  -8 542.947 200.040  -2
  -4  -4  -8 542.947 200.040   1
   4  -4   9 1798.72 366.257  -3
   4  -4   9 1798.72 366.257  -2
   4  -4   9 1798.72 366.257   1
   4  -3 -11 243.288 308.050  -3
   4  -3 -11 243.288 308.050  -2
   4  -3 -11 243.288 308.050   1
  -4  -3  10 25.2477 214.150  -3
  -4  -3  10 25.2477 214.150  -2
  -4  -3  10 25.2477 214.150   1
   4  -3  -9 6254.45 406.030  -3
   4  -3  -9 6254.45 406.030  -2
   4  -3  -9 6254.45 406.030   1
  -4  -3   8 14977.0 393.170  -3
  -4  -3   8 14977.0 393.170  -2
  -4  -3   8 14977.0 393.170   1
   4  -3  -7 18536.3 483.514  -3
   4  -3  -7 18536.3 483.514  -2
   4  -3  -7 18536.3 483.514   1
  -4  -3   6 4712.72 203.022  -2
  -4  -3   6 4712.72 203.022   1
   4  -3  -6 5204.86 240.992  -3
   4  -3  -6 5204.86 240.992  -2
   4  -3  -6 5204.86 240.992   1
   4  -3  -5 73.3463 86.3092  -3
   4  -3  -5 73.3463 86.3092  -2
   4  -3  -5 73.3463 86.3092   1
   4  -3  -4 7112.01 196.570  -3
   4  -3  -4 7112.01 196.570  -2
   4  -3  -4 7112.01 196.570   1
  -4  -3   3 17372.5 272.121  -3
  -4  -3   3 17372.5 272.121  -2
  -4  -3   3 17372.5 272.121   1
   4  -3  -2 30355.5 321.062  -3
   4  -3  -2 30355.5 321.062  -2
   4  -3  -2 30355.5 321.062   1
   4  -3  -1 10000.7 306.208  -2
   4  -3  -1 10000.7 306.208   1
   4  -3  -1 11172.1 199.801  -3
   4  -3  -1 11172.1 199.801  -2
   4  -3  -1 11172.1 199.801   1
   4  -3   0 1786.02 184.141  -2
   4  -3   0 1786.02 184.141   1
  -4  -3   0 1972.26 95.8468  -3
  -4  -3   0 1972.26 95.8468  -2
  -4  -3   0 1972.26 95.8468   1
  -4  -3  -1 4800.99 106.859  -3
  -4  -3  -1 4800.99 106.859  -2
  -4  -3  -1 4800.99 106.859   1
   4  -3   2 18268.7 223.763  -3
   4  -3   2 18268.7 223.763  -2
   4  -3   2 18268.7 223.763   1
   4  -3   3 17323.9 253.627  -3
   4  -3   3 17323.9 253.627  -2
   4  -3   3 17323.9 253.627   1
   4  -3   4 18502.3 301.660  -3
   4  -3   4 18502.3 301.660  -2
   4  -3   4 18502.3 301.660   1
   4  -3   5 163.733 119.764  -3
   4  -3   5 163.733 119.764  -2
   4  -3   5 163.733 119.764   1
   4  -3   6 627.227 171.998  -3
   4  -3   6 627.227 171.998  -2
   4  -3   6 627.227 171.998   1
  -4  -3  -7 3151.03 147.979  -3
  -4  -3  -7 3151.03 147.979  -2
  -4  -3  -7 3151.03 147.979   1
  -4  -3  -8 8617.54 400.248  -3
  -4  -3  -8 8617.54 400.248  -2
  -4  -3  -8 8617.54 400.248   1
   4  -3   9 9657.52 446.181  -3
   4  -3   9 9657.52 446.181  -2
   4  -3   9 9657.52 446.181   1
  -4  -3 -10 1155.77 453.017  -3
  -4  -3 -10 1155.77 453.017   1
   4  -3  10 1655.32 401.663  -3
   4  -3  10 1655.32 401.663  -2
   4  -3  10 1655.32 401.663   1
   4  -2 -11 8786.29 535.615  -3
   4  -2 -11 8786.29 535.615  -2
   4  -2 -11 8786.29 535.615   1
   4  -2 -10 12617.4 626.481  -3
   4  -2 -10 12617.4 626.481  -2
   4  -2 -10 12617.4 626.481   1
   4  -2  -9 10948.4 600.492  -3
   4  -2  -9 10948.4 600.492  -2
   4  -2  -9 10948.4 600.492   1
   4  -2  -8 2324.46 183.443  -3
   4  -2  -8 2324.46 183.443  -2
   4  -2  -8 2324.46 183.443   1
   4  -2  -7 4679.72 227.284  -3
   4  -2  -7 4679.72 227.284  -2
   4  -2  -7 4679.72 227.284   1
   4  -2  -6 18038.2 394.741  -3
   4  -2  -6 18038.2 394.741  -2
   4  -2  -6 18038.2 394.741   1
   4  -2  -5 24111.0 428.010  -3
   4  -2  -5 24111.0 428.010  -2
   4  -2  -5 24111.0 428.010   1
  -4  -2   4 16196.1 295.127  -2
  -4  -2   4 16196.1 295.127   1
   4  -2  -4 19000.8 391.297  -3
   4  -2  -4 19000.8 391.297  -2
   4  -2  -4 19000.8 391.297   1
  -4  -2   3 10530.1 211.001  -3
  -4  -2   3 10530.1 211.001  -2
  -4  -2   3 10530.1 211.001   1
  -4  -2   2 3424.83 116.263  -3
  -4  -2   2 3424.83 116.263  -2
  -4  -2   2 3424.83 116.263   1
  -4  -2   1 13728.8 227.027  -3
  -4  -2   1 13728.8 227.027  -2
  -4  -2   1 13728.8 227.027   1
  -4  -2   0 40764.4 407.972  -3
  -4  -2   0 40764.4 407.972  -2
  -4  -2   0 40764.4 407.972   1
   4  -2   1 17506.9 258.421  -3
   4  -2   1 17506.9 258.421   1
  -4  -2  -1 25225.9 234.775  -3
  -4  -2  -1 25225.9 234.775  -2
  -4  -2  -1 25225.9 234.775   1
   4  -2   2 5994.03 173.195  -3
   4  -2   2 5994.03 173.195  -2
   4  -2   2 5994.03 173.195   1
   4  -2   3 411.710 85.9960  -3
   4  -2   3 411.710 85.9960  -2
   4  -2   3 411.710 85.9960   1
  -4  -2  -4 11853.8 261.977  -3
  -4  -2  -4 11853.8 261.977  -2
  -4  -2  -4 11853.8 261.977   1
   4  -2   5 22563.8 332.523  -3
   4  -2   5 22563.8 332.523  -2
   4  -2   5 22563.8 332.523   1
   4  -2   6 6175.33 532.532  -3
   4  -2   6 6175.33 532.532   1
  -4  -2  -6 7896.23 245.487  -3
  -4  -2  -6 7896.23 245.487  -2
  -4  -2  -6 7896.23 245.487   1
   4  -2   7 6468.52 556.145  -3
   4  -2   7 6468.52 556.145   1
   4  -2   7 8788.18 346.522  -3
   4  -2   7 8788.18 346.522  -2
   4  -2   7 8788.18 346.522   1
   4  -2   8 1620.62 249.245  -3
   4  -2   8 1620.62 249.245  -2
   4  -2   8 1620.62 249.245   1
  -4  -2  -9 1404.03 412.041  -3
  -4  -2  -9 1404.03 412.041   1
   4  -2   9 1663.67 302.361  -3
   4  -2   9 1663.67 302.361  -2
   4  -2   9 1663.67 302.361   1
   4  -2  10 6167.88 471.897  -3
   4  -2  10 6167.88 471.897  -2
   4  -2  10 6167.88 471.897   1
   4  -2  11 8031.89 742.112  -3
   4  -2  11 8031.89 742.112  -2
   4  -2  11 8031.89 742.112   1
  -4  -1  13 8544.28 751.312  -3
  -4  -1  13 8544.28 751.312  -2
  -4  -1  13 8544.28 751.312   1
   4  -1 -11 6821.29 389.372  -3
   4  -1 -11 6821.29 389.372  -2
   4  -1 -11 6821.29 389.372   1
   4  -1 -10 1284.61 271.193  -3
   4  -1 -10 1284.61 271.193  -2
   4  -1 -10 1284.61 271.193   1
  -4  -1   9 3536.03 256.864  -3
  -4  -1   9 3536.03 256.864  -2
  -4  -1   9 3536.03 256.864   1
  -4  -1   8 30401.4 898.491  -2
  -4  -1   8 30401.4 898.491   1
   4  -1  -8 39405.4 719.684  -3
   4  -1  -8 39405.4 719.684  -2
   4  -1  -8 39405.4 719.684   1
  -4  -1   7 15064.8 629.583  -2
  -4  -1   7 15064.8 629.583   1
   4  -1  -7 19464.2 514.785  -3
   4  -1  -7 19464.2 514.785  -2
   4  -1  -7 19464.2 514.785   1
  -4  -1   6 8988.13 490.586  -2
  -4  -1   6 8988.13 490.586   1
  -4  -1   6 10468.7 378.504  -3
  -4  -1   6 10468.7 378.504  -2
  -4  -1   6 10468.7 378.504   1
  -4  -1   5 2091.43 254.037  -2
  -4  -1   5 2091.43 254.037   1
  -4  -1   5 2353.34 208.797  -3
  -4  -1   5 2353.34 208.797  -2
  -4  -1   5 2353.34 208.797   1
  -4  -1   4 8918.68 449.533  -2
  -4  -1   4 8918.68 449.533   1
  -4  -1   4 10906.1 382.137  -3
  -4  -1   4 10906.1 382.137  -2
  -4  -1   4 10906.1 382.137   1
  -4  -1   3 54418.8 1026.04  -2
  -4  -1   3 54418.8 1026.04   1
  -4  -1   3 61365.4 1011.72  -3
  -4  -1   3 61365.4 1011.72  -2
  -4  -1   3 61365.4 1011.72   1
   4  -1  -2 39377.5 444.506  -2
   4  -1  -2 39377.5 444.506   1
   4  -1  -2 43544.6 816.867  -3
   4  -1  -2 43544.6 816.867  -2
   4  -1  -2 43544.6 816.867   1
  -4  -1   1 30839.2 351.967  -3
  -4  -1   1 30839.2 351.967  -2
  -4  -1   1 30839.2 351.967   1
  -4  -1   0 758.855 102.679  -3
  -4  -1   0 758.855 102.679  -2
  -4  -1   0 758.855 102.679   1
   4  -1   1 3761.40 126.766  -3
   4  -1   1 3761.40 126.766  -2
   4  -1   1 3761.40 126.766   1
  -4  -1  -2 22136.4 285.805  -3
  -4  -1  -2 22136.4 285.805  -2
  -4  -1  -2 22136.4 285.805   1
  -4  -1  -3 47262.7 438.187  -3
  -4  -1  -3 47262.7 438.187  -2
  -4  -1  -3 47262.7 438.187   1
  -4  -1  -4 21939.7 288.220  -3
  -4  -1  -4 21939.7 288.220  -2
  -4  -1  -4 21939.7 288.220   1
  -4  -1  -5 5735.08 174.975  -3
  -4  -1  -5 5735.08 174.975  -2
  -4  -1  -5 5735.08 174.975   1
   4  -1   6 1935.12 365.646  -3
   4  -1   6 1935.12 365.646   1
  -4  -1  -6 2769.09 152.353  -3
  -4  -1  -6 2769.09 152.353  -2
  -4  -1  -6 2769.09 152.353   1
   4  -1   7 4544.72 465.522  -3
   4  -1   7 4544.72 465.522   1
  -4  -1  -7 6828.92 302.704  -3
  -4  -1  -7 6828.92 302.704  -2
  -4  -1  -7 6828.92 302.704   1
   4  -1   8 23061.9 738.164  -3
   4  -1   8 23061.9 738.164  -2
   4  -1   8 23061.9 738.164   1
   4  -1   9 11867.7 586.309  -3
   4  -1   9 11867.7 586.309  -2
   4  -1   9 11867.7 586.309   1
   4  -1  10 2042.82 449.962  -3
   4  -1  10 2042.82 449.962  -2
   4  -1  10 2042.82 449.962   1
   4  -1  11 116.426 343.205  -3
   4  -1  11 116.426 343.205  -2
   4  -1  11 116.426 343.205   1
  -4   0  13 413.347 376.043  -3
  -4   0  13 413.347 376.043  -2
  -4   0  13 413.347 376.043   1
  -4   0  12 770.738 275.695  -3
  -4   0  12 770.738 275.695  -2
  -4   0  12 770.738 275.695   1
  -4   0  11 7873.56 468.174  -3
  -4   0  11 7873.56 468.174  -2
  -4   0  11 7873.56 468.174   1
  -4   0  10 13782.5 608.164  -2
  -4   0  10 13782.5 608.164   1
  -4   0  10 18845.9 928.767  -3
  -4   0  10 18845.9 928.767  -2
  -4   0  10 18845.9 928.767   1
  -4   0   9 16007.8 629.333  -2
  -4   0   9 16007.8 629.333   1
  -4   0   9 20225.2 918.564  -3
  -4   0   9 20225.2 918.564  -2
  -4   0   9 20225.2 918.564   1
  -4   0   8 1727.22 254.356  -2
  -4   0   8 1727.22 254.356   1
  -4   0   8 2416.23 297.777  -3
  -4   0   8 2416.23 297.777  -2
  -4   0   8 2416.23 297.777   1
  -4   0   7 2231.62 253.646  -2
  -4   0   7 2231.62 253.646   1
  -4   0   7 2552.50 282.052  -3
  -4   0   7 2552.50 282.052  -2
  -4   0   7 2552.50 282.052   1
  -4   0   6 18765.6 282.056  -2
  -4   0   6 18765.6 282.056   1
  -4   0   6 23990.1 642.448  -3
  -4   0   6 23990.1 642.448  -2
  -4   0   6 23990.1 642.448   1
  -4   0   5 26150.6 650.976  -2
  -4   0   5 26150.6 650.976   1
  -4   0   5 31933.1 369.804  -3
  -4   0   5 31933.1 369.804  -2
  -4   0   5 31933.1 369.804   1
  -4   0   4 67756.7 942.430  -2
  -4   0   4 67756.7 942.430   1
  -4   0   4 83730.0 1006.15  -3
  -4   0   4 83730.0 1006.15  -2
  -4   0   4 83730.0 1006.15   1
   4   0  -3 12583.1 291.876  -2
   4   0  -3 12583.1 291.876   1
  -4   0   3 13735.1 495.832  -3
  -4   0   3 13735.1 495.832  -2
  -4   0   3 13735.1 495.832   1
   4   0  -2 19869.3 493.848  -2
   4   0  -2 19869.3 493.848   1
   4   0  -2 22466.6 379.628  -3
   4   0  -2 22466.6 379.628  -2
   4   0  -2 22466.6 379.628   1
   4   0  -1 17716.4 242.762  -3
   4   0  -1 17716.4 242.762  -2
   4   0  -1 17716.4 242.762   1
  -4   0   0 54841.5 427.615  -3
  -4   0   0 54841.5 427.615  -2
  -4   0   0 54841.5 427.615   1
  -4   0  -1 35096.6 361.776  -3
  -4   0  -1 35096.6 361.776  -2
  -4   0  -1 35096.6 361.776   1
   4   0   2 14311.9 232.442  -3
   4   0   2 14311.9 232.442  -2
   4   0   2 14311.9 232.442   1
   4   0   3 1957.70 115.282  -3
   4   0   3 1957.70 115.282  -2
   4   0   3 1957.70 115.282   1
   4   0   4 14237.3 260.140  -3
   4   0   4 14237.3 260.140  -2
   4   0   4 14237.3 260.140   1
   4   0   5 33329.0 415.962  -3
   4   0   5 33329.0 415.962  -2
   4   0   5 33329.0 415.962   1
   4   0   6 14727.5 731.742  -3
   4   0   6 14727.5 731.742   1
   4   0   6 22372.9 435.398  -3
   4   0   6 22372.9 435.398  -2
   4   0   6 22372.9 435.398   1
   4   0   7 11747.1 697.229  -3
   4   0   7 11747.1 697.229   1
   4   0   7 18415.4 421.576  -3
   4   0   7 18415.4 421.576  -2
   4   0   7 18415.4 421.576   1
   4   0   8 87.7221 202.126  -3
   4   0   8 87.7221 202.126  -2
   4   0   8 87.7221 202.126   1
   4   0   9 4939.13 406.824  -3
   4   0   9 4939.13 406.824  -2
   4   0   9 4939.13 406.824   1
   4   0  10 9620.07 556.003  -3
   4   0  10 9620.07 556.003  -2
   4   0  10 9620.07 556.003   1
   4   0  11 6982.27 504.494  -3
   4   0  11 6982.27 504.494  -2
   4   0  11 6982.27 504.494   1
  -4   1  13 8351.45 679.637  -3
  -4   1  13 8351.45 679.637  -2
  -4   1  13 8351.45 679.637   1
  -4   1  12 8901.45 509.865  -3
  -4   1  12 8901.45 509.865  -2
  -4   1  12 8901.45 509.865   1
  -4   1  11 4102.44 347.206  -2
  -4   1  11 4102.44 347.206   1
  -4   1  11 4588.62 379.514  -3
  -4   1  11 4588.62 379.514  -2
  -4   1  11 4588.62 379.514   1
  -4   1  10 1265.01 231.966  -2
  -4   1  10 1265.01 231.966   1
  -4   1  10 1334.30 257.072  -3
  -4   1  10 1334.30 257.072  -2
  -4   1  10 1334.30 257.072   1
  -4   1   9 2995.53 282.637  -2
  -4   1   9 2995.53 282.637   1
  -4   1   9 3181.77 294.168  -3
  -4   1   9 3181.77 294.168  -2
  -4   1   9 3181.77 294.168   1
  -4   1   8 34022.6 750.842  -2
  -4   1   8 34022.6 750.842   1
  -4   1   8 30883.3 570.807  -3
  -4   1   8 30883.3 570.807  -2
  -4   1   8 30883.3 570.807   1
  -4   1   7 18220.8 520.406  -2
  -4   1   7 18220.8 520.406   1
  -4   1   7 20958.7 529.567  -3
  -4   1   7 20958.7 529.567  -2
  -4   1   7 20958.7 529.567   1
  -4   1   6 10576.7 370.730  -2
  -4   1   6 10576.7 370.730   1
  -4   1   6 12592.2 592.430  -3
  -4   1   6 12592.2 592.430  -2
  -4   1   6 12592.2 592.430   1
  -4   1   5 1870.80 156.362  -2
  -4   1   5 1870.80 156.362   1
  -4   1   5 2221.23 272.760  -3
  -4   1   5 2221.23 272.760  -2
  -4   1   5 2221.23 272.760   1
   4   1  -4 9779.57 240.716  -2
   4   1  -4 9779.57 240.716   1
  -4   1   4 12549.5 493.813  -3
  -4   1   4 12549.5 493.813  -2
  -4   1   4 12549.5 493.813   1
   4   1  -3 52504.2 437.495  -2
   4   1  -3 52504.2 437.495   1
  -4   1   3 63051.2 854.758  -3
  -4   1   3 63051.2 854.758  -2
  -4   1   3 63051.2 854.758   1
  -4   1   2 43495.6 320.077  -3
  -4   1   2 43495.6 320.077  -2
  -4   1   2 43495.6 320.077   1
   4   1  -1 30059.6 333.979  -3
   4   1  -1 30059.6 333.979  -2
   4   1  -1 30059.6 333.979   1
  -4   1   0 994.672 128.272  -3
  -4   1   0 994.672 128.272  -2
  -4   1   0 994.672 128.272   1
  -4   1  -1 3883.59 143.195  -3
  -4   1  -1 3883.59 143.195  -2
  -4   1  -1 3883.59 143.195   1
  -4   1  -2 24344.4 440.490  -3
  -4   1  -2 24344.4 440.490  -2
  -4   1  -2 24344.4 440.490   1
  -4   1  -3 48056.6 527.048  -3
  -4   1  -3 48056.6 527.048  -2
  -4   1  -3 48056.6 527.048   1
  -4   1  -4 23652.8 409.230  -3
  -4   1  -4 23652.8 409.230  -2
  -4   1  -4 23652.8 409.230   1
   4   1   5 5521.51 231.816  -3
   4   1   5 5521.51 231.816  -2
   4   1   5 5521.51 231.816   1
   4   1   6 2193.31 341.274  -3
   4   1   6 2193.31 341.274   1
  -4   1  -6 2762.94 231.518  -3
  -4   1  -6 2762.94 231.518  -2
  -4   1  -6 2762.94 231.518   1
   4   1   7 4323.64 472.488  -3
   4   1   7 4323.64 472.488   1
  -4   1  -7 6957.76 304.082  -3
  -4   1  -7 6957.76 304.082  -2
  -4   1  -7 6957.76 304.082   1
   4   1   8 21565.2 783.197  -3
   4   1   8 21565.2 783.197  -2
   4   1   8 21565.2 783.197   1
   4   1   9 11972.9 493.006  -3
   4   1   9 11972.9 493.006  -2
   4   1   9 11972.9 493.006   1
   4   1  10 2104.33 283.327  -3
   4   1  10 2104.33 283.327  -2
   4   1  10 2104.33 283.327   1
   4   1  11 251.707 389.238  -3
   4   1  11 251.707 389.238  -2
   4   1  11 251.707 389.238   1
  -4   2  12 2984.03 332.550  -3
  -4   2  12 2984.03 332.550  -2
  -4   2  12 2984.03 332.550   1
  -4   2  11 7590.43 433.627  -3
  -4   2  11 7590.43 433.627  -2
  -4   2  11 7590.43 433.627   1
  -4   2  10 11057.2 481.693  -3
  -4   2  10 11057.2 481.693  -2
  -4   2  10 11057.2 481.693   1
  -4   2   9 10171.0 436.342  -3
  -4   2   9 10171.0 436.342  -2
  -4   2   9 10171.0 436.342   1
  -4   2   8 2654.28 222.500  -3
  -4   2   8 2654.28 222.500  -2
  -4   2   8 2654.28 222.500   1
  -4   2   7 4378.61 238.606  -3
  -4   2   7 4378.61 238.606  -2
  -4   2   7 4378.61 238.606   1
  -4   2   6 16674.8 343.029  -2
  -4   2   6 16674.8 343.029   1
  -4   2   6 17760.6 343.323  -3
  -4   2   6 17760.6 343.323  -2
  -4   2   6 17760.6 343.323   1
  -4   2   5 14062.7 228.242   1
  -4   2   5 25865.4 531.797  -3
  -4   2   5 25865.4 531.797  -2
  -4   2   5 25865.4 531.797   1
   4   2  -4 18932.3 385.583  -3
   4   2  -4 18932.3 385.583  -2
   4   2  -4 18932.3 385.583   1
   4   2  -3 10359.9 208.084  -3
   4   2  -3 10359.9 208.084  -2
   4   2  -3 10359.9 208.084   1
   4   2  -2 3494.88 116.153  -3
   4   2  -2 3494.88 116.153  -2
   4   2  -2 3494.88 116.153   1
  -4   2   1 14107.3 234.938  -3
  -4   2   1 14107.3 234.938  -2
  -4   2   1 14107.3 234.938   1
   4   2   0 41363.0 503.750  -3
   4   2   0 41363.0 503.750  -2
   4   2   0 41363.0 503.750   1
   4   2   1 25424.6 428.006  -3
   4   2   1 25424.6 428.006  -2
   4   2   1 25424.6 428.006   1
   4   2   2 6138.72 277.627  -3
   4   2   2 6138.72 277.627  -2
   4   2   2 6138.72 277.627   1
   4   2   3 378.111 107.631  -3
   4   2   3 378.111 107.631  -2
   4   2   3 378.111 107.631   1
   4   2   4 12589.0 323.569  -3
   4   2   4 12589.0 323.569  -2
   4   2   4 12589.0 323.569   1
   4   2   5 22333.9 491.061  -3
   4   2   5 22333.9 491.061  -2
   4   2   5 22333.9 491.061   1
   4   2   6 8062.69 329.965  -3
   4   2   6 8062.69 329.965  -2
   4   2   6 8062.69 329.965   1
   4   2   7 8301.57 425.709  -3
   4   2   7 8301.57 425.709  -2
   4   2   7 8301.57 425.709   1
   4   2   8 1141.97 296.334  -3
   4   2   8 1141.97 296.334  -2
   4   2   8 1141.97 296.334   1
   4   2   9 1776.15 335.398  -3
   4   2   9 1776.15 335.398  -2
   4   2   9 1776.15 335.398   1
   4   2  10 6027.64 498.800  -3
   4   2  10 6027.64 498.800  -2
   4   2  10 6027.64 498.800   1
  -4   3  11 116.126 351.726  -3
  -4   3  11 116.126 351.726  -2
  -4   3  11 116.126 351.726   1
  -4   3  10-1.41789 318.466  -3
  -4   3  10-1.41789 318.466  -2
  -4   3  10-1.41789 318.466   1
  -4   3   9 5567.32 606.647  -3
  -4   3   9 5567.32 606.647  -2
  -4   3   9 5567.32 606.647   1
  -4   3   8 14198.5 634.056  -3
  -4   3   8 14198.5 634.056  -2
  -4   3   8 14198.5 634.056   1
  -4   3   7 17574.9 528.220  -3
  -4   3   7 17574.9 528.220  -2
  -4   3   7 17574.9 528.220   1
  -4   3   6 4977.36 296.132  -3
  -4   3   6 4977.36 296.132  -2
  -4   3   6 4977.36 296.132   1
  -4   3   5 178.033 149.009  -3
  -4   3   5 178.033 149.009  -2
  -4   3   5 178.033 149.009   1
   4   3  -4 7133.69 265.958  -3
   4   3  -4 7133.69 265.958  -2
   4   3  -4 7133.69 265.958   1
   4   3  -3 17111.7 293.874  -3
   4   3  -3 17111.7 293.874  -2
   4   3  -3 17111.7 293.874   1
   4   3  -2 31220.0 325.385  -3
   4   3  -2 31220.0 325.385  -2
   4   3  -2 31220.0 325.385   1
   4   3  -1 11041.5 259.451  -3
   4   3  -1 11041.5 259.451  -2
   4   3  -1 11041.5 259.451   1
   4   3   0 1915.70 144.765  -3
   4   3   0 1915.70 144.765  -2
   4   3   0 1915.70 144.765   1
  -4   3  -1 4969.44 181.473  -3
  -4   3  -1 4969.44 181.473  -2
  -4   3  -1 4969.44 181.473   1
   4   3   2 17976.5 376.186  -3
   4   3   2 17976.5 376.186  -2
   4   3   2 17976.5 376.186   1
  -4   3  -3 16610.6 456.008  -3
  -4   3  -3 16610.6 456.008  -2
  -4   3  -3 16610.6 456.008   1
   4   3   4 18735.8 396.935  -3
   4   3   4 18735.8 396.935  -2
   4   3   4 18735.8 396.935   1
   4   3   5 61.8489 144.755  -3
   4   3   5 61.8489 144.755  -2
   4   3   5 61.8489 144.755   1
   4   3   6 469.468 188.398  -3
   4   3   6 469.468 188.398  -2
   4   3   6 469.468 188.398   1
   4   3   7 2695.45 297.377  -3
   4   3   7 2695.45 297.377  -2
   4   3   7 2695.45 297.377   1
   4   3   8 8251.74 566.080  -3
   4   3   8 8251.74 566.080  -2
   4   3   8 8251.74 566.080   1
   4   3   9 10780.1 642.619  -3
   4   3   9 10780.1 642.619  -2
   4   3   9 10780.1 642.619   1
  -4   4  11 3352.69 584.735  -3
  -4   4  11 3352.69 584.735  -2
  -4   4  11 3352.69 584.735   1
  -4   4  10 5732.32 640.505  -3
  -4   4  10 5732.32 640.505  -2
  -4   4  10 5732.32 640.505   1
  -4   4   9 5332.06 599.270  -3
  -4   4   9 5332.06 599.270  -2
  -4   4   9 5332.06 599.270   1
  -4   4   8 3061.17 475.859  -3
  -4   4   8 3061.17 475.859  -2
  -4   4   8 3061.17 475.859   1
  -4   4   7 682.076 73.4792   1
  -4   4   7 2891.24 262.803  -3
  -4   4   7 2891.24 262.803  -2
  -4   4   7 2891.24 262.803   1
  -4   4   6 7370.84 427.669  -3
  -4   4   6 7370.84 427.669  -2
  -4   4   6 7370.84 427.669   1
  -4   4   5 15676.6 440.959  -3
  -4   4   5 15676.6 440.959  -2
  -4   4   5 15676.6 440.959   1
   4   4  -4 17797.3 402.009  -3
   4   4  -4 17797.3 402.009  -2
   4   4  -4 17797.3 402.009   1
  -4   4   3 1142.98 143.584  -3
  -4   4   3 1142.98 143.584  -2
  -4   4   3 1142.98 143.584   1
  -4   4   2 156.156 110.521  -3
  -4   4   2 156.156 110.521  -2
  -4   4   2 156.156 110.521   1
  -4   4   1 9232.95 241.358  -3
  -4   4   1 9232.95 241.358  -2
  -4   4   1 9232.95 241.358   1
  -4   4   0 18374.9 380.708  -3
  -4   4   0 18374.9 380.708  -2
  -4   4   0 18374.9 380.708   1
   4   4   1 13368.6 311.801  -3
   4   4   1 13368.6 311.801  -2
   4   4   1 13368.6 311.801   1
  -4   4  -2 5968.99 205.505  -3
  -4   4  -2 5968.99 205.505  -2
  -4   4  -2 5968.99 205.505   1
   4   4   3 101.974 161.888  -3
   4   4   3 101.974 161.888  -2
   4   4   3 101.974 161.888   1
   4   4   4 7182.46 523.936  -3
   4   4   4 7182.46 523.936  -2
   4   4   4 7182.46 523.936   1
   4   4   5 10946.9 539.883  -3
   4   4   5 10946.9 539.883  -2
   4   4   5 10946.9 539.883   1
   4   4   6 9732.30 542.062  -3
   4   4   6 9732.30 542.062  -2
   4   4   6 9732.30 542.062   1
   4   4   7 3503.76 383.911  -3
   4   4   7 3503.76 383.911  -2
   4   4   7 3503.76 383.911   1
   4   4   8 273.262 301.820  -3
   4   4   8 273.262 301.820  -2
   4   4   8 273.262 301.820   1
  -4   5  10 17.1153 371.689  -3
  -4   5  10 17.1153 371.689  -2
  -4   5  10 17.1153 371.689   1
  -4   5   9 1999.47 464.623  -3
  -4   5   9 1999.47 464.623  -2
  -4   5   9 1999.47 464.623   1
  -4   5   8 6962.52 656.028  -3
  -4   5   8 6962.52 656.028  -2
  -4   5   8 6962.52 656.028   1
  -4   5   7 9108.97 475.568  -3
  -4   5   7 9108.97 475.568  -2
  -4   5   7 9108.97 475.568   1
  -4   5   6 1799.77 259.127  -3
  -4   5   6 1799.77 259.127  -2
  -4   5   6 1799.77 259.127   1
  -4   5   5 1273.61 197.196  -3
  -4   5   5 1273.61 197.196  -2
  -4   5   5 1273.61 197.196   1
  -4   5   4 3240.83 191.486  -3
  -4   5   4 3240.83 191.486  -2
  -4   5   4 3240.83 191.486   1
  -4   5   3 12500.4 350.650  -3
  -4   5   3 12500.4 350.650  -2
  -4   5   3 12500.4 350.650   1
  -4   5   2 10205.6 268.277  -3
  -4   5   2 10205.6 268.277  -2
  -4   5   2 10205.6 268.277   1
  -4   5   1 4481.74 217.011  -3
  -4   5   1 4481.74 217.011  -2
  -4   5   1 4481.74 217.011   1
   4   5   0 946.478 349.541  -3
   4   5   0 946.478 349.541  -2
   4   5   0 946.478 349.541   1
   4   5   1 1487.51 219.883  -2
   4   5   1 1487.51 219.883   1
   4   5   1 1988.51 411.318  -3
   4   5   1 1988.51 411.318  -2
   4   5   1 1988.51 411.318   1
   4   5   2 4744.08 293.567  -3
   4   5   2 4744.08 293.567  -2
   4   5   2 4744.08 293.567   1
   4   5   3 10653.7 426.320  -3
   4   5   3 10653.7 426.320  -2
   4   5   3 10653.7 426.320   1
   4   5   4 7944.50 314.821  -3
   4   5   4 7944.50 314.821  -2
   4   5   4 7944.50 314.821   1
   4   5   5 943.795 215.521  -3
   4   5   5 943.795 215.521  -2
   4   5   5 943.795 215.521   1
   4   5   6 217.259 288.148  -3
   4   5   6 217.259 288.148  -2
   4   5   6 217.259 288.148   1
  -4   6   8 148.901 350.666  -3
  -4   6   8 148.901 350.666  -2
  -4   6   8 148.901 350.666   1
  -4   6   7 1396.38 302.635  -3
  -4   6   7 1396.38 302.635  -2
  -4   6   7 1396.38 302.635   1
  -4   6   6 2321.41 323.754  -3
  -4   6   6 2321.41 323.754  -2
  -4   6   6 2321.41 323.754   1
  -4   6   5 4097.97 353.757  -3
  -4   6   5 4097.97 353.757  -2
  -4   6   5 4097.97 353.757   1
  -4   6   4 8392.71 423.351  -3
  -4   6   4 8392.71 423.351  -2
  -4   6   4 8392.71 423.351   1
  -4   6   3 1187.32 196.526  -3
  -4   6   3 1187.32 196.526  -2
  -4   6   3 1187.32 196.526   1
   4   6  -2 1110.89 403.908  -3
   4   6  -2 1110.89 403.908  -2
   4   6  -2 1110.89 403.908   1
   4   6  -1 3895.87 394.586  -3
   4   6  -1 3895.87 394.586  -2
   4   6  -1 3895.87 394.586   1
   4   6   0 3787.14 389.133  -3
   4   6   0 3787.14 389.133  -2
   4   6   0 3787.14 389.133   1
   4   6   1 4640.44 411.367  -3
   4   6   1 4640.44 411.367  -2
   4   6   1 4640.44 411.367   1
   4   6   2 1364.68 310.897  -3
   4   6   2 1364.68 310.897  -2
   4   6   2 1364.68 310.897   1
   4   6   3 226.259 251.919  -3
   4   6   3 226.259 251.919  -2
   4   6   3 226.259 251.919   1
   4   6   4 1761.30 330.723  -3
   4   6   4 1761.30 330.723  -2
   4   6   4 1761.30 330.723   1
   4   6   5 4366.99 543.112  -3
   4   6   5 4366.99 543.112  -2
   4   6   5 4366.99 543.112   1
   4   6   6 3241.84 503.486  -3
   4   6   6 3241.84 503.486  -2
   4   6   6 3241.84 503.486   1
  -4   7   6 478.747 413.848  -3
  -4   7   6 478.747 413.848  -2
  -4   7   6 478.747 413.848   1
  -4   7   5 1.10414 361.714  -3
  -4   7   5 1.10414 361.714  -2
  -4   7   5 1.10414 361.714   1
  -5  -7   2 1591.08 410.236  -3
  -5  -7   2 1591.08 410.236  -2
  -5  -7   2 1591.08 410.236   1
  -5  -7   1 373.887 360.342  -3
  -5  -7   1 373.887 360.342  -2
  -5  -7   1 373.887 360.342   1
   5  -6  -5 5362.25 732.649  -3
   5  -6  -5 5362.25 732.649  -2
   5  -6  -5 5362.25 732.649   1
  -5  -6   4-29.2837 214.892  -3
  -5  -6   4-29.2837 214.892  -2
  -5  -6   4-29.2837 214.892   1
  -5  -6   3 10.3359 271.019  -3
  -5  -6   3 10.3359 271.019  -2
  -5  -6   3 10.3359 271.019   1
  -5  -6   2 1939.29 388.454  -3
  -5  -6   2 1939.29 388.454  -2
  -5  -6   2 1939.29 388.454   1
  -5  -6   1 6214.61 438.598  -3
  -5  -6   1 6214.61 438.598  -2
  -5  -6   1 6214.61 438.598   1
  -5  -6   0 5045.05 424.699  -3
  -5  -6   0 5045.05 424.699  -2
  -5  -6   0 5045.05 424.699   1
  -5  -6  -1 2126.09 326.635  -3
  -5  -6  -1 2126.09 326.635  -2
  -5  -6  -1 2126.09 326.635   1
  -5  -6  -2 177.403 248.790  -3
  -5  -6  -2 177.403 248.790  -2
  -5  -6  -2 177.403 248.790   1
  -5  -6  -3 4307.49 387.067  -3
  -5  -6  -3 4307.49 387.067  -2
  -5  -6  -3 4307.49 387.067   1
   5  -6   4 4343.77 509.360  -3
   5  -6   4 4343.77 509.360  -2
   5  -6   4 4343.77 509.360   1
   5  -6   5 2400.18 432.960  -3
   5  -6   5 2400.18 432.960  -2
   5  -6   5 2400.18 432.960   1
   5  -5  -9 4538.13 636.790  -3
   5  -5  -9 4538.13 636.790  -2
   5  -5  -9 4538.13 636.790   1
   5  -5  -8 5297.59 672.460  -3
   5  -5  -8 5297.59 672.460  -2
   5  -5  -8 5297.59 672.460   1
   5  -5  -7 1009.56 423.227  -3
   5  -5  -7 1009.56 423.227  -2
   5  -5  -7 1009.56 423.227   1
   5  -5  -6-135.935 335.808  -3
   5  -5  -6-135.935 335.808  -2
   5  -5  -6-135.935 335.808   1
  -5  -5   5 3485.95 239.724  -3
  -5  -5   5 3485.95 239.724  -2
  -5  -5   5 3485.95 239.724   1
   5  -5  -4 7326.38 308.932  -3
   5  -5  -4 7326.38 308.932  -2
   5  -5  -4 7326.38 308.932   1
  -5  -5   3 5686.60 276.066  -3
  -5  -5   3 5686.60 276.066  -2
  -5  -5   3 5686.60 276.066   1
  -5  -5   2 3897.61 158.336  -3
  -5  -5   2 3897.61 158.336  -2
  -5  -5   2 3897.61 158.336   1
   5  -5  -1 665.550 164.238  -3
   5  -5  -1 665.550 164.238  -2
   5  -5  -1 665.550 164.238   1
  -5  -5   0 1839.57 135.092  -3
  -5  -5   0 1839.57 135.092  -2
  -5  -5   0 1839.57 135.092   1
   5  -5   1 7021.57 251.382  -2
   5  -5   1 7021.57 251.382   1
   5  -5   1 7481.51 236.994  -3
   5  -5   1 7481.51 236.994  -2
   5  -5   1 7481.51 236.994   1
  -5  -5  -2 8605.47 316.536  -3
  -5  -5  -2 8605.47 316.536  -2
  -5  -5  -2 8605.47 316.536   1
  -5  -5  -3 5936.62 288.949  -3
  -5  -5  -3 5936.62 288.949  -2
  -5  -5  -3 5936.62 288.949   1
   5  -5   4 379.731 171.134  -3
   5  -5   4 379.731 171.134  -2
   5  -5   4 379.731 171.134   1
  -5  -5  -5 525.541 191.731  -3
  -5  -5  -5 525.541 191.731  -2
  -5  -5  -5 525.541 191.731   1
   5  -5   6 3329.02 501.861  -3
   5  -5   6 3329.02 501.861  -2
   5  -5   6 3329.02 501.861   1
   5  -5   7 4639.97 589.140  -3
   5  -5   7 4639.97 589.140  -2
   5  -5   7 4639.97 589.140   1
   5  -4 -11 5198.07 575.277  -3
   5  -4 -11 5198.07 575.277  -2
   5  -4 -11 5198.07 575.277   1
   5  -4 -10 3374.26 504.099  -3
   5  -4 -10 3374.26 504.099  -2
   5  -4 -10 3374.26 504.099   1
  -5  -4   9 323.298 240.379  -3
  -5  -4   9 323.298 240.379  -2
  -5  -4   9 323.298 240.379   1
   5  -4  -8 1560.46 416.912  -3
   5  -4  -8 1560.46 416.912  -2
   5  -4  -8 1560.46 416.912   1
   5  -4  -7 7240.81 320.918  -3
   5  -4  -7 7240.81 320.918  -2
   5  -4  -7 7240.81 320.918   1
   5  -4  -6 7754.68 233.372  -3
   5  -4  -6 7754.68 233.372  -2
   5  -4  -6 7754.68 233.372   1
   5  -4  -5 15271.2 311.009  -3
   5  -4  -5 15271.2 311.009  -2
   5  -4  -5 15271.2 311.009   1
   5  -4  -4 855.046 122.415  -3
   5  -4  -4 855.046 122.415  -2
   5  -4  -4 855.046 122.415   1
   5  -4  -3 1170.67 109.127  -3
   5  -4  -3 1170.67 109.127  -2
   5  -4  -3 1170.67 109.127   1
  -5  -4   2 5537.32 113.836  -3
  -5  -4   2 5537.32 113.836  -2
  -5  -4   2 5537.32 113.836   1
   5  -4  -1 13082.7 210.801  -2
   5  -4  -1 13082.7 210.801   1
   5  -4  -1 16291.8 273.364  -3
   5  -4  -1 16291.8 273.364  -2
   5  -4  -1 16291.8 273.364   1
   5  -4   0 12724.1 141.563  -2
   5  -4   0 12724.1 141.563   1
   5  -4   0 16787.4 297.970  -3
   5  -4   0 16787.4 297.970  -2
   5  -4   0 16787.4 297.970   1
   5  -4   1 1366.09 119.270  -3
   5  -4   1 1366.09 119.270  -2
   5  -4   1 1366.09 119.270   1
   5  -4   2 406.686 63.3210  -3
   5  -4   2 406.686 63.3210  -2
   5  -4   2 406.686 63.3210   1
   5  -4   3 7812.61 162.967  -3
   5  -4   3 7812.61 162.967  -2
   5  -4   3 7812.61 162.967   1
   5  -4   4 10096.2 223.930  -3
   5  -4   4 10096.2 223.930  -2
   5  -4   4 10096.2 223.930   1
  -5  -4  -5 8612.46 241.493  -3
  -5  -4  -5 8612.46 241.493  -2
  -5  -4  -5 8612.46 241.493   1
   5  -4   6 5562.83 265.620  -3
   5  -4   6 5562.83 265.620  -2
   5  -4   6 5562.83 265.620   1
   5  -4   7 126.338 186.483  -3
   5  -4   7 126.338 186.483  -2
   5  -4   7 126.338 186.483   1
   5  -4   8 2818.24 537.928  -3
   5  -4   8 2818.24 537.928  -2
   5  -4   8 2818.24 537.928   1
   5  -3 -11 166.487 285.035  -3
   5  -3 -11 166.487 285.035  -2
   5  -3 -11 166.487 285.035   1
   5  -3 -10 3410.04 440.736  -3
   5  -3 -10 3410.04 440.736  -2
   5  -3 -10 3410.04 440.736   1
   5  -3  -9 9960.85 679.995  -3
   5  -3  -9 9960.85 679.995  -2
   5  -3  -9 9960.85 679.995   1
   5  -3  -8 9091.96 399.384  -3
   5  -3  -8 9091.96 399.384  -2
   5  -3  -8 9091.96 399.384   1
  -5  -3   7 3808.28 245.401  -3
  -5  -3   7 3808.28 245.401  -2
  -5  -3   7 3808.28 245.401   1
  -5  -3   6 5180.90 238.405  -3
  -5  -3   6 5180.90 238.405  -2
  -5  -3   6 5180.90 238.405   1
  -5  -3   5 10521.1 312.241  -2
  -5  -3   5 10521.1 312.241   1
  -5  -3   5 11266.5 307.995  -3
  -5  -3   5 11266.5 307.995  -2
  -5  -3   5 11266.5 307.995   1
  -5  -3   4 21317.8 323.438  -3
  -5  -3   4 21317.8 323.438  -2
  -5  -3   4 21317.8 323.438   1
   5  -3  -3 26376.4 313.012  -3
   5  -3  -3 26376.4 313.012  -2
   5  -3  -3 26376.4 313.012   1
   5  -3  -2 10934.3 275.739  -3
   5  -3  -2 10934.3 275.739  -2
   5  -3  -2 10934.3 275.739   1
   5  -3  -1 648.717 101.683  -2
   5  -3  -1 648.717 101.683   1
  -5  -3   1 619.087 98.6573  -3
  -5  -3   1 619.087 98.6573  -2
  -5  -3   1 619.087 98.6573   1
  -5  -3   0 5058.95 178.391  -3
  -5  -3   0 5058.95 178.391  -2
  -5  -3   0 5058.95 178.391   1
  -5  -3  -1 21981.6 377.149  -3
  -5  -3  -1 21981.6 377.149  -2
  -5  -3  -1 21981.6 377.149   1
   5  -3   2 20852.8 219.552  -3
   5  -3   2 20852.8 219.552  -2
   5  -3   2 20852.8 219.552   1
   5  -3   3 10610.6 222.285  -3
   5  -3   3 10610.6 222.285  -2
   5  -3   3 10610.6 222.285   1
  -5  -3  -4 3532.31 172.232  -3
  -5  -3  -4 3532.31 172.232  -2
  -5  -3  -4 3532.31 172.232   1
  -5  -3  -5 1143.18 151.203  -3
  -5  -3  -5 1143.18 151.203  -2
  -5  -3  -5 1143.18 151.203   1
   5  -3   6 12435.8 435.787  -3
   5  -3   6 12435.8 435.787  -2
   5  -3   6 12435.8 435.787   1
   5  -3   7 19390.1 640.134  -3
   5  -3   7 19390.1 640.134  -2
   5  -3   7 19390.1 640.134   1
  -5  -3  -8 5326.99 618.480  -3
  -5  -3  -8 5326.99 618.480   1
   5  -3   8 8500.20 470.637  -3
   5  -3   8 8500.20 470.637  -2
   5  -3   8 8500.20 470.637   1
  -5  -3  -9 101.527 411.711  -3
  -5  -3  -9 101.527 411.711   1
   5  -3   9 417.879 247.732  -3
   5  -3   9 417.879 247.732  -2
   5  -3   9 417.879 247.732   1
   5  -3  10-47.6399 299.316  -3
   5  -3  10-47.6399 299.316  -2
   5  -3  10-47.6399 299.316   1
   5  -2 -11 6585.19 449.059  -3
   5  -2 -11 6585.19 449.059  -2
   5  -2 -11 6585.19 449.059   1
   5  -2 -10 8951.01 518.302  -3
   5  -2 -10 8951.01 518.302  -2
   5  -2 -10 8951.01 518.302   1
   5  -2  -9 968.342 275.112  -3
   5  -2  -9 968.342 275.112  -2
   5  -2  -9 968.342 275.112   1
   5  -2  -8 2071.23 247.840  -3
   5  -2  -8 2071.23 247.840  -2
   5  -2  -8 2071.23 247.840   1
  -5  -2   7 5793.08 307.869  -3
  -5  -2   7 5793.08 307.869  -2
  -5  -2   7 5793.08 307.869   1
  -5  -2   6 28282.2 611.600  -3
  -5  -2   6 28282.2 611.600  -2
  -5  -2   6 28282.2 611.600   1
  -5  -2   5 28316.3 591.196  -3
  -5  -2   5 28316.3 591.196  -2
  -5  -2   5 28316.3 591.196   1
  -5  -2   4 6030.44 286.046  -3
  -5  -2   4 6030.44 286.046  -2
  -5  -2   4 6030.44 286.046   1
  -5  -2   3 3123.78 178.858  -3
  -5  -2   3 3123.78 178.858  -2
  -5  -2   3 3123.78 178.858   1
  -5  -2   2 21047.0 371.494  -3
  -5  -2   2 21047.0 371.494  -2
  -5  -2   2 21047.0 371.494   1
  -5  -2   1 35539.6 495.225  -3
  -5  -2   1 35539.6 495.225  -2
  -5  -2   1 35539.6 495.225   1
  -5  -2   0 36055.6 471.836  -3
  -5  -2   0 36055.6 471.836  -2
  -5  -2   0 36055.6 471.836   1
  -5  -2  -1 10771.4 243.551  -3
  -5  -2  -1 10771.4 243.551  -2
  -5  -2  -1 10771.4 243.551   1
   5  -2   2 1046.49 86.1589  -3
   5  -2   2 1046.49 86.1589  -2
   5  -2   2 1046.49 86.1589   1
  -5  -2  -3 8578.20 205.659  -3
  -5  -2  -3 8578.20 205.659  -2
  -5  -2  -3 8578.20 205.659   1
  -5  -2  -4 27587.2 371.332  -3
  -5  -2  -4 27587.2 371.332  -2
  -5  -2  -4 27587.2 371.332   1
  -5  -2  -5 22170.3 351.749  -3
  -5  -2  -5 22170.3 351.749  -2
  -5  -2  -5 22170.3 351.749   1
   5  -2   6 9064.70 639.266  -3
   5  -2   6 9064.70 639.266   1
   5  -2   6 11924.2 432.124  -3
   5  -2   6 11924.2 432.124  -2
   5  -2   6 11924.2 432.124   1
  -5  -2  -7 380.675 137.716  -3
  -5  -2  -7 380.675 137.716  -2
  -5  -2  -7 380.675 137.716   1
  -5  -2  -8 5999.66 611.790  -3
  -5  -2  -8 5999.66 611.790   1
   5  -2   8 10354.3 375.203  -3
   5  -2   8 10354.3 375.203  -2
   5  -2   8 10354.3 375.203   1
   5  -2   9 10364.3 539.939  -3
   5  -2   9 10364.3 539.939  -2
   5  -2   9 10364.3 539.939   1
   5  -2  10 7460.22 678.994  -3
   5  -2  10 7460.22 678.994  -2
   5  -2  10 7460.22 678.994   1
  -5  -1  13 3116.48 500.603  -3
  -5  -1  13 3116.48 500.603  -2
  -5  -1  13 3116.48 500.603   1
  -5  -1  11 658.666 366.147  -3
  -5  -1  11 658.666 366.147  -2
  -5  -1  11 658.666 366.147   1
   5  -1 -10 4506.20 263.227  -3
   5  -1 -10 4506.20 263.227  -2
   5  -1 -10 4506.20 263.227   1
  -5  -1   9 13842.2 649.660  -2
  -5  -1   9 13842.2 649.660   1
   5  -1  -9 19371.5 452.109  -3
   5  -1  -9 19371.5 452.109  -2
   5  -1  -9 19371.5 452.109   1
  -5  -1   8 12529.0 607.586  -2
  -5  -1   8 12529.0 607.586   1
  -5  -1   8 16914.3 433.294  -3
  -5  -1   8 16914.3 433.294  -2
  -5  -1   8 16914.3 433.294   1
  -5  -1   7 5841.86 410.021  -2
  -5  -1   7 5841.86 410.021   1
  -5  -1   7 7191.62 276.559  -3
  -5  -1   7 7191.62 276.559  -2
  -5  -1   7 7191.62 276.559   1
  -5  -1   6 723.178 202.806  -2
  -5  -1   6 723.178 202.806   1
  -5  -1   6 801.581 142.089  -3
  -5  -1   6 801.581 142.089  -2
  -5  -1   6 801.581 142.089   1
  -5  -1   5 6196.13 402.944  -2
  -5  -1   5 6196.13 402.944   1
  -5  -1   5 7141.79 264.924  -3
  -5  -1   5 7141.79 264.924  -2
  -5  -1   5 7141.79 264.924   1
  -5  -1   4 43259.7 983.821  -2
  -5  -1   4 43259.7 983.821   1
  -5  -1   4 50108.4 917.706  -3
  -5  -1   4 50108.4 917.706  -2
  -5  -1   4 50108.4 917.706   1
   5  -1  -3 20720.2 377.747  -2
   5  -1  -3 20720.2 377.747   1
   5  -1  -3 21412.2 425.024  -3
   5  -1  -3 21412.2 425.024  -2
   5  -1  -3 21412.2 425.024   1
   5  -1  -2 22026.4 406.415  -2
   5  -1  -2 22026.4 406.415   1
   5  -1  -2 24578.0 446.209  -3
   5  -1  -2 24578.0 446.209  -2
   5  -1  -2 24578.0 446.209   1
   5  -1  -1 3441.25 182.122  -3
   5  -1  -1 3441.25 182.122  -2
   5  -1  -1 3441.25 182.122   1
  -5  -1   0 11811.0 205.466  -3
  -5  -1   0 11811.0 205.466  -2
  -5  -1   0 11811.0 205.466   1
  -5  -1  -1 27844.5 292.079  -3
  -5  -1  -1 27844.5 292.079  -2
  -5  -1  -1 27844.5 292.079   1
  -5  -1  -2 56822.1 450.555  -3
  -5  -1  -2 56822.1 450.555  -2
  -5  -1  -2 56822.1 450.555   1
   5  -1   3 22197.9 342.551  -3
   5  -1   3 22197.9 342.551  -2
   5  -1   3 22197.9 342.551   1
  -5  -1  -4 630.518 99.3533  -3
  -5  -1  -4 630.518 99.3533  -2
  -5  -1  -4 630.518 99.3533   1
   5  -1   5 2134.39 396.269  -3
   5  -1   5 2134.39 396.269   1
  -5  -1  -5 2885.78 169.513  -3
  -5  -1  -5 2885.78 169.513  -2
  -5  -1  -5 2885.78 169.513   1
   5  -1   6 8037.60 603.782  -3
   5  -1   6 8037.60 603.782   1
  -5  -1  -6 12102.4 276.213  -3
  -5  -1  -6 12102.4 276.213  -2
  -5  -1  -6 12102.4 276.213   1
   5  -1   7 25491.6 538.991  -3
   5  -1   7 25491.6 538.991  -2
   5  -1   7 25491.6 538.991   1
   5  -1   8 11341.1 438.907  -3
   5  -1   8 11341.1 438.907  -2
   5  -1   8 11341.1 438.907   1
   5  -1   9 2308.23 261.310  -3
   5  -1   9 2308.23 261.310  -2
   5  -1   9 2308.23 261.310   1
   5  -1  10 1390.44 315.360  -3
   5  -1  10 1390.44 315.360  -2
   5  -1  10 1390.44 315.360   1
  -5   0  13 2767.23 484.836  -3
  -5   0  13 2767.23 484.836  -2
  -5   0  13 2767.23 484.836   1
  -5   0  12 5088.19 401.682  -3
  -5   0  12 5088.19 401.682  -2
  -5   0  12 5088.19 401.682   1
  -5   0  11 10251.7 500.060  -3
  -5   0  11 10251.7 500.060  -2
  -5   0  11 10251.7 500.060   1
  -5   0  10 6896.49 436.310  -2
  -5   0  10 6896.49 436.310   1
  -5   0  10 8890.90 655.188  -3
  -5   0  10 8890.90 655.188  -2
  -5   0  10 8890.90 655.188   1
  -5   0   9 546.648 204.365  -2
  -5   0   9 546.648 204.365   1
  -5   0   9 1089.84 344.125  -3
  -5   0   9 1089.84 344.125  -2
  -5   0   9 1089.84 344.125   1
  -5   0   8 5193.56 377.941  -2
  -5   0   8 5193.56 377.941   1
  -5   0   8 7676.83 564.296  -3
  -5   0   8 7676.83 564.296  -2
  -5   0   8 7676.83 564.296   1
   5   0  -7 8491.06 168.218  -2
   5   0  -7 8491.06 168.218   1
  -5   0   7 13477.1 520.913  -3
  -5   0   7 13477.1 520.913  -2
  -5   0   7 13477.1 520.913   1
  -5   0   6 29588.8 736.120  -2
  -5   0   6 29588.8 736.120   1
  -5   0   6 38238.2 779.259  -3
  -5   0   6 38238.2 779.259  -2
  -5   0   6 38238.2 779.259   1
  -5   0   5 9092.77 409.687  -2
  -5   0   5 9092.77 409.687   1
  -5   0   5 11173.1 218.753  -3
  -5   0   5 11173.1 218.753  -2
  -5   0   5 11173.1 218.753   1
   5   0  -4 6848.74 343.275  -2
   5   0  -4 6848.74 343.275   1
  -5   0   4 7880.84 334.861  -3
  -5   0   4 7880.84 334.861  -2
  -5   0   4 7880.84 334.861   1
   5   0  -3 5265.28 292.456  -2
   5   0  -3 5265.28 292.456   1
   5   0  -3 6233.47 243.866  -3
   5   0  -3 6233.47 243.866  -2
   5   0  -3 6233.47 243.866   1
   5   0  -2 8104.57 351.622  -2
   5   0  -2 8104.57 351.622   1
   5   0  -2 8551.39 242.934  -3
   5   0  -2 8551.39 242.934  -2
   5   0  -2 8551.39 242.934   1
   5   0  -1 46152.0 437.960  -3
   5   0  -1 46152.0 437.960  -2
   5   0  -1 46152.0 437.960   1
   5   0   0 42780.9 354.523  -3
   5   0   0 42780.9 354.523  -2
   5   0   0 42780.9 354.523   1
   5   0   1 15271.1 242.108  -3
   5   0   1 15271.1 242.108  -2
   5   0   1 15271.1 242.108   1
  -5   0  -2 613.617 93.5262  -3
  -5   0  -2 613.617 93.5262  -2
  -5   0  -2 613.617 93.5262   1
   5   0   3 24504.6 355.564  -3
   5   0   3 24504.6 355.564  -2
   5   0   3 24504.6 355.564   1
   5   0   4 39928.9 472.243  -3
   5   0   4 39928.9 472.243  -2
   5   0   4 39928.9 472.243   1
   5   0   5 7938.76 573.961  -3
   5   0   5 7938.76 573.961   1
   5   0   5 13425.6 308.697  -3
   5   0   5 13425.6 308.697  -2
   5   0   5 13425.6 308.697   1
   5   0   6 3548.36 445.702  -3
   5   0   6 3548.36 445.702   1
  -5   0  -6 6554.56 241.727  -3
  -5   0  -6 6554.56 241.727  -2
  -5   0  -6 6554.56 241.727   1
   5   0   7 799.684 154.044  -3
   5   0   7 799.684 154.044  -2
   5   0   7 799.684 154.044   1
   5   0   8 7972.94 390.061  -3
   5   0   8 7972.94 390.061  -2
   5   0   8 7972.94 390.061   1
   5   0   9 8658.21 511.684  -3
   5   0   9 8658.21 511.684  -2
   5   0   9 8658.21 511.684   1
   5   0  10 12011.0 609.421  -3
   5   0  10 12011.0 609.421  -2
   5   0  10 12011.0 609.421   1
  -5   1  12 2465.07 324.859  -3
  -5   1  12 2465.07 324.859  -2
  -5   1  12 2465.07 324.859   1
  -5   1  11 503.761 196.540  -2
  -5   1  11 503.761 196.540   1
  -5   1  11 585.065 229.859  -3
  -5   1  11 585.065 229.859  -2
  -5   1  11 585.065 229.859   1
  -5   1  10 3671.55 303.202  -2
  -5   1  10 3671.55 303.202   1
  -5   1  10 4477.15 340.367  -3
  -5   1  10 4477.15 340.367  -2
  -5   1  10 4477.15 340.367   1
  -5   1   9 14863.7 512.493  -2
  -5   1   9 14863.7 512.493   1
  -5   1   9 17127.0 540.786  -3
  -5   1   9 17127.0 540.786  -2
  -5   1   9 17127.0 540.786   1
  -5   1   8 12764.6 455.084  -2
  -5   1   8 12764.6 455.084   1
  -5   1   8 15132.9 480.378  -3
  -5   1   8 15132.9 480.378  -2
  -5   1   8 15132.9 480.378   1
  -5   1   7 5204.40 290.518  -2
  -5   1   7 5204.40 290.518   1
  -5   1   7 6436.78 394.082  -3
  -5   1   7 6436.78 394.082  -2
  -5   1   7 6436.78 394.082   1
  -5   1   6 808.485 137.133  -2
  -5   1   6 808.485 137.133   1
  -5   1   6 1350.07 258.905  -3
  -5   1   6 1350.07 258.905  -2
  -5   1   6 1350.07 258.905   1
  -5   1   5 6689.89 265.519  -2
  -5   1   5 6689.89 265.519   1
  -5   1   5 8505.22 444.580  -3
  -5   1   5 8505.22 444.580  -2
  -5   1   5 8505.22 444.580   1
   5   1  -4 38398.3 369.894  -2
   5   1  -4 38398.3 369.894   1
  -5   1   4 52037.9 885.941  -3
  -5   1   4 52037.9 885.941  -2
  -5   1   4 52037.9 885.941   1
   5   1  -3 19924.9 668.913  -2
   5   1  -3 19924.9 668.913   1
   5   1  -3 20696.7 313.075  -3
   5   1  -3 20696.7 313.075  -2
   5   1  -3 20696.7 313.075   1
  -5   1   2 23814.2 220.622  -3
  -5   1   2 23814.2 220.622  -2
  -5   1   2 23814.2 220.622   1
  -5   1   1 2722.69 132.424  -3
  -5   1   1 2722.69 132.424   1
   5   1  -1 3459.49 169.101  -3
   5   1  -1 3459.49 169.101  -2
   5   1  -1 3459.49 169.101   1
  -5   1   0 10752.3 246.328  -2
  -5   1   0 10752.3 246.328   1
   5   1   0 11551.4 284.588  -3
   5   1   0 11551.4 284.588  -2
   5   1   0 11551.4 284.588   1
  -5   1  -1 29154.5 370.375  -3
  -5   1  -1 29154.5 370.375  -2
  -5   1  -1 29154.5 370.375   1
   5   1   2 55925.8 668.873  -3
   5   1   2 55925.8 668.873  -2
   5   1   2 55925.8 668.873   1
  -5   1  -3 21529.9 408.975  -3
  -5   1  -3 21529.9 408.975  -2
  -5   1  -3 21529.9 408.975   1
  -5   1  -4 732.613 123.343  -3
  -5   1  -4 732.613 123.343  -2
  -5   1  -4 732.613 123.343   1
   5   1   5 1832.21 329.868  -3
   5   1   5 1832.21 329.868   1
  -5   1  -5 2831.97 220.948  -3
  -5   1  -5 2831.97 220.948  -2
  -5   1  -5 2831.97 220.948   1
   5   1   6 7948.05 605.094  -3
   5   1   6 7948.05 605.094   1
  -5   1  -6 12218.4 375.578  -3
  -5   1  -6 12218.4 375.578  -2
  -5   1  -6 12218.4 375.578   1
   5   1   7 23782.6 529.907  -3
   5   1   7 23782.6 529.907  -2
   5   1   7 23782.6 529.907   1
   5   1   8 9877.13 552.126  -3
   5   1   8 9877.13 552.126  -2
   5   1   8 9877.13 552.126   1
   5   1   9 1909.24 328.686  -3
   5   1   9 1909.24 328.686  -2
   5   1   9 1909.24 328.686   1
   5   1  10 791.557 305.161  -3
   5   1  10 791.557 305.161  -2
   5   1  10 791.557 305.161   1
   5   1  11 3022.64 571.016  -3
   5   1  11 3022.64 571.016  -2
   5   1  11 3022.64 571.016   1
  -5   2  12 6248.64 675.626  -3
  -5   2  12 6248.64 675.626  -2
  -5   2  12 6248.64 675.626   1
  -5   2  11 5960.93 369.546  -3
  -5   2  11 5960.93 369.546  -2
  -5   2  11 5960.93 369.546   1
  -5   2  10 5473.41 313.200   1
  -5   2  10 7674.14 382.683  -3
  -5   2  10 7674.14 382.683  -2
  -5   2  10 7674.14 382.683   1
  -5   2   9 873.090 164.136  -2
  -5   2   9 873.090 164.136   1
  -5   2   9 693.488 186.539  -3
  -5   2   9 693.488 186.539  -2
  -5   2   9 693.488 186.539   1
  -5   2   8 1190.96 153.046  -2
  -5   2   8 1190.96 153.046   1
  -5   2   8 1391.26 189.200  -3
  -5   2   8 1391.26 189.200  -2
  -5   2   8 1391.26 189.200   1
  -5   2   7 3598.52 174.866   1
  -5   2   7 5471.14 215.678  -3
  -5   2   7 5471.14 215.678  -2
  -5   2   7 5471.14 215.678   1
  -5   2   6 15080.9 244.354   1
  -5   2   6 29138.0 608.514  -3
  -5   2   6 29138.0 608.514  -2
  -5   2   6 29138.0 608.514   1
   5   2  -5 27384.9 1004.57  -2
   5   2  -5 27384.9 1004.57   1
  -5   2   5 29593.3 571.443  -3
  -5   2   5 29593.3 571.443  -2
  -5   2   5 29593.3 571.443   1
   5   2  -4 3850.42 206.212  -3
   5   2  -4 3850.42 206.212   1
   5   2  -4 5935.74 226.732  -3
   5   2  -4 5935.74 226.732  -2
   5   2  -4 5935.74 226.732   1
   5   2  -3 2900.09 119.648  -3
   5   2  -3 2900.09 119.648  -2
   5   2  -3 2900.09 119.648   1
   5   2  -2 20541.0 290.623  -3
   5   2  -2 20541.0 290.623  -2
   5   2  -2 20541.0 290.623   1
  -5   2   1 35294.2 384.152  -3
  -5   2   1 35294.2 384.152  -2
  -5   2   1 35294.2 384.152   1
   5   2   0 39413.1 520.011  -3
   5   2   0 39413.1 520.011  -2
   5   2   0 39413.1 520.011   1
   5   2   1 10517.5 262.032  -3
   5   2   1 10517.5 262.032  -2
   5   2   1 10517.5 262.032   1
   5   2   2 844.250 138.623  -3
   5   2   2 844.250 138.623  -2
   5   2   2 844.250 138.623   1
   5   2   3 8404.16 348.075  -3
   5   2   3 8404.16 348.075  -2
   5   2   3 8404.16 348.075   1
   5   2   4 28627.0 524.172  -3
   5   2   4 28627.0 524.172  -2
   5   2   4 28627.0 524.172   1
   5   2   5 13859.3 755.710  -3
   5   2   5 13859.3 755.710   1
   5   2   5 22533.9 536.070  -3
   5   2   5 22533.9 536.070  -2
   5   2   5 22533.9 536.070   1
   5   2   6 12289.8 491.097  -3
   5   2   6 12289.8 491.097  -2
   5   2   6 12289.8 491.097   1
   5   2   7 240.829 245.871  -3
   5   2   7 240.829 245.871  -2
   5   2   7 240.829 245.871   1
   5   2   8 10258.2 588.624  -3
   5   2   8 10258.2 588.624  -2
   5   2   8 10258.2 588.624   1
   5   2   9 10421.6 611.957  -3
   5   2   9 10421.6 611.957  -2
   5   2   9 10421.6 611.957   1
   5   2  10 7189.91 789.425  -3
   5   2  10 7189.91 789.425  -2
   5   2  10 7189.91 789.425   1
  -5   3  11 181.036 359.420  -3
  -5   3  11 181.036 359.420  -2
  -5   3  11 181.036 359.420   1
  -5   3  10 4008.74 534.374  -3
  -5   3  10 4008.74 534.374  -2
  -5   3  10 4008.74 534.374   1
  -5   3   9 4589.78 207.582   1
  -5   3   9 9316.35 707.615  -3
  -5   3   9 9316.35 707.615  -2
  -5   3   9 9316.35 707.615   1
  -5   3   8 3228.64 133.527   1
  -5   3   8 7889.46 625.027  -3
  -5   3   8 7889.46 625.027  -2
  -5   3   8 7889.46 625.027   1
  -5   3   7 3788.55 283.943  -3
  -5   3   7 3788.55 283.943  -2
  -5   3   7 3788.55 283.943   1
  -5   3   6 5245.51 356.974  -3
  -5   3   6 5245.51 356.974  -2
  -5   3   6 5245.51 356.974   1
   5   3  -5 11498.5 345.016  -3
   5   3  -5 11498.5 345.016  -2
   5   3  -5 11498.5 345.016   1
  -5   3   4 21355.9 486.605  -3
  -5   3   4 21355.9 486.605  -2
  -5   3   4 21355.9 486.605   1
   5   3  -3 27106.6 331.700  -3
   5   3  -3 27106.6 331.700  -2
   5   3  -3 27106.6 331.700   1
  -5   3   2 7453.08 150.288   1
   5   3  -2 12605.0 266.879  -3
   5   3  -2 12605.0 266.879  -2
   5   3  -2 12605.0 266.879   1
   5   3  -1 651.731 116.437  -3
   5   3  -1 651.731 116.437  -2
   5   3  -1 651.731 116.437   1
   5   3   0 5281.29 204.448  -3
   5   3   0 5281.29 204.448  -2
   5   3   0 5281.29 204.448   1
  -5   3  -1 22598.2 425.441  -3
  -5   3  -1 22598.2 425.441  -2
  -5   3  -1 22598.2 425.441   1
   5   3   2 22039.6 389.119  -3
   5   3   2 22039.6 389.119  -2
   5   3   2 22039.6 389.119   1
   5   3   3 10848.2 336.322  -3
   5   3   3 10848.2 336.322  -2
   5   3   3 10848.2 336.322   1
   5   3   4 3867.57 277.287  -3
   5   3   4 3867.57 277.287  -2
   5   3   4 3867.57 277.287   1
   5   3   5 1032.37 221.334  -3
   5   3   5 1032.37 221.334  -2
   5   3   5 1032.37 221.334   1
   5   3   6 13406.6 512.908  -3
   5   3   6 13406.6 512.908  -2
   5   3   6 13406.6 512.908   1
   5   3   7 20517.5 804.976  -3
   5   3   7 20517.5 804.976  -2
   5   3   7 20517.5 804.976   1
   5   3   8 9376.66 591.761  -3
   5   3   8 9376.66 591.761  -2
   5   3   8 9376.66 591.761   1
   5   3   9 33.3231 382.223  -3
   5   3   9 33.3231 382.223  -2
   5   3   9 33.3231 382.223   1
  -5   4  11 4762.72 593.094  -3
  -5   4  11 4762.72 593.094  -2
  -5   4  11 4762.72 593.094   1
  -5   4  10 2754.66 487.607  -3
  -5   4  10 2754.66 487.607  -2
  -5   4  10 2754.66 487.607   1
  -5   4   9 311.714 325.230  -3
  -5   4   9 311.714 325.230  -2
  -5   4   9 311.714 325.230   1
  -5   4   8 1065.41 345.252  -3
  -5   4   8 1065.41 345.252  -2
  -5   4   8 1065.41 345.252   1
  -5   4   7 7628.66 447.146  -3
  -5   4   7 7628.66 447.146  -2
  -5   4   7 7628.66 447.146   1
  -5   4   6 7926.89 350.875  -3
  -5   4   6 7926.89 350.875  -2
  -5   4   6 7926.89 350.875   1
  -5   4   5 15623.2 471.028  -3
  -5   4   5 15623.2 471.028  -2
  -5   4   5 15623.2 471.028   1
  -5   4   4 1230.73 178.689  -3
  -5   4   4 1230.73 178.689  -2
  -5   4   4 1230.73 178.689   1
   5   4  -3 1200.88 122.197  -3
   5   4  -3 1200.88 122.197  -2
   5   4  -3 1200.88 122.197   1
  -5   4   2 6606.78 263.003  -3
  -5   4   2 6606.78 263.003  -2
  -5   4   2 6606.78 263.003   1
   5   4  -1 17653.4 373.202  -3
   5   4  -1 17653.4 373.202  -2
   5   4  -1 17653.4 373.202   1
   5   4   0 18261.1 381.363  -3
   5   4   0 18261.1 381.363  -2
   5   4   0 18261.1 381.363   1
   5   4   1 1649.39 168.535  -3
   5   4   1 1649.39 168.535  -2
   5   4   1 1649.39 168.535   1
  -5   4  -2 383.853 159.667  -3
  -5   4  -2 383.853 159.667  -2
  -5   4  -2 383.853 159.667   1
   5   4   3 8425.03 296.325  -3
   5   4   3 8425.03 296.325  -2
   5   4   3 8425.03 296.325   1
   5   4   4 11364.3 409.134  -3
   5   4   4 11364.3 409.134  -2
   5   4   4 11364.3 409.134   1
   5   4   5 8944.55 485.317  -3
   5   4   5 8944.55 485.317  -2
   5   4   5 8944.55 485.317   1
   5   4   6 5772.37 431.901  -3
   5   4   6 5772.37 431.901  -2
   5   4   6 5772.37 431.901   1
   5   4   7 118.569 268.446  -3
   5   4   7 118.569 268.446  -2
   5   4   7 118.569 268.446   1
  -5   5  10 1898.15 450.827  -3
  -5   5  10 1898.15 450.827  -2
  -5   5  10 1898.15 450.827   1
  -5   5   9 4570.62 550.334  -3
  -5   5   9 4570.62 550.334  -2
  -5   5   9 4570.62 550.334   1
  -5   5   8 5006.75 538.359  -3
  -5   5   8 5006.75 538.359  -2
  -5   5   8 5006.75 538.359   1
  -5   5   7 1013.52 208.168  -3
  -5   5   7 1013.52 208.168  -2
  -5   5   7 1013.52 208.168   1
  -5   5   6-10.3248 164.282  -3
  -5   5   6-10.3248 164.282  -2
  -5   5   6-10.3248 164.282   1
  -5   5   5 3175.08 234.047  -3
  -5   5   5 3175.08 234.047  -2
  -5   5   5 3175.08 234.047   1
  -5   5   4 7728.78 292.613  -3
  -5   5   4 7728.78 292.613  -2
  -5   5   4 7728.78 292.613   1
  -5   5   3 5566.90 238.181  -3
  -5   5   3 5566.90 238.181  -2
  -5   5   3 5566.90 238.181   1
  -5   5   2 4783.05 236.021  -3
  -5   5   2 4783.05 236.021  -2
  -5   5   2 4783.05 236.021   1
  -5   5   1 514.849 178.271  -3
  -5   5   1 514.849 178.271  -2
  -5   5   1 514.849 178.271   1
  -5   5   0 2027.61 181.067  -3
  -5   5   0 2027.61 181.067  -2
  -5   5   0 2027.61 181.067   1
   5   5   1 8302.83 295.753  -3
   5   5   1 8302.83 295.753  -2
   5   5   1 8302.83 295.753   1
   5   5   2 11017.8 447.860  -3
   5   5   2 11017.8 447.860  -2
   5   5   2 11017.8 447.860   1
   5   5   3 6622.10 386.472  -3
   5   5   3 6622.10 386.472  -2
   5   5   3 6622.10 386.472   1
   5   5   4 155.014 165.580  -3
   5   5   4 155.014 165.580  -2
   5   5   4 155.014 165.580   1
   5   5   5 653.243 218.167  -3
   5   5   5 653.243 218.167  -2
   5   5   5 653.243 218.167   1
   5   5   6 3510.35 476.582  -3
   5   5   6 3510.35 476.582  -2
   5   5   6 3510.35 476.582   1
  -5   6   7 2695.90 533.363  -3
  -5   6   7 2695.90 533.363  -2
  -5   6   7 2695.90 533.363   1
  -5   6   6 3718.16 569.511  -3
  -5   6   6 3718.16 569.511  -2
  -5   6   6 3718.16 569.511   1
  -5   6   5 4313.33 560.431  -3
  -5   6   5 4313.33 560.431  -2
  -5   6   5 4313.33 560.431   1
  -5   6   4 224.074 162.519  -3
  -5   6   4 224.074 162.519  -2
  -5   6   4 224.074 162.519   1
  -5   6   3 114.494 143.706  -3
  -5   6   3 114.494 143.706  -2
  -5   6   3 114.494 143.706   1
   5   6  -2 2329.31 473.239  -3
   5   6  -2 2329.31 473.239  -2
   5   6  -2 2329.31 473.239   1
   5   6  -1 5829.68 464.330  -3
   5   6  -1 5829.68 464.330  -2
   5   6  -1 5829.68 464.330   1
   5   6   0 5618.76 455.614  -3
   5   6   0 5618.76 455.614  -2
   5   6   0 5618.76 455.614   1
   5   6   1 2309.42 350.922  -3
   5   6   1 2309.42 350.922  -2
   5   6   1 2309.42 350.922   1
   5   6   2 730.794 286.433  -3
   5   6   2 730.794 286.433  -2
   5   6   2 730.794 286.433   1
   5   6   3 4337.61 419.805  -3
   5   6   3 4337.61 419.805  -2
   5   6   3 4337.61 419.805   1
   5   6   4 4374.15 574.782  -3
   5   6   4 4374.15 574.782  -2
   5   6   4 4374.15 574.782   1
  -6  -6   3 3624.86 355.797  -3
  -6  -6   3 3624.86 355.797  -2
  -6  -6   3 3624.86 355.797   1
  -6  -6   2 6299.75 538.744  -3
  -6  -6   2 6299.75 538.744  -2
  -6  -6   2 6299.75 538.744   1
  -6  -6   1 2298.57 333.554  -3
  -6  -6   1 2298.57 333.554  -2
  -6  -6   1 2298.57 333.554   1
  -6  -6   0 257.773 261.419  -3
  -6  -6   0 257.773 261.419  -2
  -6  -6   0 257.773 261.419   1
  -6  -6  -1 268.209 261.267  -3
  -6  -6  -1 268.209 261.267  -2
  -6  -6  -1 268.209 261.267   1
  -6  -6  -2 3066.27 528.760  -3
  -6  -6  -2 3066.27 528.760  -2
  -6  -6  -2 3066.27 528.760   1
   6  -5  -9 2911.11 538.922  -3
   6  -5  -9 2911.11 538.922  -2
   6  -5  -9 2911.11 538.922   1
   6  -5  -8 1143.83 427.921  -3
   6  -5  -8 1143.83 427.921  -2
   6  -5  -8 1143.83 427.921   1
   6  -5  -7 194.872 355.836  -3
   6  -5  -7 194.872 355.836  -2
   6  -5  -7 194.872 355.836   1
   6  -5  -6 2107.34 502.808  -3
   6  -5  -6 2107.34 502.808  -2
   6  -5  -6 2107.34 502.808   1
   6  -5  -5 8192.97 455.852  -3
   6  -5  -5 8192.97 455.852  -2
   6  -5  -5 8192.97 455.852   1
  -6  -5   4 7750.09 322.770  -3
  -6  -5   4 7750.09 322.770  -2
  -6  -5   4 7750.09 322.770   1
  -6  -5   3 3992.44 255.804  -3
  -6  -5   3 3992.44 255.804  -2
  -6  -5   3 3992.44 255.804   1
  -6  -5   2 2.49165 172.119  -3
  -6  -5   2 2.49165 172.119  -2
  -6  -5   2 2.49165 172.119   1
  -6  -5   1 3673.25 290.727  -3
  -6  -5   1 3673.25 290.727  -2
  -6  -5   1 3673.25 290.727   1
   6  -5   0 7862.80 249.040  -3
   6  -5   0 7862.80 249.040  -2
   6  -5   0 7862.80 249.040   1
  -6  -5  -1 4459.65 214.586  -3
  -6  -5  -1 4459.65 214.586  -2
  -6  -5  -1 4459.65 214.586   1
   6  -5   2 4818.61 230.850  -3
   6  -5   2 4818.61 230.850  -2
   6  -5   2 4818.61 230.850   1
   6  -5   3-48.2886 156.757  -3
   6  -5   3-48.2886 156.757  -2
   6  -5   3-48.2886 156.757   1
   6  -5   4 635.498 184.842  -3
   6  -5   4 635.498 184.842  -2
   6  -5   4 635.498 184.842   1
   6  -5   5 3762.33 388.385  -3
   6  -5   5 3762.33 388.385  -2
   6  -5   5 3762.33 388.385   1
   6  -5   6 6520.09 686.279  -3
   6  -5   6 6520.09 686.279  -2
   6  -5   6 6520.09 686.279   1
   6  -4 -10 74.2675 314.727  -3
   6  -4 -10 74.2675 314.727  -2
   6  -4 -10 74.2675 314.727   1
   6  -4  -9 922.367 366.823  -3
   6  -4  -9 922.367 366.823  -2
   6  -4  -9 922.367 366.823   1
   6  -4  -8 6948.00 656.261  -3
   6  -4  -8 6948.00 656.261  -2
   6  -4  -8 6948.00 656.261   1
   6  -4  -7 10356.6 796.411  -3
   6  -4  -7 10356.6 796.411  -2
   6  -4  -7 10356.6 796.411   1
  -6  -4   6 6795.62 444.563  -3
  -6  -4   6 6795.62 444.563  -2
  -6  -4   6 6795.62 444.563   1
  -6  -4   5 97.3261 104.609  -3
  -6  -4   5 97.3261 104.609  -2
  -6  -4   5 97.3261 104.609   1
  -6  -4   4 537.362 149.451  -3
  -6  -4   4 537.362 149.451  -2
  -6  -4   4 537.362 149.451   1
  -6  -4   3 8007.95 279.977  -3
  -6  -4   3 8007.95 279.977  -2
  -6  -4   3 8007.95 279.977   1
  -6  -4   2 12050.5 374.121  -3
  -6  -4   2 12050.5 374.121  -2
  -6  -4   2 12050.5 374.121   1
   6  -4  -1 13904.5 304.402  -2
   6  -4  -1 13904.5 304.402   1
   6  -4  -1 16188.1 308.106  -3
   6  -4  -1 16188.1 308.106  -2
   6  -4  -1 16188.1 308.106   1
   6  -4   0 304.142 128.577  -2
   6  -4   0 304.142 128.577   1
  -6  -4   0 135.997 116.268  -3
  -6  -4   0 135.997 116.268  -2
  -6  -4   0 135.997 116.268   1
  -6  -4  -1 570.588 113.166  -3
  -6  -4  -1 570.588 113.166  -2
  -6  -4  -1 570.588 113.166   1
  -6  -4  -2 4806.65 206.411  -3
  -6  -4  -2 4806.65 206.411  -2
  -6  -4  -2 4806.65 206.411   1
  -6  -4  -3 11185.8 215.638  -3
  -6  -4  -3 11185.8 215.638  -2
  -6  -4  -3 11185.8 215.638   1
  -6  -4  -4 8194.95 225.038  -3
  -6  -4  -4 8194.95 225.038  -2
  -6  -4  -4 8194.95 225.038   1
  -6  -4  -5 2786.66 242.271  -3
  -6  -4  -5 2786.66 242.271  -2
  -6  -4  -5 2786.66 242.271   1
  -6  -4  -6 144.298 429.870  -3
  -6  -4  -6 144.298 429.870  -2
  -6  -4  -6 144.298 429.870   1
   6  -4   7 3177.79 545.233  -3
   6  -4   7 3177.79 545.233  -2
   6  -4   7 3177.79 545.233   1
   6  -3 -11 4250.41 451.714  -3
   6  -3 -11 4250.41 451.714  -2
   6  -3 -11 4250.41 451.714   1
   6  -3 -10 6443.30 533.980  -3
   6  -3 -10 6443.30 533.980  -2
   6  -3 -10 6443.30 533.980   1
   6  -3  -9 7872.57 587.696  -3
   6  -3  -9 7872.57 587.696  -2
   6  -3  -9 7872.57 587.696   1
   6  -3  -8 2618.85 410.154  -3
   6  -3  -8 2618.85 410.154  -2
   6  -3  -8 2618.85 410.154   1
   6  -3  -7 963.695 324.227  -3
   6  -3  -7 963.695 324.227  -2
   6  -3  -7 963.695 324.227   1
  -6  -3   6 15962.6 601.980  -3
  -6  -3   6 15962.6 601.980  -2
  -6  -3   6 15962.6 601.980   1
  -6  -3   5 17771.5 521.018  -3
  -6  -3   5 17771.5 521.018  -2
  -6  -3   5 17771.5 521.018   1
  -6  -3   4 3147.56 223.474  -3
  -6  -3   4 3147.56 223.474  -2
  -6  -3   4 3147.56 223.474   1
  -6  -3   3 8076.73 274.123  -3
  -6  -3   3 8076.73 274.123  -2
  -6  -3   3 8076.73 274.123   1
  -6  -3   2 593.459 147.795  -3
  -6  -3   2 593.459 147.795  -2
  -6  -3   2 593.459 147.795   1
   6  -3  -1 8034.78 241.857  -2
   6  -3  -1 8034.78 241.857   1
  -6  -3   1 9341.71 340.324  -3
  -6  -3   1 9341.71 340.324  -2
  -6  -3   1 9341.71 340.324   1
  -6  -3   0 16275.7 324.408  -3
  -6  -3   0 16275.7 324.408  -2
  -6  -3   0 16275.7 324.408   1
  -6  -3  -1 16072.8 340.458  -3
  -6  -3  -1 16072.8 340.458  -2
  -6  -3  -1 16072.8 340.458   1
  -6  -3  -2 7650.60 239.494  -3
  -6  -3  -2 7650.60 239.494  -2
  -6  -3  -2 7650.60 239.494   1
   6  -3   3 1041.07 93.9016  -3
   6  -3   3 1041.07 93.9016  -2
   6  -3   3 1041.07 93.9016   1
  -6  -3  -4 2507.14 159.605  -3
  -6  -3  -4 2507.14 159.605  -2
  -6  -3  -4 2507.14 159.605   1
   6  -3   5 13249.4 337.524  -3
   6  -3   5 13249.4 337.524  -2
   6  -3   5 13249.4 337.524   1
  -6  -3  -6 8115.85 360.616  -3
  -6  -3  -6 8115.85 360.616  -2
  -6  -3  -6 8115.85 360.616   1
   6  -3   7 3043.42 308.277  -3
   6  -3   7 3043.42 308.277  -2
   6  -3   7 3043.42 308.277   1
  -6  -3  -8 1404.99 465.514  -3
  -6  -3  -8 1404.99 465.514   1
   6  -3   8 1332.16 265.408  -3
   6  -3   8 1332.16 265.408  -2
   6  -3   8 1332.16 265.408   1
  -6  -2  11 2187.50 444.628  -3
  -6  -2  11 2187.50 444.628  -2
  -6  -2  11 2187.50 444.628   1
  -6  -2  10 148.851 183.467  -3
  -6  -2  10 148.851 183.467  -2
  -6  -2  10 148.851 183.467   1
  -6  -2   9 5822.12 340.122  -3
  -6  -2   9 5822.12 340.122  -2
  -6  -2   9 5822.12 340.122   1
  -6  -2   8 11588.9 446.642  -3
  -6  -2   8 11588.9 446.642  -2
  -6  -2   8 11588.9 446.642   1
  -6  -2   7 17440.2 773.279  -2
  -6  -2   7 17440.2 773.279   1
  -6  -2   7 21052.5 630.539  -3
  -6  -2   7 21052.5 630.539  -2
  -6  -2   7 21052.5 630.539   1
  -6  -2   6 10495.2 336.981  -3
  -6  -2   6 10495.2 336.981  -2
  -6  -2   6 10495.2 336.981   1
  -6  -2   5 2988.52 205.327  -3
  -6  -2   5 2988.52 205.327  -2
  -6  -2   5 2988.52 205.327   1
  -6  -2   4 4926.89 341.672  -3
  -6  -2   4 4926.89 341.672  -2
  -6  -2   4 4926.89 341.672   1
   6  -2  -3 10628.0 343.759  -3
   6  -2  -3 10628.0 343.759  -2
   6  -2  -3 10628.0 343.759   1
  -6  -2   2 29626.1 426.504  -3
  -6  -2   2 29626.1 426.504  -2
  -6  -2   2 29626.1 426.504   1
  -6  -2   1 18220.5 351.809  -3
  -6  -2   1 18220.5 351.809  -2
  -6  -2   1 18220.5 351.809   1
  -6  -2   0 2713.07 193.861  -3
  -6  -2   0 2713.07 193.861  -2
  -6  -2   0 2713.07 193.861   1
  -6  -2  -1 2045.42 143.844  -3
  -6  -2  -1 2045.42 143.844  -2
  -6  -2  -1 2045.42 143.844   1
  -6  -2  -2 9961.96 196.458  -3
  -6  -2  -2 9961.96 196.458  -2
  -6  -2  -2 9961.96 196.458   1
  -6  -2  -3 18144.8 279.510  -3
  -6  -2  -3 18144.8 279.510  -2
  -6  -2  -3 18144.8 279.510   1
  -6  -2  -4 18996.5 321.481  -3
  -6  -2  -4 18996.5 321.481  -2
  -6  -2  -4 18996.5 321.481   1
  -6  -2  -5 2758.92 199.303  -3
  -6  -2  -5 2758.92 199.303  -2
  -6  -2  -5 2758.92 199.303   1
   6  -2   6 268.862 157.387  -3
   6  -2   6 268.862 157.387  -2
   6  -2   6 268.862 157.387   1
   6  -2   7 4219.46 358.114  -3
   6  -2   7 4219.46 358.114  -2
   6  -2   7 4219.46 358.114   1
   6  -2   8 6262.77 439.796  -3
   6  -2   8 6262.77 439.796  -2
   6  -2   8 6262.77 439.796   1
   6  -2   9 7103.42 481.388  -3
   6  -2   9 7103.42 481.388  -2
   6  -2   9 7103.42 481.388   1
   6  -2  10 5244.69 593.216  -3
   6  -2  10 5244.69 593.216  -2
   6  -2  10 5244.69 593.216   1
  -6  -1  11 7558.58 621.103  -3
  -6  -1  11 7558.58 621.103  -2
  -6  -1  11 7558.58 621.103   1
  -6  -1  10 12563.6 327.124  -3
  -6  -1  10 12563.6 327.124  -2
  -6  -1  10 12563.6 327.124   1
  -6  -1   9 7078.51 491.613  -2
  -6  -1   9 7078.51 491.613   1
  -6  -1   9 8662.06 313.769  -3
  -6  -1   9 8662.06 313.769  -2
  -6  -1   9 8662.06 313.769   1
  -6  -1   8 2528.37 319.594  -2
  -6  -1   8 2528.37 319.594   1
  -6  -1   8 2988.80 223.787  -3
  -6  -1   8 2988.80 223.787  -2
  -6  -1   8 2988.80 223.787   1
  -6  -1   7 673.432 224.362  -2
  -6  -1   7 673.432 224.362   1
  -6  -1   7 934.738 157.093  -3
  -6  -1   7 934.738 157.093  -2
  -6  -1   7 934.738 157.093   1
  -6  -1   6 9428.32 526.619  -2
  -6  -1   6 9428.32 526.619   1
  -6  -1   6 10978.9 282.939  -3
  -6  -1   6 10978.9 282.939  -2
  -6  -1   6 10978.9 282.939   1
  -6  -1   5 22586.6 767.251  -2
  -6  -1   5 22586.6 767.251   1
  -6  -1   5 28076.3 485.093  -3
  -6  -1   5 28076.3 485.093  -2
  -6  -1   5 28076.3 485.093   1
  -6  -1   4 32245.9 647.278  -3
  -6  -1   4 32245.9 647.278  -2
  -6  -1   4 32245.9 647.278   1
   6  -1  -3 6525.67 242.346  -2
   6  -1  -3 6525.67 242.346   1
   6  -1  -3 7446.48 317.744  -3
   6  -1  -3 7446.48 317.744  -2
   6  -1  -3 7446.48 317.744   1
   6  -1  -2 896.852 137.223  -3
   6  -1  -2 896.852 137.223  -2
   6  -1  -2 896.852 137.223   1
  -6  -1   1 20163.0 428.675  -3
  -6  -1   1 20163.0 428.675  -2
  -6  -1   1 20163.0 428.675   1
   6  -1   0 23944.8 311.607  -3
   6  -1   0 23944.8 311.607  -2
   6  -1   0 23944.8 311.607   1
  -6  -1  -1 24243.0 307.275  -3
  -6  -1  -1 24243.0 307.275  -2
  -6  -1  -1 24243.0 307.275   1
   6  -1   2 14726.2 262.608  -3
   6  -1   2 14726.2 262.608  -2
   6  -1   2 14726.2 262.608   1
   6  -1   3 510.305 311.835  -3
   6  -1   3 510.305 311.835   1
   6  -1   3 536.550 115.895  -3
   6  -1   3 536.550 115.895  -2
   6  -1   3 536.550 115.895   1
   6  -1   4 2808.92 433.752  -3
   6  -1   4 2808.92 433.752   1
  -6  -1  -4 3854.84 201.346  -3
  -6  -1  -4 3854.84 201.346  -2
  -6  -1  -4 3854.84 201.346   1
   6  -1   5 6559.67 596.268  -3
   6  -1   5 6559.67 596.268   1
  -6  -1  -5 10987.3 314.894  -3
  -6  -1  -5 10987.3 314.894  -2
  -6  -1  -5 10987.3 314.894   1
  -6  -1  -6 26334.0 490.602  -3
  -6  -1  -6 26334.0 490.602  -2
  -6  -1  -6 26334.0 490.602   1
   6  -1   7 7909.02 455.662  -3
   6  -1   7 7909.02 455.662  -2
   6  -1   7 7909.02 455.662   1
   6  -1   8 1281.28 217.845  -3
   6  -1   8 1281.28 217.845  -2
   6  -1   8 1281.28 217.845   1
   6  -1   9 394.564 249.543  -3
   6  -1   9 394.564 249.543  -2
   6  -1   9 394.564 249.543   1
   6  -1  10 5585.20 635.856  -3
   6  -1  10 5585.20 635.856  -2
   6  -1  10 5585.20 635.856   1
  -6   0  13 8000.25 656.104  -3
  -6   0  13 8000.25 656.104  -2
  -6   0  13 8000.25 656.104   1
  -6   0  12 7946.51 456.170  -3
  -6   0  12 7946.51 456.170  -2
  -6   0  12 7946.51 456.170   1
  -6   0  11 3418.35 495.602  -3
  -6   0  11 3418.35 495.602  -2
  -6   0  11 3418.35 495.602   1
  -6   0  10 190.308 185.815  -2
  -6   0  10 190.308 185.815   1
  -6   0  10-21.5569 314.955  -3
  -6   0  10-21.5569 314.955  -2
  -6   0  10-21.5569 314.955   1
  -6   0   9 7718.29 447.068  -2
  -6   0   9 7718.29 447.068   1
  -6   0   9 9782.77 637.923  -3
  -6   0   9 9782.77 637.923  -2
  -6   0   9 9782.77 637.923   1
  -6   0   8 6272.99 386.820  -2
  -6   0   8 6272.99 386.820   1
  -6   0   8 8846.24 573.854  -3
  -6   0   8 8846.24 573.854  -2
  -6   0   8 8846.24 573.854   1
   6   0  -7 10832.9 183.920   1
  -6   0   7 19440.7 646.194  -2
  -6   0   7 19440.7 646.194   1
  -6   0   7 23749.8 672.801  -3
  -6   0   7 23749.8 672.801  -2
  -6   0   7 23749.8 672.801   1
   6   0  -6 8962.26 246.311   1
  -6   0   6 12193.8 500.627  -2
  -6   0   6 12193.8 500.627   1
  -6   0   6 15063.4 516.397  -3
  -6   0   6 15063.4 516.397  -2
  -6   0   6 15063.4 516.397   1
  -6   0   5 6302.35 287.548  -3
  -6   0   5 6302.35 287.548  -2
  -6   0   5 6302.35 287.548   1
   6   0  -4 8351.15 404.686  -2
   6   0  -4 8351.15 404.686   1
  -6   0   4 9658.82 341.739  -3
  -6   0   4 9658.82 341.739  -2
  -6   0   4 9658.82 341.739   1
   6   0  -3 18228.5 540.328  -2
   6   0  -3 18228.5 540.328   1
  -6   0   3 21526.4 484.665  -3
  -6   0   3 21526.4 484.665  -2
  -6   0   3 21526.4 484.665   1
   6   0  -2 59310.6 550.738  -3
   6   0  -2 59310.6 550.738  -2
   6   0  -2 59310.6 550.738   1
   6   0  -1 12843.6 232.155  -3
   6   0  -1 12843.6 232.155  -2
   6   0  -1 12843.6 232.155   1
   6   0   0 8171.39 197.208  -3
   6   0   0 8171.39 197.208  -2
   6   0   0 8171.39 197.208   1
  -6   0  -1 2659.34 125.850  -3
  -6   0  -1 2659.34 125.850  -2
  -6   0  -1 2659.34 125.850   1
  -6   0  -2 14273.7 258.935  -3
  -6   0  -2 14273.7 258.935  -2
  -6   0  -2 14273.7 258.935   1
   6   0   3 16041.6 757.112  -3
   6   0   3 16041.6 757.112   1
  -6   0  -3 26780.0 424.222  -3
  -6   0  -3 26780.0 424.222  -2
  -6   0  -3 26780.0 424.222   1
   6   0   4 10775.2 665.860  -3
   6   0   4 10775.2 665.860   1
  -6   0  -4 17590.8 358.519  -3
  -6   0  -4 17590.8 358.519  -2
  -6   0  -4 17590.8 358.519   1
   6   0   5 5977.83 543.982  -3
   6   0   5 5977.83 543.982   1
   6   0   5 10472.0 306.040  -3
   6   0   5 10472.0 306.040  -2
   6   0   5 10472.0 306.040   1
  -6   0  -6 272.087 135.929  -3
  -6   0  -6 272.087 135.929  -2
  -6   0  -6 272.087 135.929   1
   6   0   7 11690.3 445.515  -3
   6   0   7 11690.3 445.515  -2
   6   0   7 11690.3 445.515   1
   6   0   8 12335.7 467.873  -3
   6   0   8 12335.7 467.873  -2
   6   0   8 12335.7 467.873   1
   6   0   9 11212.5 466.125  -3
   6   0   9 11212.5 466.125  -2
   6   0   9 11212.5 466.125   1
   6   0  10 3241.89 528.907  -3
   6   0  10 3241.89 528.907  -2
   6   0  10 3241.89 528.907   1
  -6   1  12 847.573 249.650  -3
  -6   1  12 847.573 249.650  -2
  -6   1  12 847.573 249.650   1
  -6   1  11 7410.93 420.907  -3
  -6   1  11 7410.93 420.907  -2
  -6   1  11 7410.93 420.907   1
  -6   1  10 10505.5 452.284  -2
  -6   1  10 10505.5 452.284   1
  -6   1  10 12230.1 474.499  -3
  -6   1  10 12230.1 474.499  -2
  -6   1  10 12230.1 474.499   1
  -6   1   9 7522.96 367.983  -2
  -6   1   9 7522.96 367.983   1
  -6   1   9 8230.83 383.051  -3
  -6   1   9 8230.83 383.051  -2
  -6   1   9 8230.83 383.051   1
  -6   1   8 2366.69 220.246  -2
  -6   1   8 2366.69 220.246   1
  -6   1   8 3192.02 409.031  -3
  -6   1   8 3192.02 409.031  -2
  -6   1   8 3192.02 409.031   1
  -6   1   7 534.231 143.999  -2
  -6   1   7 534.231 143.999   1
  -6   1   7 818.316 221.212  -3
  -6   1   7 818.316 221.212  -2
  -6   1   7 818.316 221.212   1
  -6   1   6 10935.4 429.360  -3
  -6   1   6 10935.4 429.360  -2
  -6   1   6 10935.4 429.360   1
   6   1  -5 13056.9 224.057   1
   6   1  -5 25945.3 869.853  -2
   6   1  -5 25945.3 869.853   1
  -6   1   5 29858.1 720.479  -3
  -6   1   5 29858.1 720.479  -2
  -6   1   5 29858.1 720.479   1
   6   1  -4 15213.2 334.686   1
   6   1  -4 27333.7 816.076  -2
   6   1  -4 27333.7 816.076   1
  -6   1   4 31969.3 670.065  -3
  -6   1   4 31969.3 670.065  -2
  -6   1   4 31969.3 670.065   1
  -6   1   3 8022.33 168.372  -3
  -6   1   3 8022.33 168.372  -2
  -6   1   3 8022.33 168.372   1
   6   1  -2 810.114 66.8088  -3
   6   1  -2 810.114 66.8088  -2
   6   1  -2 810.114 66.8088   1
   6   1  -1 20659.9 270.125  -3
   6   1  -1 20659.9 270.125  -2
   6   1  -1 20659.9 270.125   1
   6   1   0 23463.3 293.824  -3
   6   1   0 23463.3 293.824  -2
   6   1   0 23463.3 293.824   1
  -6   1  -1 23941.7 320.921  -3
  -6   1  -1 23941.7 320.921  -2
  -6   1  -1 23941.7 320.921   1
  -6   1  -2 13940.0 269.766  -3
  -6   1  -2 13940.0 269.766  -2
  -6   1  -2 13940.0 269.766   1
  -6   1  -3 699.722 144.403  -3
  -6   1  -3 699.722 144.403  -2
  -6   1  -3 699.722 144.403   1
   6   1   4 2467.40 366.045  -3
   6   1   4 2467.40 366.045   1
  -6   1  -4 3404.55 248.787  -3
  -6   1  -4 3404.55 248.787  -2
  -6   1  -4 3404.55 248.787   1
   6   1   5 6334.62 550.870  -3
   6   1   5 6334.62 550.870   1
  -6   1  -5 11497.9 374.767  -3
  -6   1  -5 11497.9 374.767  -2
  -6   1  -5 11497.9 374.767   1
  -6   1  -6 26316.3 531.818  -3
  -6   1  -6 26316.3 531.818  -2
  -6   1  -6 26316.3 531.818   1
  -6   1  -7 8382.26 370.495  -3
  -6   1  -7 8382.26 370.495  -2
  -6   1  -7 8382.26 370.495   1
   6   1   8 1340.52 296.171  -3
   6   1   8 1340.52 296.171  -2
   6   1   8 1340.52 296.171   1
   6   1   9 259.335 269.710  -3
   6   1   9 259.335 269.710  -2
   6   1   9 259.335 269.710   1
   6   1  10 6385.87 700.923  -3
   6   1  10 6385.87 700.923  -2
   6   1  10 6385.87 700.923   1
  -6   2  12 6438.85 664.145  -3
  -6   2  12 6438.85 664.145  -2
  -6   2  12 6438.85 664.145   1
  -6   2  11 2143.77 445.248  -3
  -6   2  11 2143.77 445.248  -2
  -6   2  11 2143.77 445.248   1
  -6   2  10-1.73833 147.583  -3
  -6   2  10-1.73833 147.583  -2
  -6   2  10-1.73833 147.583   1
  -6   2   9 3137.38 194.809   1
  -6   2   9 4403.57 259.635  -3
  -6   2   9 4403.57 259.635  -2
  -6   2   9 4403.57 259.635   1
  -6   2   8 6441.77 227.137   1
  -6   2   8 9827.97 305.382  -3
  -6   2   8 9827.97 305.382  -2
  -6   2   8 9827.97 305.382   1
  -6   2   7 20885.4 541.795  -3
  -6   2   7 20885.4 541.795  -2
  -6   2   7 20885.4 541.795   1
  -6   2   6 10911.0 446.049  -3
  -6   2   6 10911.0 446.049  -2
  -6   2   6 10911.0 446.049   1
   6   2  -5 3018.04 382.271  -2
   6   2  -5 3018.04 382.271   1
  -6   2   5 2983.86 219.820  -3
  -6   2   5 2983.86 219.820  -2
  -6   2   5 2983.86 219.820   1
   6   2  -4 2640.54 196.875  -3
   6   2  -4 2640.54 196.875   1
   6   2  -4 3840.97 189.371  -3
   6   2  -4 3840.97 189.371  -2
   6   2  -4 3840.97 189.371   1
   6   2  -3 7034.58 179.909  -3
   6   2  -3 7034.58 179.909   1
   6   2  -3 10816.4 212.626  -3
   6   2  -3 10816.4 212.626  -2
   6   2  -3 10816.4 212.626   1
   6   2  -2 17648.5 541.966  -3
   6   2  -2 17648.5 541.966   1
   6   2  -2 27702.7 464.504  -3
   6   2  -2 27702.7 464.504  -2
   6   2  -2 27702.7 464.504   1
   6   2  -1 11662.6 498.613  -3
   6   2  -1 11662.6 498.613   1
  -6   2   1 19149.7 386.511  -3
  -6   2   1 19149.7 386.511  -2
  -6   2   1 19149.7 386.511   1
   6   2   0 2549.67 174.108  -3
   6   2   0 2549.67 174.108  -2
   6   2   0 2549.67 174.108   1
  -6   2  -1 2125.97 120.446  -3
  -6   2  -1 2125.97 120.446  -2
  -6   2  -1 2125.97 120.446   1
   6   2   2 9362.84 262.267  -3
   6   2   2 9362.84 262.267  -2
   6   2   2 9362.84 262.267   1
   6   2   3 18178.5 445.973  -3
   6   2   3 18178.5 445.973  -2
   6   2   3 18178.5 445.973   1
   6   2   4 19804.4 553.222  -3
   6   2   4 19804.4 553.222  -2
   6   2   4 19804.4 553.222   1
   6   2   5 2860.92 273.904  -3
   6   2   5 2860.92 273.904  -2
   6   2   5 2860.92 273.904   1
   6   2   6 401.038 200.350  -3
   6   2   6 401.038 200.350  -2
   6   2   6 401.038 200.350   1
   6   2   7 4307.29 413.483  -3
   6   2   7 4307.29 413.483  -2
   6   2   7 4307.29 413.483   1
   6   2   8 7069.53 511.893  -3
   6   2   8 7069.53 511.893  -2
   6   2   8 7069.53 511.893   1
   6   2   9 7626.51 538.157  -3
   6   2   9 7626.51 538.157  -2
   6   2   9 7626.51 538.157   1
  -6   3  11 4356.27 558.270  -3
  -6   3  11 4356.27 558.270  -2
  -6   3  11 4356.27 558.270   1
  -6   3  10 6000.43 585.662  -3
  -6   3  10 6000.43 585.662  -2
  -6   3  10 6000.43 585.662   1
  -6   3   9 5922.43 559.434  -3
  -6   3   9 5922.43 559.434  -2
  -6   3   9 5922.43 559.434   1
  -6   3   8 2050.71 372.176  -3
  -6   3   8 2050.71 372.176  -2
  -6   3   8 2050.71 372.176   1
  -6   3   7 1131.05 294.005  -3
  -6   3   7 1131.05 294.005  -2
  -6   3   7 1131.05 294.005   1
  -6   3   6 15146.0 452.877  -3
  -6   3   6 15146.0 452.877  -2
  -6   3   6 15146.0 452.877   1
   6   3  -5 18767.2 421.525  -3
   6   3  -5 18767.2 421.525  -2
   6   3  -5 18767.2 421.525   1
   6   3  -4 1483.58 190.627  -3
   6   3  -4 1483.58 190.627   1
  -6   3   4 2218.90 181.735  -3
  -6   3   4 2218.90 181.735  -2
  -6   3   4 2218.90 181.735   1
   6   3  -3 5689.03 133.951  -3
   6   3  -3 5689.03 133.951   1
  -6   3   3 7442.03 278.185  -3
  -6   3   3 7442.03 278.185  -2
  -6   3   3 7442.03 278.185   1
   6   3  -2 445.494 186.754  -3
   6   3  -2 445.494 186.754   1
   6   3  -2 528.705 130.627  -3
   6   3  -2 528.705 130.627  -2
   6   3  -2 528.705 130.627   1
   6   3  -1 6043.35 396.663  -3
   6   3  -1 6043.35 396.663   1
   6   3  -1 8837.47 316.702  -3
   6   3  -1 8837.47 316.702  -2
   6   3  -1 8837.47 316.702   1
   6   3   0 11114.4 565.803  -3
   6   3   0 11114.4 565.803   1
   6   3   0 16730.7 417.873  -3
   6   3   0 16730.7 417.873  -2
   6   3   0 16730.7 417.873   1
  -6   3  -1 15956.7 380.646  -3
  -6   3  -1 15956.7 380.646  -2
  -6   3  -1 15956.7 380.646   1
   6   3   2 8031.80 262.729  -3
   6   3   2 8031.80 262.729  -2
   6   3   2 8031.80 262.729   1
   6   3   3 931.174 170.697  -3
   6   3   3 931.174 170.697  -2
   6   3   3 931.174 170.697   1
  -6   3  -4 2380.14 217.089  -3
  -6   3  -4 2380.14 217.089  -2
  -6   3  -4 2380.14 217.089   1
   6   3   5 13154.0 481.667  -3
   6   3   5 13154.0 481.667  -2
   6   3   5 13154.0 481.667   1
   6   3   6 9229.68 755.223  -3
   6   3   6 9229.68 755.223  -2
   6   3   6 9229.68 755.223   1
   6   3   7 2694.13 521.500  -3
   6   3   7 2694.13 521.500  -2
   6   3   7 2694.13 521.500   1
   6   3   8 1730.66 350.615  -3
   6   3   8 1730.66 350.615  -2
   6   3   8 1730.66 350.615   1
  -6   4  11 2487.74 474.473  -3
  -6   4  11 2487.74 474.473  -2
  -6   4  11 2487.74 474.473   1
  -6   4  10 392.051 334.707  -3
  -6   4  10 392.051 334.707  -2
  -6   4  10 392.051 334.707   1
  -6   4   9 1289.07 351.725  -3
  -6   4   9 1289.07 351.725  -2
  -6   4   9 1289.07 351.725   1
  -6   4   8 6026.25 544.438  -3
  -6   4   8 6026.25 544.438  -2
  -6   4   8 6026.25 544.438   1
  -6   4   7 9963.53 603.986  -3
  -6   4   7 9963.53 603.986  -2
  -6   4   7 9963.53 603.986   1
  -6   4   6 6926.96 379.437  -3
  -6   4   6 6926.96 379.437  -2
  -6   4   6 6926.96 379.437   1
  -6   4   5 178.866 144.516  -3
  -6   4   5 178.866 144.516  -2
  -6   4   5 178.866 144.516   1
  -6   4   4 593.962 126.041  -3
  -6   4   4 593.962 126.041  -2
  -6   4   4 593.962 126.041   1
  -6   4   3 3539.00 125.744   1
  -6   4   3 8721.54 270.416  -3
  -6   4   3 8721.54 270.416  -2
  -6   4   3 8721.54 270.416   1
  -6   4   2 11553.5 304.885  -3
  -6   4   2 11553.5 304.885  -2
  -6   4   2 11553.5 304.885   1
   6   4  -1 17014.5 358.630  -3
   6   4  -1 17014.5 358.630  -2
   6   4  -1 17014.5 358.630   1
   6   4   0 323.230 131.853  -3
   6   4   0 323.230 131.853  -2
   6   4   0 323.230 131.853   1
   6   4   1 412.263 171.343  -3
   6   4   1 412.263 171.343  -2
   6   4   1 412.263 171.343   1
  -6   4  -2 4876.30 295.145  -3
  -6   4  -2 4876.30 295.145  -2
  -6   4  -2 4876.30 295.145   1
   6   4   3 11538.4 358.661  -3
   6   4   3 11538.4 358.661  -2
   6   4   3 11538.4 358.661   1
  -6   4  -4 8167.64 324.982  -3
  -6   4  -4 8167.64 324.982  -2
  -6   4  -4 8167.64 324.982   1
   6   4   5 2862.18 276.508  -3
   6   4   5 2862.18 276.508  -2
   6   4   5 2862.18 276.508   1
   6   4   6-49.6413 373.723  -3
   6   4   6-49.6413 373.723  -2
   6   4   6-49.6413 373.723   1
  -6   5   8 536.850 299.222  -3
  -6   5   8 536.850 299.222  -2
  -6   5   8 536.850 299.222   1
  -6   5   7 118.485 253.380  -3
  -6   5   7 118.485 253.380  -2
  -6   5   7 118.485 253.380   1
  -6   5   6 2235.79 215.351  -3
  -6   5   6 2235.79 215.351  -2
  -6   5   6 2235.79 215.351   1
   6   5  -5 8323.81 291.296  -3
   6   5  -5 8323.81 291.296  -2
   6   5  -5 8323.81 291.296   1
  -6   5   4 7537.55 241.402  -3
  -6   5   4 7537.55 241.402  -2
  -6   5   4 7537.55 241.402   1
  -6   5   3 4198.31 440.938  -3
  -6   5   3 4198.31 440.938  -2
  -6   5   3 4198.31 440.938   1
  -6   5   2 10.7769 125.330  -3
  -6   5   2 10.7769 125.330  -2
  -6   5   2 10.7769 125.330   1
   6   5  -1 3449.67 315.609  -3
   6   5  -1 3449.67 315.609  -2
   6   5  -1 3449.67 315.609   1
   6   5   0 8448.13 335.141  -3
   6   5   0 8448.13 335.141  -2
   6   5   0 8448.13 335.141   1
   6   5   1 4849.50 248.493  -3
   6   5   1 4849.50 248.493  -2
   6   5   1 4849.50 248.493   1
  -6   5  -2 5125.70 257.887  -3
  -6   5  -2 5125.70 257.887  -2
  -6   5  -2 5125.70 257.887   1
   6   5   3 52.4778 216.961  -3
   6   5   3 52.4778 216.961  -2
   6   5   3 52.4778 216.961   1
   6   5   4 421.749 167.171  -3
   6   5   4 421.749 167.171  -2
   6   5   4 421.749 167.171   1
   6   5   5 3573.40 478.402  -3
   6   5   5 3573.40 478.402  -2
   6   5   5 3573.40 478.402   1
   6   5   6 7688.58 643.068  -3
   6   5   6 7688.58 643.068  -2
   6   5   6 7688.58 643.068   1
   6   5   7 3354.13 524.503  -3
   6   5   7 3354.13 524.503  -2
   6   5   7 3354.13 524.503   1
  -6   6   6 2641.54 480.638  -3
  -6   6   6 2641.54 480.638  -2
  -6   6   6 2641.54 480.638   1
  -6   6   5 462.126 349.310  -3
  -6   6   5 462.126 349.310  -2
  -6   6   5 462.126 349.310   1
  -6   6   4 1729.80 382.854  -3
  -6   6   4 1729.80 382.854  -2
  -6   6   4 1729.80 382.854   1
  -6   6   3 3706.20 410.784  -3
  -6   6   3 3706.20 410.784  -2
  -6   6   3 3706.20 410.784   1
   6   6  -2 6243.49 661.601  -3
   6   6  -2 6243.49 661.601  -2
   6   6  -2 6243.49 661.601   1
   6   6  -1 3080.25 531.885  -3
   6   6  -1 3080.25 531.885  -2
   6   6  -1 3080.25 531.885   1
   6   6   0 517.632 385.975  -3
   6   6   0 517.632 385.975  -2
   6   6   0 517.632 385.975   1
   6   6   1 122.808 362.293  -3
   6   6   1 122.808 362.293  -2
   6   6   1 122.808 362.293   1
   6   6   2 1787.46 465.967  -3
   6   6   2 1787.46 465.967  -2
   6   6   2 1787.46 465.967   1
  -7  -6   2 2705.23 463.147  -3
  -7  -6   2 2705.23 463.147  -2
  -7  -6   2 2705.23 463.147   1
  -7  -6   1 200.016 394.230  -3
  -7  -6   1 200.016 394.230  -2
  -7  -6   1 200.016 394.230   1
  -7  -6   0 486.991 413.028  -3
  -7  -6   0 486.991 413.028  -2
  -7  -6   0 486.991 413.028   1
  -7  -6  -1 2732.85 521.638  -3
  -7  -6  -1 2732.85 521.638  -2
  -7  -6  -1 2732.85 521.638   1
   7  -5  -8 172.671 372.564  -3
   7  -5  -8 172.671 372.564  -2
   7  -5  -8 172.671 372.564   1
   7  -5  -7 5250.21 656.529  -3
   7  -5  -7 5250.21 656.529  -2
   7  -5  -7 5250.21 656.529   1
   7  -5  -6 7941.71 744.233  -3
   7  -5  -6 7941.71 744.233  -2
   7  -5  -6 7941.71 744.233   1
   7  -5  -5 3535.00 557.840  -3
   7  -5  -5 3535.00 557.840  -2
   7  -5  -5 3535.00 557.840   1
   7  -5  -4 1313.23 437.491  -3
   7  -5  -4 1313.23 437.491  -2
   7  -5  -4 1313.23 437.491   1
  -7  -5   3 596.569 185.686  -3
  -7  -5   3 596.569 185.686  -2
  -7  -5   3 596.569 185.686   1
  -7  -5   2 2881.51 251.137  -3
  -7  -5   2 2881.51 251.137  -2
  -7  -5   2 2881.51 251.137   1
  -7  -5   1 6979.05 313.817  -3
  -7  -5   1 6979.05 313.817  -2
  -7  -5   1 6979.05 313.817   1
   7  -5   0 3678.70 258.093  -3
   7  -5   0 3678.70 258.093  -2
   7  -5   0 3678.70 258.093   1
  -7  -5  -1 3436.27 249.394  -3
  -7  -5  -1 3436.27 249.394  -2
  -7  -5  -1 3436.27 249.394   1
  -7  -5  -2 287.261 220.328  -3
  -7  -5  -2 287.261 220.328  -2
  -7  -5  -2 287.261 220.328   1
  -7  -5  -3 3148.22 319.413  -3
  -7  -5  -3 3148.22 319.413  -2
  -7  -5  -3 3148.22 319.413   1
  -7  -5  -4 4993.50 412.674  -3
  -7  -5  -4 4993.50 412.674  -2
  -7  -5  -4 4993.50 412.674   1
   7  -5   5 4557.50 557.680  -3
   7  -5   5 4557.50 557.680  -2
   7  -5   5 4557.50 557.680   1
   7  -5   6 1258.29 445.906  -3
   7  -5   6 1258.29 445.906  -2
   7  -5   6 1258.29 445.906   1
   7  -4 -10 1606.47 404.523  -3
   7  -4 -10 1606.47 404.523  -2
   7  -4 -10 1606.47 404.523   1
   7  -4  -9 5360.03 575.794  -3
   7  -4  -9 5360.03 575.794  -2
   7  -4  -9 5360.03 575.794   1
   7  -4  -8 8004.03 684.524  -3
   7  -4  -8 8004.03 684.524  -2
   7  -4  -8 8004.03 684.524   1
   7  -4  -7 5311.96 585.995  -3
   7  -4  -7 5311.96 585.995  -2
   7  -4  -7 5311.96 585.995   1
   7  -4  -6 303.608 319.133  -3
   7  -4  -6 303.608 319.133  -2
   7  -4  -6 303.608 319.133   1
  -7  -4   5 1281.16 181.348  -3
  -7  -4   5 1281.16 181.348  -2
  -7  -4   5 1281.16 181.348   1
  -7  -4   4 9809.25 311.220  -3
  -7  -4   4 9809.25 311.220  -2
  -7  -4   4 9809.25 311.220   1
  -7  -4   3 16576.2 389.156  -3
  -7  -4   3 16576.2 389.156  -2
  -7  -4   3 16576.2 389.156   1
  -7  -4   2 5243.70 293.744  -3
  -7  -4   2 5243.70 293.744  -2
  -7  -4   2 5243.70 293.744   1
   7  -4  -1 247.799 69.4565   1
   7  -4  -1 586.439 186.194  -3
   7  -4  -1 586.439 186.194  -2
   7  -4  -1 586.439 186.194   1
   7  -4   0 1201.81 155.051  -2
   7  -4   0 1201.81 155.051   1
  -7  -4   0 1416.96 158.247  -3
  -7  -4   0 1416.96 158.247  -2
  -7  -4   0 1416.96 158.247   1
  -7  -4  -1 5319.01 202.927  -3
  -7  -4  -1 5319.01 202.927  -2
  -7  -4  -1 5319.01 202.927   1
  -7  -4  -2 12083.4 360.533  -3
  -7  -4  -2 12083.4 360.533  -2
  -7  -4  -2 12083.4 360.533   1
  -7  -4  -3 7758.63 284.304  -3
  -7  -4  -3 7758.63 284.304  -2
  -7  -4  -3 7758.63 284.304   1
  -7  -4  -4 996.130 171.031  -3
  -7  -4  -4 996.130 171.031  -2
  -7  -4  -4 996.130 171.031   1
  -7  -4  -5 574.451 395.394  -3
  -7  -4  -5 574.451 395.394   1
  -7  -4  -5 748.914 218.269  -3
  -7  -4  -5 748.914 218.269  -2
  -7  -4  -5 748.914 218.269   1
   7  -4   6 4052.77 410.000  -3
   7  -4   6 4052.77 410.000  -2
   7  -4   6 4052.77 410.000   1
   7  -4   7 4885.06 460.510  -3
   7  -4   7 4885.06 460.510  -2
   7  -4   7 4885.06 460.510   1
   7  -3 -10 4236.89 450.435  -3
   7  -3 -10 4236.89 450.435  -2
   7  -3 -10 4236.89 450.435   1
  -7  -3   9 2652.40 299.292  -3
  -7  -3   9 2652.40 299.292  -2
  -7  -3   9 2652.40 299.292   1
   7  -3  -8 1326.30 347.579  -3
   7  -3  -8 1326.30 347.579  -2
   7  -3  -8 1326.30 347.579   1
   7  -3  -7 4207.72 477.236  -3
   7  -3  -7 4207.72 477.236  -2
   7  -3  -7 4207.72 477.236   1
   7  -3  -6 15339.6 796.972  -3
   7  -3  -6 15339.6 796.972  -2
   7  -3  -6 15339.6 796.972   1
  -7  -3   5 10857.9 501.357  -3
  -7  -3   5 10857.9 501.357  -2
  -7  -3   5 10857.9 501.357   1
   7  -3  -4 11000.4 415.657  -3
   7  -3  -4 11000.4 415.657  -2
   7  -3  -4 11000.4 415.657   1
  -7  -3   3 260.049 264.884  -3
  -7  -3   3 260.049 264.884   1
  -7  -3   3 124.910 152.377  -3
  -7  -3   3 124.910 152.377  -2
  -7  -3   3 124.910 152.377   1
  -7  -3   2 14511.2 345.157  -3
  -7  -3   2 14511.2 345.157  -2
  -7  -3   2 14511.2 345.157   1
  -7  -3   1 22275.4 428.851  -3
  -7  -3   1 22275.4 428.851  -2
  -7  -3   1 22275.4 428.851   1
  -7  -3   0 9482.17 331.204  -3
  -7  -3   0 9482.17 331.204  -2
  -7  -3   0 9482.17 331.204   1
  -7  -3  -1 11026.9 336.733  -3
  -7  -3  -1 11026.9 336.733  -2
  -7  -3  -1 11026.9 336.733   1
  -7  -3  -2 235.348 130.443  -3
  -7  -3  -2 235.348 130.443  -2
  -7  -3  -2 235.348 130.443   1
  -7  -3  -3 4254.22 236.947  -3
  -7  -3  -3 4254.22 236.947  -2
  -7  -3  -3 4254.22 236.947   1
  -7  -3  -4 13709.8 301.760  -3
  -7  -3  -4 13709.8 301.760  -2
  -7  -3  -4 13709.8 301.760   1
  -7  -3  -5 9772.49 754.342  -3
  -7  -3  -5 9772.49 754.342   1
  -7  -3  -5 11228.3 349.714  -3
  -7  -3  -5 11228.3 349.714  -2
  -7  -3  -5 11228.3 349.714   1
  -7  -3  -6 3264.80 539.552  -3
  -7  -3  -6 3264.80 539.552   1
  -7  -3  -6 3771.93 398.231  -3
  -7  -3  -6 3771.93 398.231  -2
  -7  -3  -6 3771.93 398.231   1
   7  -3   7 346.199 383.804  -3
   7  -3   7 346.199 383.804  -2
   7  -3   7 346.199 383.804   1
  -7  -2  10 2692.05 261.077  -3
  -7  -2  10 2692.05 261.077  -2
  -7  -2  10 2692.05 261.077   1
  -7  -2   9 11229.3 437.354  -3
  -7  -2   9 11229.3 437.354  -2
  -7  -2   9 11229.3 437.354   1
  -7  -2   8 11635.9 447.149  -3
  -7  -2   8 11635.9 447.149  -2
  -7  -2   8 11635.9 447.149   1
  -7  -2   7 7216.73 545.601  -2
  -7  -2   7 7216.73 545.601   1
   7  -2  -7 8675.47 527.746  -3
   7  -2  -7 8675.47 527.746  -2
   7  -2  -7 8675.47 527.746   1
  -7  -2   6 515.897 207.001  -3
  -7  -2   6 515.897 207.001  -2
  -7  -2   6 515.897 207.001   1
  -7  -2   5 2610.37 230.519  -3
  -7  -2   5 2610.37 230.519  -2
  -7  -2   5 2610.37 230.519   1
  -7  -2   4 12484.2 410.455  -3
  -7  -2   4 12484.2 410.455  -2
  -7  -2   4 12484.2 410.455   1
   7  -2  -3 44023.6 689.211  -3
   7  -2  -3 44023.6 689.211  -2
   7  -2  -3 44023.6 689.211   1
  -7  -2   2 15909.3 422.079  -3
  -7  -2   2 15909.3 422.079  -2
  -7  -2   2 15909.3 422.079   1
   7  -2  -1 448.303 176.568  -3
   7  -2  -1 448.303 176.568  -2
   7  -2  -1 448.303 176.568   1
  -7  -2   0 1104.06 155.331  -3
  -7  -2   0 1104.06 155.331  -2
  -7  -2   0 1104.06 155.331   1
  -7  -2  -1 21847.3 388.772  -3
  -7  -2  -1 21847.3 388.772  -2
  -7  -2  -1 21847.3 388.772   1
  -7  -2  -2 24718.6 384.691  -3
  -7  -2  -2 24718.6 384.691  -2
  -7  -2  -2 24718.6 384.691   1
   7  -2   3 15573.6 280.937  -3
   7  -2   3 15573.6 280.937  -2
   7  -2   3 15573.6 280.937   1
  -7  -2  -4 2164.74 164.567  -3
  -7  -2  -4 2164.74 164.567  -2
  -7  -2  -4 2164.74 164.567   1
  -7  -2  -5 1507.67 187.767  -3
  -7  -2  -5 1507.67 187.767  -2
  -7  -2  -5 1507.67 187.767   1
   7  -2   6 6654.90 346.204  -3
   7  -2   6 6654.90 346.204  -2
   7  -2   6 6654.90 346.204   1
   7  -2   7 11214.8 511.890  -3
   7  -2   7 11214.8 511.890  -2
   7  -2   7 11214.8 511.890   1
   7  -2   8 10625.3 533.493  -3
   7  -2   8 10625.3 533.493  -2
   7  -2   8 10625.3 533.493   1
  -7  -1  11 13121.2 748.738  -3
  -7  -1  11 13121.2 748.738  -2
  -7  -1  11 13121.2 748.738   1
  -7  -1  10 10014.2 662.581  -3
  -7  -1  10 10014.2 662.581  -2
  -7  -1  10 10014.2 662.581   1
   7  -1  -9 1184.44 145.499  -2
   7  -1  -9 1184.44 145.499   1
  -7  -1   9 1490.16 354.742  -3
  -7  -1   9 1490.16 354.742  -2
  -7  -1   9 1490.16 354.742   1
   7  -1  -8 628.574 132.136  -2
   7  -1  -8 628.574 132.136   1
  -7  -1   8 582.611 315.352  -3
  -7  -1   8 582.611 315.352  -2
  -7  -1   8 582.611 315.352   1
   7  -1  -7 15188.7 404.909  -2
   7  -1  -7 15188.7 404.909   1
  -7  -1   7 19404.4 525.245  -3
  -7  -1   7 19404.4 525.245  -2
  -7  -1   7 19404.4 525.245   1
  -7  -1   6 16799.7 393.320  -3
  -7  -1   6 16799.7 393.320  -2
  -7  -1   6 16799.7 393.320   1
  -7  -1   5 22174.4 667.530  -3
  -7  -1   5 22174.4 667.530  -2
  -7  -1   5 22174.4 667.530   1
   7  -1  -4 4244.41 230.034  -2
   7  -1  -4 4244.41 230.034   1
  -7  -1   4 4209.49 264.586  -3
  -7  -1   4 4209.49 264.586  -2
  -7  -1   4 4209.49 264.586   1
   7  -1  -3 467.477 122.864  -2
   7  -1  -3 467.477 122.864   1
   7  -1  -3 706.887 157.088  -3
   7  -1  -3 706.887 157.088  -2
   7  -1  -3 706.887 157.088   1
   7  -1  -2 18099.1 436.676  -3
   7  -1  -2 18099.1 436.676  -2
   7  -1  -2 18099.1 436.676   1
  -7  -1   1 22162.4 472.885  -3
  -7  -1   1 22162.4 472.885  -2
  -7  -1   1 22162.4 472.885   1
   7  -1   0 35078.9 382.038  -3
   7  -1   0 35078.9 382.038  -2
   7  -1   0 35078.9 382.038   1
  -7  -1  -1 8846.01 204.329  -3
  -7  -1  -1 8846.01 204.329  -2
  -7  -1  -1 8846.01 204.329   1
  -7  -1  -2 343.688 97.9889  -3
  -7  -1  -2 343.688 97.9889  -2
  -7  -1  -2 343.688 97.9889   1
   7  -1   3 9392.91 653.836  -3
   7  -1   3 9392.91 653.836   1
   7  -1   3 14784.9 285.665  -3
   7  -1   3 14784.9 285.665  -2
   7  -1   3 14784.9 285.665   1
  -7  -1  -4 14759.1 343.918  -3
  -7  -1  -4 14759.1 343.918  -2
  -7  -1  -4 14759.1 343.918   1
   7  -1   5 19270.9 409.361  -3
   7  -1   5 19270.9 409.361  -2
   7  -1   5 19270.9 409.361   1
  -7  -1  -6 5835.80 341.928  -3
  -7  -1  -6 5835.80 341.928  -2
  -7  -1  -6 5835.80 341.928   1
  -7  -1  -7 236.285 193.198  -3
  -7  -1  -7 236.285 193.198  -2
  -7  -1  -7 236.285 193.198   1
   7  -1   8 1332.14 283.112  -3
   7  -1   8 1332.14 283.112  -2
   7  -1   8 1332.14 283.112   1
   7  -1   9 9332.71 706.558  -3
   7  -1   9 9332.71 706.558  -2
   7  -1   9 9332.71 706.558   1
   7  -1  10 7637.84 678.653  -3
   7  -1  10 7637.84 678.653  -2
   7  -1  10 7637.84 678.653   1
  -7   0  12 2122.34 399.932  -3
  -7   0  12 2122.34 399.932  -2
  -7   0  12 2122.34 399.932   1
  -7   0  11 421.766 343.536  -3
  -7   0  11 421.766 343.536  -2
  -7   0  11 421.766 343.536   1
  -7   0  10 4310.98 363.542  -2
  -7   0  10 4310.98 363.542   1
  -7   0  10 5571.12 512.883  -3
  -7   0  10 5571.12 512.883  -2
  -7   0  10 5571.12 512.883   1
  -7   0   9 10491.9 503.039  -2
  -7   0   9 10491.9 503.039   1
  -7   0   9 13938.0 664.695  -3
  -7   0   9 13938.0 664.695  -2
  -7   0   9 13938.0 664.695   1
  -7   0   8 15474.1 610.518  -2
  -7   0   8 15474.1 610.518   1
  -7   0   8 20554.9 783.610  -3
  -7   0   8 20554.9 783.610  -2
  -7   0   8 20554.9 783.610   1
   7   0  -7 4468.12 163.655  -2
   7   0  -7 4468.12 163.655   1
  -7   0   7 8977.25 515.198  -3
  -7   0   7 8977.25 515.198  -2
  -7   0   7 8977.25 515.198   1
   7   0  -6 71.0005 79.0686  -2
   7   0  -6 71.0005 79.0686   1
  -7   0   6 28.9251 134.141  -3
  -7   0   6 28.9251 134.141  -2
  -7   0   6 28.9251 134.141   1
   7   0  -5 9263.84 448.411  -2
   7   0  -5 9263.84 448.411   1
   7   0  -5 9729.62 229.915  -3
   7   0  -5 9729.62 229.915  -2
   7   0  -5 9729.62 229.915   1
   7   0  -4 16221.3 533.299  -2
   7   0  -4 16221.3 533.299   1
   7   0  -4 17586.3 338.465  -3
   7   0  -4 17586.3 338.465  -2
   7   0  -4 17586.3 338.465   1
   7   0  -3 23509.4 646.096  -2
   7   0  -3 23509.4 646.096   1
   7   0  -3 27247.6 393.049  -3
   7   0  -3 27247.6 393.049  -2
   7   0  -3 27247.6 393.049   1
   7   0  -2 14445.5 271.114  -3
   7   0  -2 14445.5 271.114  -2
   7   0  -2 14445.5 271.114   1
   7   0  -1 930.503 96.4992  -3
   7   0  -1 930.503 96.4992  -2
   7   0  -1 930.503 96.4992   1
   7   0   0 2478.52 134.218  -3
   7   0   0 2478.52 134.218  -2
   7   0   0 2478.52 134.218   1
   7   0   1 22321.6 297.198  -3
   7   0   1 22321.6 297.198  -2
   7   0   1 22321.6 297.198   1
  -7   0  -2 31112.6 384.983  -3
  -7   0  -2 31112.6 384.983  -2
  -7   0  -2 31112.6 384.983   1
  -7   0  -3 14000.3 301.891  -3
  -7   0  -3 14000.3 301.891  -2
  -7   0  -3 14000.3 301.891   1
   7   0   4 1068.59 349.537  -3
   7   0   4 1068.59 349.537   1
  -7   0  -4 1821.28 160.825  -3
  -7   0  -4 1821.28 160.825  -2
  -7   0  -4 1821.28 160.825   1
   7   0   5 1066.02 169.368  -3
   7   0   5 1066.02 169.368  -2
   7   0   5 1066.02 169.368   1
  -7   0  -6 10844.5 398.874  -3
  -7   0  -6 10844.5 398.874  -2
  -7   0  -6 10844.5 398.874   1
  -7   0  -7 9803.89 546.729  -3
  -7   0  -7 9803.89 546.729  -2
  -7   0  -7 9803.89 546.729   1
   7   0   8 8852.14 485.135  -3
   7   0   8 8852.14 485.135  -2
   7   0   8 8852.14 485.135   1
   7   0   9 2207.66 458.728  -3
   7   0   9 2207.66 458.728  -2
   7   0   9 2207.66 458.728   1
  -7   1  12 2827.69 492.708  -3
  -7   1  12 2827.69 492.708  -2
  -7   1  12 2827.69 492.708   1
  -7   1  11 10241.3 457.457  -3
  -7   1  11 10241.3 457.457  -2
  -7   1  11 10241.3 457.457   1
  -7   1  10 6804.31 351.257  -2
  -7   1  10 6804.31 351.257   1
  -7   1  10 7280.79 362.059  -3
  -7   1  10 7280.79 362.059  -2
  -7   1  10 7280.79 362.059   1
  -7   1   9 1475.72 199.251  -2
  -7   1   9 1475.72 199.251   1
  -7   1   9 1876.60 342.279  -3
  -7   1   9 1876.60 342.279  -2
  -7   1   9 1876.60 342.279   1
  -7   1   8 655.994 268.340  -3
  -7   1   8 655.994 268.340  -2
  -7   1   8 655.994 268.340   1
  -7   1   7 16223.7 637.624  -3
  -7   1   7 16223.7 637.624  -2
  -7   1   7 16223.7 637.624   1
  -7   1   6 17198.1 450.968  -3
  -7   1   6 17198.1 450.968  -2
  -7   1   6 17198.1 450.968   1
   7   1  -5 9957.62 264.296   1
   7   1  -5 20702.2 775.173  -2
   7   1  -5 20702.2 775.173   1
  -7   1   5 20812.5 385.964  -3
  -7   1   5 20812.5 385.964  -2
  -7   1   5 20812.5 385.964   1
   7   1  -4 2813.79 199.413  -3
   7   1  -4 2813.79 199.413   1
   7   1  -4 3921.04 348.580  -2
   7   1  -4 3921.04 348.580   1
  -7   1   4 4640.49 195.604  -3
  -7   1   4 4640.49 195.604  -2
  -7   1   4 4640.49 195.604   1
   7   1  -3 386.937 160.115  -3
   7   1  -3 386.937 160.115   1
  -7   1   3 719.204 83.5632  -3
  -7   1   3 719.204 83.5632  -2
  -7   1   3 719.204 83.5632   1
   7   1  -2 8809.84 402.752  -3
   7   1  -2 8809.84 402.752   1
  -7   1   2 18052.8 321.260  -3
  -7   1   2 18052.8 321.260  -2
  -7   1   2 18052.8 321.260   1
   7   1  -1 9255.78 483.815  -3
   7   1  -1 9255.78 483.815   1
   7   1  -1 22504.6 340.601  -3
   7   1  -1 22504.6 340.601  -2
   7   1  -1 22504.6 340.601   1
   7   1   0 15684.7 674.390  -3
   7   1   0 15684.7 674.390   1
   7   1   0 32270.4 410.559  -3
   7   1   0 32270.4 410.559  -2
   7   1   0 32270.4 410.559   1
   7   1   1 4270.81 413.586  -3
   7   1   1 4270.81 413.586   1
  -7   1  -1 9013.51 219.585  -3
  -7   1  -1 9013.51 219.585  -2
  -7   1  -1 9013.51 219.585   1
   7   1   2 161.903 235.085  -3
   7   1   2 161.903 235.085   1
  -7   1  -2 341.370 96.9093  -3
  -7   1  -2 341.370 96.9093  -2
  -7   1  -2 341.370 96.9093   1
  -7   1  -3 13565.9 389.979  -3
  -7   1  -3 13565.9 389.979  -2
  -7   1  -3 13565.9 389.979   1
  -7   1  -4 14175.2 389.363  -3
  -7   1  -4 14175.2 389.363  -2
  -7   1  -4 14175.2 389.363   1
  -7   1  -5 18145.8 464.266  -3
  -7   1  -5 18145.8 464.266  -2
  -7   1  -5 18145.8 464.266   1
  -7   1  -6 5598.06 332.278  -3
  -7   1  -6 5598.06 332.278  -2
  -7   1  -6 5598.06 332.278   1
   7   1   7 273.622 321.777  -3
   7   1   7 273.622 321.777  -2
   7   1   7 273.622 321.777   1
   7   1   8 1145.04 415.803  -3
   7   1   8 1145.04 415.803  -2
   7   1   8 1145.04 415.803   1
   7   1   9 8824.26 742.818  -3
   7   1   9 8824.26 742.818  -2
   7   1   9 8824.26 742.818   1
  -7   2  12 1250.64 402.321  -3
  -7   2  12 1250.64 402.321  -2
  -7   2  12 1250.64 402.321   1
  -7   2  11 148.687 308.935  -3
  -7   2  11 148.687 308.935  -2
  -7   2  11 148.687 308.935   1
  -7   2  10 2930.37 437.964  -3
  -7   2  10 2930.37 437.964  -2
  -7   2  10 2930.37 437.964   1
  -7   2   9 9933.29 604.738  -3
  -7   2   9 9933.29 604.738  -2
  -7   2   9 9933.29 604.738   1
  -7   2   8 9419.37 564.773  -3
  -7   2   8 9419.37 564.773  -2
  -7   2   8 9419.37 564.773   1
  -7   2   7 7493.12 468.867  -3
  -7   2   7 7493.12 468.867  -2
  -7   2   7 7493.12 468.867   1
   7   2  -6 507.443 264.548  -2
   7   2  -6 507.443 264.548   1
  -7   2   6 501.582 170.686  -3
  -7   2   6 501.582 170.686  -2
  -7   2   6 501.582 170.686   1
   7   2  -5 1157.21 108.168   1
  -7   2   5 2167.88 188.038  -3
  -7   2   5 2167.88 188.038  -2
  -7   2   5 2167.88 188.038   1
   7   2  -4 7174.23 309.816  -3
   7   2  -4 7174.23 309.816   1
  -7   2   4 11129.2 216.983  -3
  -7   2   4 11129.2 216.983  -2
  -7   2   4 11129.2 216.983   1
   7   2  -3 27212.6 673.016  -3
   7   2  -3 27212.6 673.016   1
  -7   2   3 34417.2 339.753  -2
  -7   2   3 34417.2 339.753   1
   7   2  -3 43473.4 627.688  -3
   7   2  -3 43473.4 627.688  -2
   7   2  -3 43473.4 627.688   1
   7   2  -2 9342.19 451.749  -3
   7   2  -2 9342.19 451.749   1
  -7   2   2 14677.6 367.803  -3
  -7   2   2 14677.6 367.803  -2
  -7   2   2 14677.6 367.803   1
   7   2  -1 99.4265 171.516  -3
   7   2  -1 99.4265 171.516   1
   7   2  -1 265.791 137.534  -3
   7   2  -1 265.791 137.534  -2
   7   2  -1 265.791 137.534   1
   7   2   0 268.665 192.136  -3
   7   2   0 268.665 192.136   1
   7   2   0 768.208 188.108  -3
   7   2   0 768.208 188.108  -2
   7   2   0 768.208 188.108   1
   7   2   1 9351.59 569.275  -3
   7   2   1 9351.59 569.275   1
  -7   2  -1 19700.7 352.635  -3
  -7   2  -1 19700.7 352.635  -2
  -7   2  -1 19700.7 352.635   1
   7   2   2 11831.3 649.007  -3
   7   2   2 11831.3 649.007   1
  -7   2  -2 23530.1 505.417  -3
  -7   2  -2 23530.1 505.417  -2
  -7   2  -2 23530.1 505.417   1
   7   2   3 6868.78 575.563  -3
   7   2   3 6868.78 575.563   1
   7   2   3 15784.9 431.686  -3
   7   2   3 15784.9 431.686  -2
   7   2   3 15784.9 431.686   1
   7   2   4 2512.31 229.046  -3
   7   2   4 2512.31 229.046  -2
   7   2   4 2512.31 229.046   1
  -7   2  -5 1999.14 312.057  -3
  -7   2  -5 1999.14 312.057  -2
  -7   2  -5 1999.14 312.057   1
   7   2   6 6185.07 462.025  -3
   7   2   6 6185.07 462.025  -2
   7   2   6 6185.07 462.025   1
   7   2   7 10962.5 772.464  -3
   7   2   7 10962.5 772.464  -2
   7   2   7 10962.5 772.464   1
   7   2   8 9537.91 778.702  -3
   7   2   8 9537.91 778.702  -2
   7   2   8 9537.91 778.702   1
  -7   3  11 4047.95 515.458  -3
  -7   3  11 4047.95 515.458  -2
  -7   3  11 4047.95 515.458   1
  -7   3  10 3107.90 444.829  -3
  -7   3  10 3107.90 444.829  -2
  -7   3  10 3107.90 444.829   1
  -7   3   9 2353.07 384.204  -3
  -7   3   9 2353.07 384.204  -2
  -7   3   9 2353.07 384.204   1
  -7   3   8 1123.15 292.904  -3
  -7   3   8 1123.15 292.904  -2
  -7   3   8 1123.15 292.904   1
  -7   3   7 3998.72 377.166  -3
  -7   3   7 3998.72 377.166  -2
  -7   3   7 3998.72 377.166   1
   7   3  -6 13705.1 478.842  -3
   7   3  -6 13705.1 478.842  -2
   7   3  -6 13705.1 478.842   1
  -7   3   5 10223.7 335.657  -3
  -7   3   5 10223.7 335.657  -2
  -7   3   5 10223.7 335.657   1
   7   3  -4 7501.09 376.217  -3
   7   3  -4 7501.09 376.217   1
   7   3  -4 11105.0 395.501  -3
   7   3  -4 11105.0 395.501  -2
   7   3  -4 11105.0 395.501   1
   7   3  -3 140.994 156.885  -3
   7   3  -3 140.994 156.885   1
  -7   3   3 148.923 142.440  -3
  -7   3   3 148.923 142.440  -2
  -7   3   3 148.923 142.440   1
   7   3  -2 9336.40 472.970  -3
   7   3  -2 9336.40 472.970   1
   7   3  -2 13867.2 367.899  -3
   7   3  -2 13867.2 367.899  -2
   7   3  -2 13867.2 367.899   1
   7   3  -1 16093.6 675.081  -3
   7   3  -1 16093.6 675.081   1
   7   3  -1 24105.3 519.445  -3
   7   3  -1 24105.3 519.445  -2
   7   3  -1 24105.3 519.445   1
   7   3   0 5237.11 435.740  -3
   7   3   0 5237.11 435.740   1
   7   3   0 9026.94 337.327  -3
   7   3   0 9026.94 337.327  -2
   7   3   0 9026.94 337.327   1
   7   3   1 6401.13 509.406  -3
   7   3   1 6401.13 509.406   1
  -7   3  -1 12404.6 445.031  -3
  -7   3  -1 12404.6 445.031  -2
  -7   3  -1 12404.6 445.031   1
  -7   3  -2 262.530 153.078  -3
  -7   3  -2 262.530 153.078  -2
  -7   3  -2 262.530 153.078   1
   7   3   3 4478.26 262.599  -3
   7   3   3 4478.26 262.599  -2
   7   3   3 4478.26 262.599   1
   7   3   4 14217.8 427.896  -3
   7   3   4 14217.8 427.896  -2
   7   3   4 14217.8 427.896   1
  -7   3  -5 11736.0 477.652  -3
  -7   3  -5 11736.0 477.652  -2
  -7   3  -5 11736.0 477.652   1
   7   3   6 4035.33 560.505  -3
   7   3   6 4035.33 560.505  -2
   7   3   6 4035.33 560.505   1
   7   3   7 652.608 416.028  -3
   7   3   7 652.608 416.028  -2
   7   3   7 652.608 416.028   1
  -7   4   9 5265.93 499.197  -3
  -7   4   9 5265.93 499.197  -2
  -7   4   9 5265.93 499.197   1
  -7   4   8 6712.79 510.665  -3
  -7   4   8 6712.79 510.665  -2
  -7   4   8 6712.79 510.665   1
  -7   4   7 4922.14 418.875  -3
  -7   4   7 4922.14 418.875  -2
  -7   4   7 4922.14 418.875   1
   7   4  -6 102.141 170.616  -3
   7   4  -6 102.141 170.616  -2
   7   4  -6 102.141 170.616   1
   7   4  -5 902.465 137.576  -3
   7   4  -5 902.465 137.576  -2
   7   4  -5 902.465 137.576   1
   7   4  -4 6864.66 392.371  -3
   7   4  -4 6864.66 392.371   1
   7   4  -4 9177.40 423.268  -3
   7   4  -4 9177.40 423.268  -2
   7   4  -4 9177.40 423.268   1
   7   4  -3 12579.7 548.730  -3
   7   4  -3 12579.7 548.730   1
  -7   4   3 16355.1 523.022  -3
  -7   4   3 16355.1 523.022  -2
  -7   4   3 16355.1 523.022   1
   7   4  -2 4503.26 382.534  -3
   7   4  -2 4503.26 382.534   1
  -7   4   2 5399.34 283.259  -3
  -7   4   2 5399.34 283.259  -2
  -7   4   2 5399.34 283.259   1
   7   4  -1 633.457 234.913  -3
   7   4  -1 633.457 234.913   1
   7   4  -1 710.981 170.866  -3
   7   4  -1 710.981 170.866  -2
   7   4  -1 710.981 170.866   1
   7   4   0 1607.04 197.471  -3
   7   4   0 1607.04 197.471  -2
   7   4   0 1607.04 197.471   1
   7   4   1 6268.56 296.770  -3
   7   4   1 6268.56 296.770  -2
   7   4   1 6268.56 296.770   1
   7   4   2 12768.2 451.178  -3
   7   4   2 12768.2 451.178  -2
   7   4   2 12768.2 451.178   1
   7   4   3 7636.15 318.687  -3
   7   4   3 7636.15 318.687  -2
   7   4   3 7636.15 318.687   1
   7   4   4 776.588 185.670  -3
   7   4   4 776.588 185.670  -2
   7   4   4 776.588 185.670   1
   7   4   5 851.569 290.435  -3
   7   4   5 851.569 290.435  -2
   7   4   5 851.569 290.435   1
   7   4   6 3981.90 406.718  -3
   7   4   6 3981.90 406.718  -2
   7   4   6 3981.90 406.718   1
   7   4   7 4511.60 636.052  -3
   7   4   7 4511.60 636.052  -2
   7   4   7 4511.60 636.052   1
  -7   5   7 4784.42 609.464  -3
  -7   5   7 4784.42 609.464  -2
  -7   5   7 4784.42 609.464   1
  -7   5   6 6447.69 649.877  -3
  -7   5   6 6447.69 649.877  -2
  -7   5   6 6447.69 649.877   1
   7   5  -5 3819.97 303.447  -3
   7   5  -5 3819.97 303.447  -2
   7   5  -5 3819.97 303.447   1
  -7   5   4 1374.88 276.927  -3
  -7   5   4 1374.88 276.927  -2
  -7   5   4 1374.88 276.927   1
   7   5  -3 437.112 215.136  -3
   7   5  -3 437.112 215.136   1
  -7   5   3 217.694 206.484  -3
  -7   5   3 217.694 206.484  -2
  -7   5   3 217.694 206.484   1
  -7   5   2 2946.08 204.527  -3
  -7   5   2 2946.08 204.527  -2
  -7   5   2 2946.08 204.527   1
   7   5  -1 7794.49 354.354  -3
   7   5  -1 7794.49 354.354  -2
   7   5  -1 7794.49 354.354   1
   7   5   0 4592.76 292.642  -3
   7   5   0 4592.76 292.642  -2
   7   5   0 4592.76 292.642   1
   7   5   1 3767.39 274.200  -3
   7   5   1 3767.39 274.200  -2
   7   5   1 3767.39 274.200   1
   7   5   2-0.30402 170.806  -3
   7   5   2-0.30402 170.806  -2
   7   5   2-0.30402 170.806   1
  -7   5  -3 3087.86 239.168  -3
  -7   5  -3 3087.86 239.168  -2
  -7   5  -3 3087.86 239.168   1
   7   5   4 5231.74 412.228  -3
   7   5   4 5231.74 412.228  -2
   7   5   4 5231.74 412.228   1
   7   5   5 5326.46 566.982  -3
   7   5   5 5326.46 566.982  -2
   7   5   5 5326.46 566.982   1
   7   5   6 1281.36 440.206  -3
   7   5   6 1281.36 440.206  -2
   7   5   6 1281.36 440.206   1
  -8  -6   1 218.566 431.904  -3
  -8  -6   1 218.566 431.904  -2
  -8  -6   1 218.566 431.904   1
  -8  -6   0 2107.76 523.512  -3
  -8  -6   0 2107.76 523.512  -2
  -8  -6   0 2107.76 523.512   1
   8  -5  -7 4176.87 593.510  -3
   8  -5  -7 4176.87 593.510  -2
   8  -5  -7 4176.87 593.510   1
   8  -5  -6 2340.65 495.717  -3
   8  -5  -6 2340.65 495.717  -2
   8  -5  -6 2340.65 495.717   1
   8  -5  -5 2376.93 491.441  -3
   8  -5  -5 2376.93 491.441  -2
   8  -5  -5 2376.93 491.441   1
   8  -5  -4 863.932 383.908  -3
   8  -5  -4 863.932 383.908  -2
   8  -5  -4 863.932 383.908   1
  -8  -5   3 2792.57 389.713  -3
  -8  -5   3 2792.57 389.713   1
   8  -5  -3 3115.70 497.193  -3
   8  -5  -3 3115.70 497.193  -2
   8  -5  -3 3115.70 497.193   1
  -8  -5   2 3980.36 450.532  -3
  -8  -5   2 3980.36 450.532   1
   8  -5  -2 4835.47 573.066  -3
   8  -5  -2 4835.47 573.066  -2
   8  -5  -2 4835.47 573.066   1
  -8  -5   1 4022.17 486.905  -3
  -8  -5   1 4022.17 486.905   1
  -8  -5   0 2251.74 432.954  -3
  -8  -5   0 2251.74 432.954   1
  -8  -5  -1-54.8216 322.323  -3
  -8  -5  -1-54.8216 322.323   1
  -8  -5  -2 2589.12 472.254  -3
  -8  -5  -2 2589.12 472.254   1
   8  -4  -9 3218.78 485.407  -3
   8  -4  -9 3218.78 485.407  -2
   8  -4  -9 3218.78 485.407   1
   8  -4  -8 1865.47 430.350  -3
   8  -4  -8 1865.47 430.350  -2
   8  -4  -8 1865.47 430.350   1
   8  -4  -7-28.0311 334.168  -3
   8  -4  -7-28.0311 334.168  -2
   8  -4  -7-28.0311 334.168   1
   8  -4  -6 2776.73 335.564  -3
   8  -4  -6 2776.73 335.564  -2
   8  -4  -6 2776.73 335.564   1
   8  -4  -5 3577.31 361.064  -3
   8  -4  -5 3577.31 361.064  -2
   8  -4  -5 3577.31 361.064   1
  -8  -4   4 10370.9 525.617  -3
  -8  -4   4 10370.9 525.617   1
  -8  -4   4 10428.7 518.341  -3
  -8  -4   4 10428.7 518.341  -2
  -8  -4   4 10428.7 518.341   1
  -8  -4   3 2817.20 386.247  -3
  -8  -4   3 2817.20 386.247   1
  -8  -4   3 3286.49 338.275  -3
  -8  -4   3 3286.49 338.275  -2
  -8  -4   3 3286.49 338.275   1
  -8  -4   2 1119.56 345.320  -3
  -8  -4   2 1119.56 345.320   1
   8  -4  -2 600.549 247.964  -3
   8  -4  -2 600.549 247.964  -2
   8  -4  -2 600.549 247.964   1
  -8  -4   1 1106.96 351.755  -3
  -8  -4   1 1106.96 351.755   1
   8  -4  -1 1045.31 262.656  -3
   8  -4  -1 1045.31 262.656  -2
   8  -4  -1 1045.31 262.656   1
  -8  -4   0 5487.60 525.423  -3
  -8  -4   0 5487.60 525.423   1
   8  -4   0 6912.21 435.387  -3
   8  -4   0 6912.21 435.387  -2
   8  -4   0 6912.21 435.387   1
  -8  -4  -1 10010.5 670.726  -3
  -8  -4  -1 10010.5 670.726   1
  -8  -4  -1 11718.6 395.818  -3
  -8  -4  -1 11718.6 395.818  -2
  -8  -4  -1 11718.6 395.818   1
  -8  -4  -2 2781.14 482.835  -3
  -8  -4  -2 2781.14 482.835   1
   8  -4   2 2680.65 251.230  -3
   8  -4   2 2680.65 251.230  -2
   8  -4   2 2680.65 251.230   1
  -8  -4  -3 1482.16 427.488  -3
  -8  -4  -3 1482.16 427.488   1
  -8  -4  -3 1474.88 228.861  -3
  -8  -4  -3 1474.88 228.861  -2
  -8  -4  -3 1474.88 228.861   1
  -8  -4  -4 603.421 399.082  -3
  -8  -4  -4 603.421 399.082   1
  -8  -4  -4 1160.79 228.555  -3
  -8  -4  -4 1160.79 228.555  -2
  -8  -4  -4 1160.79 228.555   1
  -8  -4  -5 2970.53 300.162  -3
  -8  -4  -5 2970.53 300.162  -2
  -8  -4  -5 2970.53 300.162   1
   8  -4   6 6496.77 500.255  -3
   8  -4   6 6496.77 500.255  -2
   8  -4   6 6496.77 500.255   1
  -8  -3   9 927.655 320.343  -2
  -8  -3   9 927.655 320.343   1
   8  -3  -9 232.703 286.115  -3
   8  -3  -9 232.703 286.115  -2
   8  -3  -9 232.703 286.115   1
   8  -3  -8 6944.89 556.984  -3
   8  -3  -8 6944.89 556.984  -2
   8  -3  -8 6944.89 556.984   1
   8  -3  -7 9443.08 638.841  -3
   8  -3  -7 9443.08 638.841  -2
   8  -3  -7 9443.08 638.841   1
   8  -3  -6 5547.95 516.887  -3
   8  -3  -6 5547.95 516.887  -2
   8  -3  -6 5547.95 516.887   1
   8  -3  -5 1137.25 258.360  -3
   8  -3  -5 1137.25 258.360  -2
   8  -3  -5 1137.25 258.360   1
  -8  -3   4 2252.43 320.264  -3
  -8  -3   4 2252.43 320.264  -2
  -8  -3   4 2252.43 320.264   1
   8  -3  -3 5514.92 345.649  -3
   8  -3  -3 5514.92 345.649  -2
   8  -3  -3 5514.92 345.649   1
  -8  -3   2 12119.2 607.592  -3
  -8  -3   2 12119.2 607.592   1
   8  -3  -2 12939.5 597.174  -3
   8  -3  -2 12939.5 597.174  -2
   8  -3  -2 12939.5 597.174   1
  -8  -3   1 7380.27 532.930  -3
  -8  -3   1 7380.27 532.930   1
   8  -3  -1 8613.66 497.160  -3
   8  -3  -1 8613.66 497.160  -2
   8  -3  -1 8613.66 497.160   1
  -8  -3   0 3664.76 466.829  -3
  -8  -3   0 3664.76 466.829   1
   8  -3   0 4862.20 394.316  -3
   8  -3   0 4862.20 394.316  -2
   8  -3   0 4862.20 394.316   1
  -8  -3  -1 479.156 343.823  -3
  -8  -3  -1 479.156 343.823   1
  -8  -3  -1 809.002 262.633  -3
  -8  -3  -1 809.002 262.633  -2
  -8  -3  -1 809.002 262.633   1
  -8  -3  -2 3454.75 494.907  -3
  -8  -3  -2 3454.75 494.907   1
  -8  -3  -2 4251.93 256.916  -3
  -8  -3  -2 4251.93 256.916  -2
  -8  -3  -2 4251.93 256.916   1
  -8  -3  -3 6195.12 590.015  -3
  -8  -3  -3 6195.12 590.015   1
   8  -3   3 8176.11 394.945  -3
   8  -3   3 8176.11 394.945  -2
   8  -3   3 8176.11 394.945   1
  -8  -3  -4 8047.25 674.387  -3
  -8  -3  -4 8047.25 674.387   1
  -8  -3  -4 10324.2 456.810  -3
  -8  -3  -4 10324.2 456.810  -2
  -8  -3  -4 10324.2 456.810   1
  -8  -3  -5 3193.33 530.517  -3
  -8  -3  -5 3193.33 530.517   1
  -8  -3  -5 4200.40 337.806  -3
  -8  -3  -5 4200.40 337.806  -2
  -8  -3  -5 4200.40 337.806   1
  -8  -3  -6 433.297 408.348  -3
  -8  -3  -6 433.297 408.348   1
  -8  -3  -6 106.987 263.813  -3
  -8  -3  -6 106.987 263.813  -2
  -8  -3  -6 106.987 263.813   1
   8  -3   7 839.086 325.329  -3
   8  -3   7 839.086 325.329  -2
   8  -3   7 839.086 325.329   1
  -8  -2  10 7705.73 632.370  -3
  -8  -2  10 7705.73 632.370  -2
  -8  -2  10 7705.73 632.370   1
   8  -2  -9 5704.30 409.211  -2
   8  -2  -9 5704.30 409.211   1
  -8  -2   9 6494.87 584.584  -3
  -8  -2   9 6494.87 584.584  -2
  -8  -2   9 6494.87 584.584   1
   8  -2  -8 1832.54 280.149  -2
   8  -2  -8 1832.54 280.149   1
  -8  -2   8 1868.83 400.952  -3
  -8  -2   8 1868.83 400.952  -2
  -8  -2   8 1868.83 400.952   1
   8  -2  -7 144.904 240.258  -3
   8  -2  -7 144.904 240.258  -2
   8  -2  -7 144.904 240.258   1
   8  -2  -6 8184.51 494.815  -3
   8  -2  -6 8184.51 494.815  -2
   8  -2  -6 8184.51 494.815   1
  -8  -2   4 13699.3 432.610  -3
  -8  -2   4 13699.3 432.610  -2
  -8  -2   4 13699.3 432.610   1
   8  -2  -3 5819.88 294.960  -3
   8  -2  -3 5819.88 294.960  -2
   8  -2  -3 5819.88 294.960   1
  -8  -2   2 331.477 157.119  -3
  -8  -2   2 331.477 157.119  -2
  -8  -2   2 331.477 157.119   1
   8  -2  -1 1319.70 220.475  -3
   8  -2  -1 1319.70 220.475  -2
   8  -2  -1 1319.70 220.475   1
  -8  -2   0 13755.6 417.641  -3
  -8  -2   0 13755.6 417.641  -2
  -8  -2   0 13755.6 417.641   1
  -8  -2  -1 20750.3 500.961  -3
  -8  -2  -1 20750.3 500.961  -2
  -8  -2  -1 20750.3 500.961   1
   8  -2   2 2061.69 108.902   1
  -8  -2  -2 6037.98 304.277  -3
  -8  -2  -2 6037.98 304.277  -2
  -8  -2  -2 6037.98 304.277   1
   8  -2   3 2591.83 164.946  -3
   8  -2   3 2591.83 164.946  -2
   8  -2   3 2591.83 164.946   1
  -8  -2  -4 1099.39 167.137  -3
  -8  -2  -4 1099.39 167.137  -2
  -8  -2  -4 1099.39 167.137   1
   8  -2   5 9539.73 339.059  -3
   8  -2   5 9539.73 339.059  -2
   8  -2   5 9539.73 339.059   1
  -8  -2  -6 8683.05 551.329  -3
  -8  -2  -6 8683.05 551.329  -2
  -8  -2  -6 8683.05 551.329   1
   8  -2   7 9550.39 786.015  -3
   8  -2   7 9550.39 786.015  -2
   8  -2   7 9550.39 786.015   1
  -8  -1  11 5497.40 539.087  -3
  -8  -1  11 5497.40 539.087  -2
  -8  -1  11 5497.40 539.087   1
  -8  -1  10 219.887 325.201  -3
  -8  -1  10 219.887 325.201  -2
  -8  -1  10 219.887 325.201   1
   8  -1  -9 743.538 152.116  -2
   8  -1  -9 743.538 152.116   1
  -8  -1   9 1165.71 359.045  -3
  -8  -1   9 1165.71 359.045  -2
  -8  -1   9 1165.71 359.045   1
   8  -1  -8 7012.99 336.729  -2
   8  -1  -8 7012.99 336.729   1
  -8  -1   8 9776.38 614.184  -3
  -8  -1   8 9776.38 614.184  -2
  -8  -1   8 9776.38 614.184   1
   8  -1  -7 10783.5 415.404  -2
   8  -1  -7 10783.5 415.404   1
  -8  -1   7 13435.1 649.800  -3
  -8  -1   7 13435.1 649.800  -2
  -8  -1   7 13435.1 649.800   1
   8  -1  -6 9711.70 410.399  -2
   8  -1  -6 9711.70 410.399   1
  -8  -1   6 9894.04 623.381  -3
  -8  -1   6 9894.04 623.381  -2
  -8  -1   6 9894.04 623.381   1
  -8  -1   5 3317.36 396.800  -3
  -8  -1   5 3317.36 396.800  -2
  -8  -1   5 3317.36 396.800   1
   8  -1  -4 1351.95 166.823  -2
   8  -1  -4 1351.95 166.823   1
   8  -1  -4 1410.56 196.939  -3
   8  -1  -4 1410.56 196.939  -2
   8  -1  -4 1410.56 196.939   1
   8  -1  -3 15399.5 436.574  -2
   8  -1  -3 15399.5 436.574   1
   8  -1  -3 17770.0 415.331  -3
   8  -1  -3 17770.0 415.331  -2
   8  -1  -3 17770.0 415.331   1
  -8  -1   2 11504.9 373.311  -3
  -8  -1   2 11504.9 373.311  -2
  -8  -1   2 11504.9 373.311   1
   8  -1  -1 20550.9 538.891  -3
   8  -1  -1 20550.9 538.891  -2
   8  -1  -1 20550.9 538.891   1
   8  -1   0 7402.96 293.793  -3
   8  -1   0 7402.96 293.793  -2
   8  -1   0 7402.96 293.793   1
   8  -1   1 1122.00 348.280  -3
   8  -1   1 1122.00 348.280   1
  -8  -1  -1 199.250 96.0169  -3
  -8  -1  -1 199.250 96.0169  -2
  -8  -1  -1 199.250 96.0169   1
  -8  -1  -2 9701.85 233.524  -3
  -8  -1  -2 9701.85 233.524  -2
  -8  -1  -2 9701.85 233.524   1
  -8  -1  -3 14642.4 341.318  -3
  -8  -1  -3 14642.4 341.318  -2
  -8  -1  -3 14642.4 341.318   1
   8  -1   4 14786.9 389.139  -3
   8  -1   4 14786.9 389.139  -2
   8  -1   4 14786.9 389.139   1
  -8  -1  -5 7182.42 368.366  -3
  -8  -1  -5 7182.42 368.366  -2
  -8  -1  -5 7182.42 368.366   1
   8  -1   6 153.565 186.194  -3
   8  -1   6 153.565 186.194  -2
   8  -1   6 153.565 186.194   1
   8  -1   7 3795.58 356.304  -3
   8  -1   7 3795.58 356.304  -2
   8  -1   7 3795.58 356.304   1
   8  -1   8 7682.39 613.883  -3
   8  -1   8 7682.39 613.883  -2
   8  -1   8 7682.39 613.883   1
  -8   0  11 6642.64 578.377  -3
  -8   0  11 6642.64 578.377  -2
  -8   0  11 6642.64 578.377   1
  -8   0  10 7605.95 452.561  -2
  -8   0  10 7605.95 452.561   1
  -8   0  10 8567.88 577.112  -3
  -8   0  10 8567.88 577.112  -2
  -8   0  10 8567.88 577.112   1
  -8   0   9 7603.58 518.321  -3
  -8   0   9 7603.58 518.321  -2
  -8   0   9 7603.58 518.321   1
  -8   0   8 3324.05 386.635  -3
  -8   0   8 3324.05 386.635  -2
  -8   0   8 3324.05 386.635   1
   8   0  -7 26.7307 74.4473   1
  -8   0   7-213.898 228.337  -3
  -8   0   7-213.898 228.337  -2
  -8   0   7-213.898 228.337   1
   8   0  -6 1624.86 211.730  -2
   8   0  -6 1624.86 211.730   1
  -8   0   6 2276.53 217.752  -3
  -8   0   6 2276.53 217.752  -2
  -8   0   6 2276.53 217.752   1
   8   0  -5 19598.5 631.493  -2
   8   0  -5 19598.5 631.493   1
  -8   0   5 18872.4 321.161  -3
  -8   0   5 18872.4 321.161  -2
  -8   0   5 18872.4 321.161   1
   8   0  -4 16889.9 565.098  -2
   8   0  -4 16889.9 565.098   1
   8   0  -4 18320.5 345.558  -3
   8   0  -4 18320.5 345.558  -2
   8   0  -4 18320.5 345.558   1
   8   0  -3 9669.82 449.218  -2
   8   0  -3 9669.82 449.218   1
   8   0  -3 10157.1 277.439  -3
   8   0  -3 10157.1 277.439  -2
   8   0  -3 10157.1 277.439   1
  -8   0   2 11.9384 91.2702  -3
  -8   0   2 11.9384 91.2702  -2
  -8   0   2 11.9384 91.2702   1
   8   0  -1 276.265 270.562  -3
   8   0  -1 276.265 270.562   1
  -8   0   1 379.275 133.887  -3
  -8   0   1 379.275 133.887  -2
  -8   0   1 379.275 133.887   1
   8   0   0 12835.7 663.853  -3
   8   0   0 12835.7 663.853   1
   8   0   0 22747.4 364.989  -3
   8   0   0 22747.4 364.989  -2
   8   0   0 22747.4 364.989   1
   8   0   1 14241.5 749.490  -3
   8   0   1 14241.5 749.490   1
  -8   0  -1 25822.0 351.562  -3
  -8   0  -1 25822.0 351.562  -2
  -8   0  -1 25822.0 351.562   1
   8   0   2 10126.1 665.110  -3
   8   0   2 10126.1 665.110   1
  -8   0  -2 18047.4 304.892  -3
  -8   0  -2 18047.4 304.892  -2
  -8   0  -2 18047.4 304.892   1
  -8   0  -3 71.5504 110.747  -3
  -8   0  -3 71.5504 110.747  -2
  -8   0  -3 71.5504 110.747   1
   8   0   4 75.4723 145.744  -3
   8   0   4 75.4723 145.744  -2
   8   0   4 75.4723 145.744   1
  -8   0  -5 11886.0 398.466  -3
  -8   0  -5 11886.0 398.466  -2
  -8   0  -5 11886.0 398.466   1
  -8   0  -6 13733.2 596.750  -3
  -8   0  -6 13733.2 596.750  -2
  -8   0  -6 13733.2 596.750   1
   8   0   7 11170.8 716.514  -3
   8   0   7 11170.8 716.514  -2
   8   0   7 11170.8 716.514   1
   8   0   8 1672.66 407.949  -3
   8   0   8 1672.66 407.949  -2
   8   0   8 1672.66 407.949   1
   8   0   9-58.6112 339.050  -3
   8   0   9-58.6112 339.050  -2
   8   0   9-58.6112 339.050   1
  -8   1  11 4070.26 462.642  -3
  -8   1  11 4070.26 462.642  -2
  -8   1  11 4070.26 462.642   1
  -8   1  10-3.57433 158.830  -3
  -8   1  10-3.57433 158.830  -2
  -8   1  10-3.57433 158.830   1
  -8   1   9 932.345 300.413  -3
  -8   1   9 932.345 300.413  -2
  -8   1   9 932.345 300.413   1
  -8   1   8 8346.26 493.215  -3
  -8   1   8 8346.26 493.215  -2
  -8   1   8 8346.26 493.215   1
  -8   1   7 10731.0 510.839  -3
  -8   1   7 10731.0 510.839  -2
  -8   1   7 10731.0 510.839   1
   8   1  -6 4433.58 161.362   1
   8   1  -6 9748.98 583.761  -2
   8   1  -6 9748.98 583.761   1
  -8   1   6 9241.41 311.029  -3
  -8   1   6 9241.41 311.029  -2
  -8   1   6 9241.41 311.029   1
   8   1  -5 1445.90 147.718   1
   8   1  -5 2895.88 340.997  -2
   8   1  -5 2895.88 340.997   1
  -8   1   5 2670.30 184.443  -3
  -8   1   5 2670.30 184.443  -2
  -8   1   5 2670.30 184.443   1
   8   1  -4 854.134 176.108  -3
   8   1  -4 854.134 176.108   1
   8   1  -4 1239.05 245.824  -2
   8   1  -4 1239.05 245.824   1
  -8   1   4 1418.78 111.367  -3
  -8   1   4 1418.78 111.367  -2
  -8   1   4 1418.78 111.367   1
   8   1  -3 7712.00 386.137  -3
   8   1  -3 7712.00 386.137   1
  -8   1   3 14891.3 224.417  -3
  -8   1   3 14891.3 224.417  -2
  -8   1   3 14891.3 224.417   1
   8   1  -2 5996.15 405.226  -3
   8   1  -2 5996.15 405.226   1
  -8   1   2 12401.7 256.900  -3
  -8   1   2 12401.7 256.900  -2
  -8   1   2 12401.7 256.900   1
   8   1  -1 9851.14 522.919  -3
   8   1  -1 9851.14 522.919   1
  -8   1   1 18815.6 443.516  -2
  -8   1   1 18815.6 443.516   1
   8   1  -1 23019.3 526.263  -3
   8   1  -1 23019.3 526.263  -2
   8   1  -1 23019.3 526.263   1
   8   1   0 4018.11 393.157  -3
   8   1   0 4018.11 393.157   1
  -8   1   0 6626.06 274.621  -2
  -8   1   0 6626.06 274.621   1
   8   1   0 7450.56 346.482  -3
   8   1   0 7450.56 346.482  -2
   8   1   0 7450.56 346.482   1
   8   1   1 194.730 238.483  -3
   8   1   1 194.730 238.483   1
  -8   1  -1 290.465 96.0785  -3
  -8   1  -1 290.465 96.0785  -2
  -8   1  -1 290.465 96.0785   1
   8   1   2 4545.38 475.842  -3
   8   1   2 4545.38 475.842   1
  -8   1  -2 9441.63 230.055  -3
  -8   1  -2 9441.63 230.055  -2
  -8   1  -2 9441.63 230.055   1
  -8   1  -3 14305.9 360.030  -3
  -8   1  -3 14305.9 360.030  -2
  -8   1  -3 14305.9 360.030   1
  -8   1  -4 14061.8 416.413  -3
  -8   1  -4 14061.8 416.413  -2
  -8   1  -4 14061.8 416.413   1
  -8   1  -5 7263.17 336.144  -3
  -8   1  -5 7263.17 336.144  -2
  -8   1  -5 7263.17 336.144   1
  -8   1  -6 281.903 175.052  -3
  -8   1  -6 281.903 175.052  -2
  -8   1  -6 281.903 175.052   1
   8   1   7 3795.52 523.276  -3
   8   1   7 3795.52 523.276  -2
   8   1   7 3795.52 523.276   1
   8   1   8 7847.12 683.862  -3
   8   1   8 7847.12 683.862  -2
   8   1   8 7847.12 683.862   1
  -8   2  11 3360.16 461.722  -3
  -8   2  11 3360.16 461.722  -2
  -8   2  11 3360.16 461.722   1
  -8   2  10 6260.78 513.779  -3
  -8   2  10 6260.78 513.779  -2
  -8   2  10 6260.78 513.779   1
  -8   2   9 5846.89 475.956  -3
  -8   2   9 5846.89 475.956  -2
  -8   2   9 5846.89 475.956   1
  -8   2   8 1406.51 288.665  -3
  -8   2   8 1406.51 288.665  -2
  -8   2   8 1406.51 288.665   1
  -8   2   7 32.6928 198.162  -3
  -8   2   7 32.6928 198.162  -2
  -8   2   7 32.6928 198.162   1
   8   2  -6 8189.29 592.142  -2
   8   2  -6 8189.29 592.142   1
  -8   2   6 6458.82 359.056  -3
  -8   2   6 6458.82 359.056  -2
  -8   2   6 6458.82 359.056   1
   8   2  -5 6593.86 255.233   1
  -8   2   5 10748.9 252.148  -3
  -8   2   5 10748.9 252.148  -2
  -8   2   5 10748.9 252.148   1
   8   2  -4 8357.24 202.241  -3
   8   2  -4 8357.24 202.241   1
  -8   2   4 12054.3 246.921  -3
  -8   2   4 12054.3 246.921  -2
  -8   2   4 12054.3 246.921   1
   8   2  -3 3474.82 301.435  -3
   8   2  -3 3474.82 301.435   1
   8   2  -3 5763.28 279.751  -3
   8   2  -3 5763.28 279.751  -2
   8   2  -3 5763.28 279.751   1
   8   2  -2 234.673 194.144  -3
   8   2  -2 234.673 194.144   1
  -8   2   2 420.739 142.434  -3
  -8   2   2 420.739 142.434  -2
  -8   2   2 420.739 142.434   1
   8   2  -1 714.484 230.048  -3
   8   2  -1 714.484 230.048   1
   8   2  -1 1604.89 191.131  -3
   8   2  -1 1604.89 191.131  -2
   8   2  -1 1604.89 191.131   1
   8   2   0 6890.58 486.147  -3
   8   2   0 6890.58 486.147   1
   8   2   0 13852.4 465.047  -3
   8   2   0 13852.4 465.047  -2
   8   2   0 13852.4 465.047   1
   8   2   1 8617.21 586.036  -3
   8   2   1 8617.21 586.036   1
  -8   2  -1 20202.4 411.496  -3
  -8   2  -1 20202.4 411.496  -2
  -8   2  -1 20202.4 411.496   1
  -8   2  -2 5178.30 285.121  -3
  -8   2  -2 5178.30 285.121  -2
  -8   2  -2 5178.30 285.121   1
   8   2   3 3012.49 241.929  -3
   8   2   3 3012.49 241.929  -2
   8   2   3 3012.49 241.929   1
  -8   2  -4 1256.37 241.613  -3
  -8   2  -4 1256.37 241.613  -2
  -8   2  -4 1256.37 241.613   1
   8   2   5 8558.63 432.820  -3
   8   2   5 8558.63 432.820  -2
   8   2   5 8558.63 432.820   1
  -8   2  -6 8255.40 442.264  -3
  -8   2  -6 8255.40 442.264  -2
  -8   2  -6 8255.40 442.264   1
   8   2   7 8298.04 702.995  -3
   8   2   7 8298.04 702.995  -2
   8   2   7 8298.04 702.995   1
  -8   3   9 996.108 297.494  -3
  -8   3   9 996.108 297.494  -2
  -8   3   9 996.108 297.494   1
  -8   3   8 6455.61 449.029  -3
  -8   3   8 6455.61 449.029  -2
  -8   3   8 6455.61 449.029   1
  -8   3   7 8791.35 462.541  -3
  -8   3   7 8791.35 462.541  -2
  -8   3   7 8791.35 462.541   1
   8   3  -6 4879.25 279.936  -3
   8   3  -6 4879.25 279.936  -2
   8   3  -6 4879.25 279.936   1
   8   3  -5 769.230 82.2756  -3
   8   3  -5 769.230 82.2756   1
   8   3  -5 1346.53 284.466  -3
   8   3  -5 1346.53 284.466  -2
   8   3  -5 1346.53 284.466   1
   8   3  -4 1589.14 226.131  -3
   8   3  -4 1589.14 226.131   1
   8   3  -4 2527.58 322.603  -3
   8   3  -4 2527.58 322.603  -2
   8   3  -4 2527.58 322.603   1
   8   3  -3 3165.72 305.703  -3
   8   3  -3 3165.72 305.703   1
   8   3  -3 5195.67 291.947  -3
   8   3  -3 5195.67 291.947  -2
   8   3  -3 5195.67 291.947   1
   8   3  -2 8000.79 491.078  -3
   8   3  -2 8000.79 491.078   1
   8   3  -2 13476.8 417.299  -3
   8   3  -2 13476.8 417.299  -2
   8   3  -2 13476.8 417.299   1
   8   3  -1 5299.50 413.908  -3
   8   3  -1 5299.50 413.908   1
   8   3  -1 8345.02 337.956  -3
   8   3  -1 8345.02 337.956  -2
   8   3  -1 8345.02 337.956   1
   8   3   0 2253.99 341.136  -3
   8   3   0 2253.99 341.136   1
   8   3   0 4315.60 264.349  -3
   8   3   0 4315.60 264.349  -2
   8   3   0 4315.60 264.349   1
  -8   3  -1 744.995 205.196  -3
  -8   3  -1 744.995 205.196  -2
  -8   3  -1 744.995 205.196   1
  -8   3  -2 4612.46 320.906  -3
  -8   3  -2 4612.46 320.906  -2
  -8   3  -2 4612.46 320.906   1
   8   3   3 8280.60 342.448  -3
   8   3   3 8280.60 342.448  -2
   8   3   3 8280.60 342.448   1
  -8   3  -4 10007.1 447.325  -3
  -8   3  -4 10007.1 447.325  -2
  -8   3  -4 10007.1 447.325   1
  -8   3  -5 4466.99 342.400  -3
  -8   3  -5 4466.99 342.400  -2
  -8   3  -5 4466.99 342.400   1
   8   3   6 122.240 219.708  -3
   8   3   6 122.240 219.708  -2
   8   3   6 122.240 219.708   1
   8   3   7 1264.01 495.997  -3
   8   3   7 1264.01 495.997  -2
   8   3   7 1264.01 495.997   1
   8   4  -6 2345.72 181.592  -3
   8   4  -6 2345.72 181.592  -2
   8   4  -6 2345.72 181.592   1
   8   4  -5 3841.84 401.075  -3
   8   4  -5 3841.84 401.075  -2
   8   4  -5 3841.84 401.075   1
   8   4  -4 7737.27 445.018  -3
   8   4  -4 7737.27 445.018   1
  -8   4   4 10873.9 572.144  -3
  -8   4   4 10873.9 572.144  -2
  -8   4   4 10873.9 572.144   1
   8   4  -3 2057.73 291.140  -3
   8   4  -3 2057.73 291.140   1
  -8   4   3 2707.97 276.142  -3
  -8   4   3 2707.97 276.142  -2
  -8   4   3 2707.97 276.142   1
   8   4  -2 531.779 229.482  -3
   8   4  -2 531.779 229.482   1
   8   4  -2 675.108 181.287  -3
   8   4  -2 675.108 181.287  -2
   8   4  -2 675.108 181.287   1
   8   4  -1 1176.68 200.405  -3
   8   4  -1 1176.68 200.405  -2
   8   4  -1 1176.68 200.405   1
   8   4   0 7088.87 323.638  -3
   8   4   0 7088.87 323.638  -2
   8   4   0 7088.87 323.638   1
   8   4   1 13101.2 412.683  -3
   8   4   1 13101.2 412.683  -2
   8   4   1 13101.2 412.683   1
   8   4   2 3078.62 251.727  -3
   8   4   2 3078.62 251.727  -2
   8   4   2 3078.62 251.727   1
  -8   4  -3 1555.86 246.335  -3
  -8   4  -3 1555.86 246.335  -2
  -8   4  -3 1555.86 246.335   1
  -8   4  -4 1230.21 243.690  -3
  -8   4  -4 1230.21 243.690  -2
  -8   4  -4 1230.21 243.690   1
  -8   4  -5 2665.76 360.802  -3
  -8   4  -5 2665.76 360.802  -2
  -8   4  -5 2665.76 360.802   1
   8   4   6 6755.83 694.696  -3
   8   4   6 6755.83 694.696  -2
   8   4   6 6755.83 694.696   1
  -8   5   7 3660.46 562.756  -3
  -8   5   7 3660.46 562.756  -2
  -8   5   7 3660.46 562.756   1
  -8   5   6 1976.10 453.025  -3
  -8   5   6 1976.10 453.025  -2
  -8   5   6 1976.10 453.025   1
  -8   5   5 2388.07 473.506  -3
  -8   5   5 2388.07 473.506  -2
  -8   5   5 2388.07 473.506   1
  -8   5   4 549.198 254.662  -3
  -8   5   4 549.198 254.662  -2
  -8   5   4 549.198 254.662   1
  -8   5   3 3232.67 349.162  -3
  -8   5   3 3232.67 349.162  -2
  -8   5   3 3232.67 349.162   1
   8   5  -2 4518.60 579.870  -2
   8   5  -2 4518.60 579.870   1
   8   5  -2 4240.70 389.844  -3
   8   5  -2 4240.70 389.844  -2
   8   5  -2 4240.70 389.844   1
   8   5  -1 5638.93 625.205  -2
   8   5  -1 5638.93 625.205   1
   8   5  -1 5405.99 333.395  -3
   8   5  -1 5405.99 333.395  -2
   8   5  -1 5405.99 333.395   1
   8   5   0 3035.28 510.392  -2
   8   5   0 3035.28 510.392   1
   8   5   0 3195.59 278.015  -3
   8   5   0 3195.59 278.015  -2
   8   5   0 3195.59 278.015   1
   8   5   1-90.7965 180.247  -3
   8   5   1-90.7965 180.247  -2
   8   5   1-90.7965 180.247   1
   8   5   2 3561.04 331.678  -3
   8   5   2 3561.04 331.678  -2
   8   5   2 3561.04 331.678   1
   8   5   3 4848.31 382.650  -3
   8   5   3 4848.31 382.650  -2
   8   5   3 4848.31 382.650   1
   8   5   4 3654.50 529.552  -3
   8   5   4 3654.50 529.552  -2
   8   5   4 3654.50 529.552   1
   8   5   5 2510.90 482.964  -3
   8   5   5 2510.90 482.964  -2
   8   5   5 2510.90 482.964   1
  -9  -5   2 4756.74 495.804  -3
  -9  -5   2 4756.74 495.804   1
  -9  -5   1 852.985 391.080  -3
  -9  -5   1 852.985 391.080   1
  -9  -5   0 1739.05 449.598  -3
  -9  -5   0 1739.05 449.598   1
  -9  -5  -1 2255.74 491.212  -3
  -9  -5  -1 2255.74 491.212   1
   9  -4  -9 1426.72 352.976  -2
   9  -4  -9 1426.72 352.976   1
   9  -4  -8 324.497 279.504  -2
   9  -4  -8 324.497 279.504   1
   9  -4  -7 4187.23 396.825  -3
   9  -4  -7 4187.23 396.825  -2
   9  -4  -7 4187.23 396.825   1
   9  -4  -6 6550.12 451.054  -3
   9  -4  -6 6550.12 451.054  -2
   9  -4  -6 6550.12 451.054   1
  -9  -4   5 7455.14 464.271  -3
  -9  -4   5 7455.14 464.271  -2
  -9  -4   5 7455.14 464.271   1
  -9  -4   4 2225.61 317.487  -3
  -9  -4   4 2225.61 317.487  -2
  -9  -4   4 2225.61 317.487   1
  -9  -4   3 228.418 232.035  -3
  -9  -4   3 228.418 232.035  -2
  -9  -4   3 228.418 232.035   1
  -9  -4   2 5378.80 496.924  -3
  -9  -4   2 5378.80 496.924   1
   9  -4  -2 4399.91 396.891  -3
   9  -4  -2 4399.91 396.891  -2
   9  -4  -2 4399.91 396.891   1
  -9  -4   1 4922.76 512.026  -3
  -9  -4   1 4922.76 512.026   1
   9  -4  -1 5775.73 437.990  -3
   9  -4  -1 5775.73 437.990  -2
   9  -4  -1 5775.73 437.990   1
  -9  -4   0 6712.18 572.309  -3
  -9  -4   0 6712.18 572.309   1
   9  -4   0 8409.45 494.770  -3
   9  -4   0 8409.45 494.770  -2
   9  -4   0 8409.45 494.770   1
  -9  -4  -1 844.291 410.790  -3
  -9  -4  -1 844.291 410.790   1
   9  -4   1 1230.40 286.694  -3
   9  -4   1 1230.40 286.694  -2
   9  -4   1 1230.40 286.694   1
  -9  -4  -2 620.944 402.153  -3
  -9  -4  -2 620.944 402.153   1
   9  -4   2 729.604 268.391  -3
   9  -4   2 729.604 268.391  -2
   9  -4   2 729.604 268.391   1
  -9  -4  -3 1734.60 473.058  -3
  -9  -4  -3 1734.60 473.058   1
  -9  -4  -3 1815.10 323.078  -3
  -9  -4  -3 1815.10 323.078  -2
  -9  -4  -3 1815.10 323.078   1
  -9  -4  -4 5253.90 452.691  -3
  -9  -4  -4 5253.90 452.691  -2
  -9  -4  -4 5253.90 452.691   1
   9  -4   5 5349.39 669.143  -3
   9  -4   5 5349.39 669.143  -2
   9  -4   5 5349.39 669.143   1
   9  -3  -9 6018.73 497.552  -2
   9  -3  -9 6018.73 497.552   1
   9  -3  -8 10875.7 645.331  -2
   9  -3  -8 10875.7 645.331   1
   9  -3  -7 3238.20 394.640  -2
   9  -3  -7 3238.20 394.640   1
   9  -3  -6 364.243 240.535  -3
   9  -3  -6 364.243 240.535  -2
   9  -3  -6 364.243 240.535   1
   9  -3  -5 628.888 245.115  -3
   9  -3  -5 628.888 245.115  -2
   9  -3  -5 628.888 245.115   1
  -9  -3   4 9575.59 561.824  -3
  -9  -3   4 9575.59 561.824  -2
  -9  -3   4 9575.59 561.824   1
   9  -3  -3 11785.7 613.152  -3
   9  -3  -3 11785.7 613.152  -2
   9  -3  -3 11785.7 613.152   1
   9  -3  -2 9066.59 539.519  -3
   9  -3  -2 9066.59 539.519  -2
   9  -3  -2 9066.59 539.519   1
   9  -3  -1 589.944 263.950  -3
   9  -3  -1 589.944 263.950  -2
   9  -3  -1 589.944 263.950   1
   9  -3   0 485.418 257.981  -3
   9  -3   0 485.418 257.981  -2
   9  -3   0 485.418 257.981   1
  -9  -3  -1 4862.90 425.115  -3
  -9  -3  -1 4862.90 425.115  -2
  -9  -3  -1 4862.90 425.115   1
  -9  -3  -2 11047.1 599.052  -3
  -9  -3  -2 11047.1 599.052  -2
  -9  -3  -2 11047.1 599.052   1
   9  -3   3 13240.4 493.049  -3
   9  -3   3 13240.4 493.049  -2
   9  -3   3 13240.4 493.049   1
  -9  -3  -4 963.889 241.218  -3
  -9  -3  -4 963.889 241.218  -2
  -9  -3  -4 963.889 241.218   1
  -9  -3  -5 459.528 231.071  -3
  -9  -3  -5 459.528 231.071  -2
  -9  -3  -5 459.528 231.071   1
   9  -3   6 2215.27 508.355  -3
   9  -3   6 2215.27 508.355  -2
   9  -3   6 2215.27 508.355   1
  -9  -2   9 2714.71 246.408  -2
  -9  -2   9 2714.71 246.408   1
  -9  -2   8 482.275 173.429  -2
  -9  -2   8 482.275 173.429   1
   9  -2  -7 4941.95 383.178  -2
   9  -2  -7 4941.95 383.178   1
   9  -2  -6 13979.3 515.950  -3
   9  -2  -6 13979.3 515.950  -2
   9  -2  -6 13979.3 515.950   1
  -9  -2   5 10062.7 835.063  -3
  -9  -2   5 10062.7 835.063  -2
  -9  -2   5 10062.7 835.063   1
   9  -2  -4 5699.70 471.186  -3
   9  -2  -4 5699.70 471.186  -2
   9  -2  -4 5699.70 471.186   1
   9  -2  -3-2.83595 57.6145   1
  -9  -2   3-42.9769 238.871  -2
  -9  -2   3-42.9769 238.871   1
  -9  -2   3-50.8201 246.933  -3
  -9  -2   3-50.8201 246.933  -2
  -9  -2   3-50.8201 246.933   1
  -9  -2   2 7449.64 560.226  -2
  -9  -2   2 7449.64 560.226   1
   9  -2  -2 8036.77 529.432  -3
   9  -2  -2 8036.77 529.432  -2
   9  -2  -2 8036.77 529.432   1
   9  -2  -1 14607.5 503.962  -3
   9  -2  -1 14607.5 503.962  -2
   9  -2  -1 14607.5 503.962   1
   9  -2   0 17459.9 547.009  -3
   9  -2   0 17459.9 547.009  -2
   9  -2   0 17459.9 547.009   1
   9  -2   1 6575.13 486.760  -3
   9  -2   1 6575.13 486.760  -2
   9  -2   1 6575.13 486.760   1
  -9  -2  -2 743.659 287.237  -3
  -9  -2  -2 743.659 287.237  -2
  -9  -2  -2 743.659 287.237   1
   9  -2   3 2204.32 359.241  -3
   9  -2   3 2204.32 359.241  -2
   9  -2   3 2204.32 359.241   1
  -9  -2  -4 15152.2 739.739  -3
  -9  -2  -4 15152.2 739.739  -2
  -9  -2  -4 15152.2 739.739   1
   9  -2   5 9541.28 623.260  -3
   9  -2   5 9541.28 623.260  -2
   9  -2   5 9541.28 623.260   1
   9  -2   6 3620.33 423.279  -3
   9  -2   6 3620.33 423.279  -2
   9  -2   6 3620.33 423.279   1
  -9  -1  10 2153.81 427.344  -3
  -9  -1  10 2153.81 427.344  -2
  -9  -1  10 2153.81 427.344   1
  -9  -1   9 7883.13 572.862  -3
  -9  -1   9 7883.13 572.862  -2
  -9  -1   9 7883.13 572.862   1
   9  -1  -8 9660.50 377.939  -2
   9  -1  -8 9660.50 377.939   1
  -9  -1   8 13361.4 687.981  -3
  -9  -1   8 13361.4 687.981  -2
  -9  -1   8 13361.4 687.981   1
   9  -1  -7 7247.55 353.309  -2
   9  -1  -7 7247.55 353.309   1
  -9  -1   7 8107.89 538.125  -3
  -9  -1   7 8107.89 538.125  -2
  -9  -1   7 8107.89 538.125   1
  -9  -1   5 2706.15 278.054  -3
  -9  -1   5 2706.15 278.054  -2
  -9  -1   5 2706.15 278.054   1
   9  -1  -4 11911.0 396.030  -2
   9  -1  -4 11911.0 396.030   1
   9  -1  -4 14021.4 490.673  -3
   9  -1  -4 14021.4 490.673  -2
   9  -1  -4 14021.4 490.673   1
   9  -1  -3 11735.0 413.015  -2
   9  -1  -3 11735.0 413.015   1
  -9  -1   3 14343.8 485.506  -3
  -9  -1   3 14343.8 485.506  -2
  -9  -1   3 14343.8 485.506   1
  -9  -1   2 13518.6 357.068  -3
  -9  -1   2 13518.6 357.068  -2
  -9  -1   2 13518.6 357.068   1
   9  -1  -1 5870.56 281.139  -3
   9  -1  -1 5870.56 281.139  -2
   9  -1  -1 5870.56 281.139   1
   9  -1   0 4106.00 473.474  -3
   9  -1   0 4106.00 473.474   1
  -9  -1   0 5592.23 251.496  -3
  -9  -1   0 5592.23 251.496  -2
  -9  -1   0 5592.23 251.496   1
  -9  -1  -1 9143.54 245.628  -3
  -9  -1  -1 9143.54 245.628  -2
  -9  -1  -1 9143.54 245.628   1
  -9  -1  -2 13057.2 303.341  -3
  -9  -1  -2 13057.2 303.341  -2
  -9  -1  -2 13057.2 303.341   1
  -9  -1  -3 10439.9 319.178  -3
  -9  -1  -3 10439.9 319.178  -2
  -9  -1  -3 10439.9 319.178   1
   9  -1   4 4074.25 287.371  -3
   9  -1   4 4074.25 287.371  -2
   9  -1   4 4074.25 287.371   1
  -9  -1  -5 616.107 207.389  -3
  -9  -1  -5 616.107 207.389  -2
  -9  -1  -5 616.107 207.389   1
   9  -1   6 4474.19 702.584  -3
   9  -1   6 4474.19 702.584  -2
   9  -1   6 4474.19 702.584   1
  -9   0  11 8747.94 610.356  -3
  -9   0  11 8747.94 610.356  -2
  -9   0  11 8747.94 610.356   1
  -9   0  10 4833.25 485.668  -3
  -9   0  10 4833.25 485.668  -2
  -9   0  10 4833.25 485.668   1
  -9   0   9 2292.93 370.114  -3
  -9   0   9 2292.93 370.114  -2
  -9   0   9 2292.93 370.114   1
  -9   0   8 242.635 263.841  -3
  -9   0   8 242.635 263.841  -2
  -9   0   8 242.635 263.841   1
   9   0  -7 4267.53 150.619   1
  -9   0   7 7539.68 338.924  -3
  -9   0   7 7539.68 338.924  -2
  -9   0   7 7539.68 338.924   1
   9   0  -6 6992.71 320.336   1
  -9   0   6 17210.6 451.002  -3
  -9   0   6 17210.6 451.002  -2
  -9   0   6 17210.6 451.002   1
   9   0  -5 8667.30 380.853  -3
   9   0  -5 8667.30 380.853   1
   9   0  -5 13733.0 558.869  -2
   9   0  -5 13733.0 558.869   1
  -9   0   5 14983.6 357.641  -3
  -9   0   5 14983.6 357.641  -2
  -9   0   5 14983.6 357.641   1
   9   0  -4 1808.54 277.428  -3
   9   0  -4 1808.54 277.428   1
   9   0  -4 2441.37 265.047  -2
   9   0  -4 2441.37 265.047   1
   9   0  -4 2973.78 252.894  -3
   9   0  -4 2973.78 252.894  -2
   9   0  -4 2973.78 252.894   1
   9   0  -3 199.690 248.153  -3
   9   0  -3 199.690 248.153   1
   9   0  -3 113.406 170.628  -2
   9   0  -3 113.406 170.628   1
  -9   0   3 96.0374 161.954  -3
  -9   0   3 96.0374 161.954  -2
  -9   0   3 96.0374 161.954   1
   9   0  -2 1591.56 313.449  -3
   9   0  -2 1591.56 313.449   1
  -9   0   2 2613.40 280.510  -2
  -9   0   2 2613.40 280.510   1
  -9   0   2 2881.08 211.692  -3
  -9   0   2 2881.08 211.692  -2
  -9   0   2 2881.08 211.692   1
   9   0  -1 18911.3 753.304  -3
   9   0  -1 18911.3 753.304   1
  -9   0   1 31830.6 825.495  -2
  -9   0   1 31830.6 825.495   1
   9   0  -1 35549.2 717.482  -3
   9   0  -1 35549.2 717.482  -2
   9   0  -1 35549.2 717.482   1
   9   0   0 8046.92 558.800  -3
   9   0   0 8046.92 558.800   1
  -9   0   0 13462.9 551.642  -2
  -9   0   0 13462.9 551.642   1
   9   0   0 15036.8 368.989  -3
   9   0   0 15036.8 368.989  -2
   9   0   0 15036.8 368.989   1
  -9   0  -1 3605.40 172.058  -3
  -9   0  -1 3605.40 172.058  -2
  -9   0  -1 3605.40 172.058   1
  -9   0  -2 321.004 111.881  -3
  -9   0  -2 321.004 111.881  -2
  -9   0  -2 321.004 111.881   1
  -9   0  -3 717.878 154.622  -3
  -9   0  -3 717.878 154.622  -2
  -9   0  -3 717.878 154.622   1
   9   0   4 11360.8 346.614  -3
   9   0   4 11360.8 346.614  -2
   9   0   4 11360.8 346.614   1
  -9   0  -5 11870.7 362.583  -3
  -9   0  -5 11870.7 362.583  -2
  -9   0  -5 11870.7 362.583   1
   9   0   6 6583.54 456.302  -3
   9   0   6 6583.54 456.302  -2
   9   0   6 6583.54 456.302   1
   9   0   7 86.8737 324.067  -3
   9   0   7 86.8737 324.067  -2
   9   0   7 86.8737 324.067   1
  -9   1  11 230.808 315.391  -3
  -9   1  11 230.808 315.391  -2
  -9   1  11 230.808 315.391   1
  -9   1  10 2393.56 367.839  -3
  -9   1  10 2393.56 367.839  -2
  -9   1  10 2393.56 367.839   1
  -9   1   9 6940.83 472.946  -3
  -9   1   9 6940.83 472.946  -2
  -9   1   9 6940.83 472.946   1
  -9   1   8 11897.4 389.041  -3
  -9   1   8 11897.4 389.041  -2
  -9   1   8 11897.4 389.041   1
  -9   1   7 6489.73 288.316  -3
  -9   1   7 6489.73 288.316  -2
  -9   1   7 6489.73 288.316   1
   9   1  -6 147.260 84.7541   1
   9   1  -6 324.383 221.617  -2
   9   1  -6 324.383 221.617   1
  -9   1   6 205.131 136.615  -3
  -9   1   6 205.131 136.615  -2
  -9   1   6 205.131 136.615   1
   9   1  -5 1320.00 179.232  -3
   9   1  -5 1320.00 179.232   1
   9   1  -5 2461.65 322.964  -2
   9   1  -5 2461.65 322.964   1
  -9   1   5 2453.81 146.439  -3
  -9   1   5 2453.81 146.439  -2
  -9   1   5 2453.81 146.439   1
   9   1  -4 7490.13 362.932  -3
   9   1  -4 7490.13 362.932   1
  -9   1   4 12933.8 240.292  -3
  -9   1   4 12933.8 240.292  -2
  -9   1   4 12933.8 240.292   1
   9   1  -3 7428.36 408.991  -3
   9   1  -3 7428.36 408.991   1
  -9   1   3 9740.77 243.029  -2
  -9   1   3 9740.77 243.029   1
   9   1  -3 14158.9 432.645  -3
   9   1  -3 14158.9 432.645  -2
   9   1  -3 14158.9 432.645   1
   9   1  -2 7021.63 448.078  -3
   9   1  -2 7021.63 448.078   1
  -9   1   2 12447.4 395.240  -2
  -9   1   2 12447.4 395.240   1
   9   1  -2 14062.2 454.602  -3
   9   1  -2 14062.2 454.602  -2
   9   1  -2 14062.2 454.602   1
   9   1  -1 2772.79 345.824  -3
   9   1  -1 2772.79 345.824   1
  -9   1   1 4122.60 243.136  -2
  -9   1   1 4122.60 243.136   1
   9   1  -1 5148.24 256.980  -3
   9   1  -1 5148.24 256.980  -2
   9   1  -1 5148.24 256.980   1
   9   1   0 2497.01 362.010  -3
   9   1   0 2497.01 362.010   1
  -9   1   0 4855.39 247.728  -2
  -9   1   0 4855.39 247.728   1
  -9   1   0 5534.99 308.647  -3
  -9   1   0 5534.99 308.647  -2
  -9   1   0 5534.99 308.647   1
  -9   1  -1 7796.53 303.562  -2
  -9   1  -1 7796.53 303.562   1
  -9   1  -1 8932.02 314.924  -3
  -9   1  -1 8932.02 314.924  -2
  -9   1  -1 8932.02 314.924   1
  -9   1  -2 11907.8 267.399  -3
  -9   1  -2 11907.8 267.399  -2
  -9   1  -2 11907.8 267.399   1
  -9   1  -3 10215.5 334.885  -3
  -9   1  -3 10215.5 334.885  -2
  -9   1  -3 10215.5 334.885   1
  -9   1  -4 4219.87 254.841  -3
  -9   1  -4 4219.87 254.841  -2
  -9   1  -4 4219.87 254.841   1
  -9   1  -5 458.455 158.967  -3
  -9   1  -5 458.455 158.967  -2
  -9   1  -5 458.455 158.967   1
  -9   1  -6 3921.23 258.200  -3
  -9   1  -6 3921.23 258.200  -2
  -9   1  -6 3921.23 258.200   1
   9   1   7 8995.76 680.379  -3
   9   1   7 8995.76 680.379  -2
   9   1   7 8995.76 680.379   1
   9   1   8 4813.15 566.267  -3
   9   1   8 4813.15 566.267  -2
   9   1   8 4813.15 566.267   1
  -9   2  11 3086.86 408.842  -3
  -9   2  11 3086.86 408.842  -2
  -9   2  11 3086.86 408.842   1
  -9   2  10 6511.01 488.736  -3
  -9   2  10 6511.01 488.736  -2
  -9   2  10 6511.01 488.736   1
  -9   2   9 2456.96 339.698  -3
  -9   2   9 2456.96 339.698  -2
  -9   2   9 2456.96 339.698   1
  -9   2   8 175.963 160.042  -3
  -9   2   8 175.963 160.042  -2
  -9   2   8 175.963 160.042   1
  -9   2   7 4392.39 230.676  -3
  -9   2   7 4392.39 230.676  -2
  -9   2   7 4392.39 230.676   1
   9   2  -6 5401.22 173.325   1
   9   2  -6 12962.0 719.277  -2
   9   2  -6 12962.0 719.277   1
  -9   2   6 12442.5 291.052  -3
  -9   2   6 12442.5 291.052  -2
  -9   2   6 12442.5 291.052   1
   9   2  -5 4949.62 251.599   1
  -9   2   5 8514.57 199.423  -3
  -9   2   5 8514.57 199.423  -2
  -9   2   5 8514.57 199.423   1
   9   2  -4 2857.24 261.384  -3
   9   2  -4 2857.24 261.384   1
  -9   2   4 3991.84 144.895  -2
  -9   2   4 3991.84 144.895   1
   9   2  -4 5386.00 346.214  -3
   9   2  -4 5386.00 346.214  -2
   9   2  -4 5386.00 346.214   1
   9   2  -3 102.949 177.071  -3
   9   2  -3 102.949 177.071   1
   9   2  -3 107.340 180.841  -3
   9   2  -3 107.340 180.841  -2
   9   2  -3 107.340 180.841   1
   9   2  -2 4004.31 378.430  -3
   9   2  -2 4004.31 378.430   1
   9   2  -2 8662.86 344.708  -3
   9   2  -2 8662.86 344.708  -2
   9   2  -2 8662.86 344.708   1
   9   2  -1 5815.31 461.273  -3
   9   2  -1 5815.31 461.273   1
   9   2  -1 13301.8 411.533  -3
   9   2  -1 13301.8 411.533  -2
   9   2  -1 13301.8 411.533   1
   9   2   0 6757.82 531.084  -3
   9   2   0 6757.82 531.084   1
   9   2   0 17508.2 536.972  -3
   9   2   0 17508.2 536.972  -2
   9   2   0 17508.2 536.972   1
  -9   2  -1 6181.94 263.891  -3
  -9   2  -1 6181.94 263.891  -2
  -9   2  -1 6181.94 263.891   1
  -9   2  -2 764.491 221.106  -3
  -9   2  -2 764.491 221.106  -2
  -9   2  -2 764.491 221.106   1
   9   2   3 2421.43 274.200  -3
   9   2   3 2421.43 274.200  -2
   9   2   3 2421.43 274.200   1
  -9   2  -4 13500.8 515.447  -3
  -9   2  -4 13500.8 515.447  -2
  -9   2  -4 13500.8 515.447   1
   9   2   5 8789.44 440.584  -3
   9   2   5 8789.44 440.584  -2
   9   2   5 8789.44 440.584   1
   9   2   6 3257.54 384.947  -3
   9   2   6 3257.54 384.947  -2
   9   2   6 3257.54 384.947   1
   9   2   7 1535.27 442.465  -3
   9   2   7 1535.27 442.465  -2
   9   2   7 1535.27 442.465   1
  -9   3   7 2547.09 262.484  -3
  -9   3   7 2547.09 262.484  -2
  -9   3   7 2547.09 262.484   1
  -9   3   6 174.856 116.876  -3
  -9   3   6 174.856 116.876   1
   9   3  -6 624.624 265.581  -3
   9   3  -6 624.624 265.581  -2
   9   3  -6 624.624 265.581   1
   9   3  -5 414.584 158.774  -3
   9   3  -5 414.584 158.774   1
   9   3  -5 798.211 271.243  -3
   9   3  -5 798.211 271.243  -2
   9   3  -5 798.211 271.243   1
   9   3  -4 5922.42 381.813  -3
   9   3  -4 5922.42 381.813   1
  -9   3   4 9163.70 432.753  -3
  -9   3   4 9163.70 432.753  -2
  -9   3   4 9163.70 432.753   1
   9   3  -3 6901.91 432.389  -3
   9   3  -3 6901.91 432.389   1
   9   3  -3 10954.7 465.027  -3
   9   3  -3 10954.7 465.027  -2
   9   3  -3 10954.7 465.027   1
   9   3  -2 5891.22 459.569  -3
   9   3  -2 5891.22 459.569   1
   9   3  -2 9549.66 658.228  -2
   9   3  -2 9549.66 658.228   1
   9   3  -2 9604.93 436.892  -3
   9   3  -2 9604.93 436.892  -2
   9   3  -2 9604.93 436.892   1
   9   3  -1 474.381 238.296  -3
   9   3  -1 474.381 238.296   1
   9   3  -1 882.378 191.700  -3
   9   3  -1 882.378 191.700  -2
   9   3  -1 882.378 191.700   1
   9   3   0 522.584 176.450  -3
   9   3   0 522.584 176.450  -2
   9   3   0 522.584 176.450   1
  -9   3  -1 5639.51 348.671  -3
  -9   3  -1 5639.51 348.671  -2
  -9   3  -1 5639.51 348.671   1
   9   3   2 11258.8 464.678  -3
   9   3   2 11258.8 464.678  -2
   9   3   2 11258.8 464.678   1
   9   3   3 13504.2 505.887  -3
   9   3   3 13504.2 505.887  -2
   9   3   3 13504.2 505.887   1
  -9   3  -4 961.170 245.177  -3
  -9   3  -4 961.170 245.177  -2
  -9   3  -4 961.170 245.177   1
   9   3   5 403.013 281.305  -3
   9   3   5 403.013 281.305  -2
   9   3   5 403.013 281.305   1
   9   3   6 2854.71 578.570  -3
   9   3   6 2854.71 578.570  -2
   9   3   6 2854.71 578.570   1
  -9   4   7 3762.46 605.763  -3
  -9   4   7 3762.46 605.763  -2
  -9   4   7 3762.46 605.763   1
   9   4  -6 6784.06 505.445  -3
   9   4  -6 6784.06 505.445  -2
   9   4  -6 6784.06 505.445   1
  -9   4   5 7059.93 500.815  -3
  -9   4   5 7059.93 500.815  -2
  -9   4   5 7059.93 500.815   1
  -9   4   4 1826.50 313.012  -3
  -9   4   4 1826.50 313.012  -2
  -9   4   4 1826.50 313.012   1
   9   4  -3 381.212 209.777  -3
   9   4  -3 381.212 209.777   1
  -9   4   3 218.489 202.142  -3
  -9   4   3 218.489 202.142  -2
  -9   4   3 218.489 202.142   1
   9   4  -2 4351.87 548.091  -2
   9   4  -2 4351.87 548.091   1
   9   4  -2 4332.46 326.204  -3
   9   4  -2 4332.46 326.204  -2
   9   4  -2 4332.46 326.204   1
   9   4  -1 7044.00 335.635  -3
   9   4  -1 7044.00 335.635  -2
   9   4  -1 7044.00 335.635   1
  -9   4   0 9403.91 370.673  -3
  -9   4   0 9403.91 370.673  -2
  -9   4   0 9403.91 370.673   1
   9   4   1 872.437 201.040  -3
   9   4   1 872.437 201.040  -2
   9   4   1 872.437 201.040   1
   9   4   2 696.024 189.302  -3
   9   4   2 696.024 189.302  -2
   9   4   2 696.024 189.302   1
  -9   4  -3 1930.05 269.326  -3
  -9   4  -3 1930.05 269.326  -2
  -9   4  -3 1930.05 269.326   1
  -9   4  -4 5552.58 451.723  -3
  -9   4  -4 5552.58 451.723  -2
  -9   4  -4 5552.58 451.723   1
   9   4   5 5371.40 653.733  -3
   9   4   5 5371.40 653.733  -2
   9   4   5 5371.40 653.733   1
  -9   5   6 54.1763 298.139  -3
  -9   5   6 54.1763 298.139  -2
  -9   5   6 54.1763 298.139   1
  -9   5   5 2326.11 474.869  -3
  -9   5   5 2326.11 474.869  -2
  -9   5   5 2326.11 474.869   1
  -9   5   4 5045.68 605.021  -3
  -9   5   4 5045.68 605.021  -2
  -9   5   4 5045.68 605.021   1
  -9   5   3 3399.77 530.752  -3
  -9   5   3 3399.77 530.752  -2
  -9   5   3 3399.77 530.752   1
  -9   5   2 4061.84 379.441  -3
  -9   5   2 4061.84 379.441  -2
  -9   5   2 4061.84 379.441   1
  -9   5   1 611.991 268.258  -3
  -9   5   1 611.991 268.258  -2
  -9   5   1 611.991 268.258   1
   9   5   0 2677.44 333.792  -3
   9   5   0 2677.44 333.792  -2
   9   5   0 2677.44 333.792   1
   9   5   1 2771.19 330.390  -3
   9   5   1 2771.19 330.390  -2
   9   5   1 2771.19 330.390   1
   9   5   2 2240.29 324.809  -3
   9   5   2 2240.29 324.809  -2
   9   5   2 2240.29 324.809   1
   9   5   3 3193.19 352.088  -3
   9   5   3 3193.19 352.088  -2
   9   5   3 3193.19 352.088   1
   9   5   4 985.901 416.421  -3
   9   5   4 985.901 416.421  -2
   9   5   4 985.901 416.421   1
 -10  -5   0 1358.80 457.693  -3
 -10  -5   0 1358.80 457.693   1
  10  -4  -8 2824.14 433.625  -2
  10  -4  -8 2824.14 433.625   1
  10  -4  -7 2187.39 402.516  -2
  10  -4  -7 2187.39 402.516   1
  10  -4  -6 4676.17 539.790  -3
  10  -4  -6 4676.17 539.790  -2
  10  -4  -6 4676.17 539.790   1
 -10  -4   5 1436.84 302.651  -3
 -10  -4   5 1436.84 302.651  -2
 -10  -4   5 1436.84 302.651   1
 -10  -4   4 108.265 361.227  -3
 -10  -4   4 108.265 361.227  -2
 -10  -4   4 108.265 361.227   1
 -10  -4   3 2154.86 349.474  -3
 -10  -4   3 2154.86 349.474  -2
 -10  -4   3 2154.86 349.474   1
  10  -4  -2 6023.15 468.615  -3
  10  -4  -2 6023.15 468.615  -2
  10  -4  -2 6023.15 468.615   1
  10  -4  -1 4805.61 434.783  -3
  10  -4  -1 4805.61 434.783  -2
  10  -4  -1 4805.61 434.783   1
 -10  -4   0 1970.46 332.907  -3
 -10  -4   0 1970.46 332.907  -2
 -10  -4   0 1970.46 332.907   1
  10  -4   1 438.635 266.605  -3
  10  -4   1 438.635 266.605  -2
  10  -4   1 438.635 266.605   1
  10  -4   2 1480.13 318.934  -3
  10  -4   2 1480.13 318.934  -2
  10  -4   2 1480.13 318.934   1
  10  -4   3 6751.11 697.587  -3
  10  -4   3 6751.11 697.587  -2
  10  -4   3 6751.11 697.587   1
  10  -3  -8 339.991 248.532  -2
  10  -3  -8 339.991 248.532   1
  10  -3  -7 82.8287 236.784  -2
  10  -3  -7 82.8287 236.784   1
  10  -3  -6 430.753 261.993  -2
  10  -3  -6 430.753 261.993   1
 -10  -3   6 659.329 441.457  -3
 -10  -3   6 659.329 441.457  -2
 -10  -3   6 659.329 441.457   1
 -10  -3   5 6074.45 409.443  -3
 -10  -3   5 6074.45 409.443  -2
 -10  -3   5 6074.45 409.443   1
 -10  -3   4 8891.05 580.089  -3
 -10  -3   4 8891.05 580.089  -2
 -10  -3   4 8891.05 580.089   1
  10  -3  -3 5978.68 495.970  -3
  10  -3  -3 5978.68 495.970  -2
  10  -3  -3 5978.68 495.970   1
  10  -3  -2 328.361 274.602  -3
  10  -3  -2 328.361 274.602  -2
  10  -3  -2 328.361 274.602   1
  10  -3  -1 1370.13 319.678  -3
  10  -3  -1 1370.13 319.678  -2
  10  -3  -1 1370.13 319.678   1
  10  -3   0 7005.09 508.061  -3
  10  -3   0 7005.09 508.061  -2
  10  -3   0 7005.09 508.061   1
 -10  -3  -1 8444.63 554.171  -3
 -10  -3  -1 8444.63 554.171  -2
 -10  -3  -1 8444.63 554.171   1
  10  -3   2 7203.11 533.856  -3
  10  -3   2 7203.11 533.856  -2
  10  -3   2 7203.11 533.856   1
  10  -3   3 293.387 264.407  -3
  10  -3   3 293.387 264.407  -2
  10  -3   3 293.387 264.407   1
  10  -3   4 222.008 429.667  -3
  10  -3   4 222.008 429.667  -2
  10  -3   4 222.008 429.667   1
 -10  -2   9 2730.15 432.068  -2
 -10  -2   9 2730.15 432.068   1
 -10  -2   8 2544.21 242.547  -2
 -10  -2   8 2544.21 242.547   1
  10  -2  -7 5157.47 387.263  -2
  10  -2  -7 5157.47 387.263   1
  10  -2  -6 6909.51 433.692  -2
  10  -2  -6 6909.51 433.692   1
 -10  -2   6 7324.78 771.945  -3
 -10  -2   6 7324.78 771.945  -2
 -10  -2   6 7324.78 771.945   1
 -10  -2   5 2458.17 542.966  -3
 -10  -2   5 2458.17 542.966  -2
 -10  -2   5 2458.17 542.966   1
  10  -2  -4 420.857 284.204  -3
  10  -2  -4 420.857 284.204  -2
  10  -2  -4 420.857 284.204   1
  10  -2  -3 4831.79 468.072  -3
  10  -2  -3 4831.79 468.072  -2
  10  -2  -3 4831.79 468.072   1
  10  -2  -2 6833.05 287.737   1
  10  -2  -2 14705.2 709.283  -3
  10  -2  -2 14705.2 709.283  -2
  10  -2  -2 14705.2 709.283   1
  10  -2  -1 8214.96 558.347  -3
  10  -2  -1 8214.96 558.347  -2
  10  -2  -1 8214.96 558.347   1
  10  -2   0 5246.97 469.161  -3
  10  -2   0 5246.97 469.161  -2
  10  -2   0 5246.97 469.161   1
  10  -2   1-14.2048 253.525  -3
  10  -2   1-14.2048 253.525  -2
  10  -2   1-14.2048 253.525   1
 -10  -2  -2 3695.59 428.696  -3
 -10  -2  -2 3695.59 428.696  -2
 -10  -2  -2 3695.59 428.696   1
  10  -2   3 8729.02 593.056  -3
  10  -2   3 8729.02 593.056  -2
  10  -2   3 8729.02 593.056   1
  10  -2   4 8961.60 879.290  -3
  10  -2   4 8961.60 879.290  -2
  10  -2   4 8961.60 879.290   1
 -10  -1  10 4553.47 481.309  -2
 -10  -1  10 4553.47 481.309   1
 -10  -1   9 6251.51 537.889  -3
 -10  -1   9 6251.51 537.889  -2
 -10  -1   9 6251.51 537.889   1
 -10  -1   8 3446.02 219.634  -2
 -10  -1   8 3446.02 219.634   1
 -10  -1   7 76.7912 133.551  -2
 -10  -1   7 76.7912 133.551   1
 -10  -1   6 1613.46 509.215  -3
 -10  -1   6 1613.46 509.215  -2
 -10  -1   6 1613.46 509.215   1
 -10  -1   5 9491.36 611.578  -3
 -10  -1   5 9491.36 611.578  -2
 -10  -1   5 9491.36 611.578   1
  10  -1  -4 10594.2 330.488  -2
  10  -1  -4 10594.2 330.488   1
 -10  -1   4 12943.2 690.632  -3
 -10  -1   4 12943.2 690.632  -2
 -10  -1   4 12943.2 690.632   1
 -10  -1   3 5777.19 265.309  -2
 -10  -1   3 5777.19 265.309   1
  10  -1  -3 7062.37 535.077  -3
  10  -1  -3 7062.37 535.077  -2
  10  -1  -3 7062.37 535.077   1
 -10  -1   2 1678.88 311.897  -2
 -10  -1   2 1678.88 311.897   1
  10  -1  -2 1682.94 184.229  -3
  10  -1  -2 1682.94 184.229  -2
  10  -1  -2 1682.94 184.229   1
 -10  -1   1 2472.63 328.420  -2
 -10  -1   1 2472.63 328.420   1
  10  -1  -1 3154.73 408.010  -3
  10  -1  -1 3154.73 408.010  -2
  10  -1  -1 3154.73 408.010   1
 -10  -1   0 6017.21 458.256  -2
 -10  -1   0 6017.21 458.256   1
  10  -1   0 5586.45 487.644  -3
  10  -1   0 5586.45 487.644  -2
  10  -1   0 5586.45 487.644   1
 -10  -1  -1 13980.5 655.806  -2
 -10  -1  -1 13980.5 655.806   1
  10  -1   1 14608.9 723.140  -3
  10  -1   1 14608.9 723.140  -2
  10  -1   1 14608.9 723.140   1
 -10  -1  -2 14126.8 493.101  -3
 -10  -1  -2 14126.8 493.101  -2
 -10  -1  -2 14126.8 493.101   1
  10  -1   3 3297.99 432.980  -3
  10  -1   3 3297.99 432.980  -2
  10  -1   3 3297.99 432.980   1
  10  -1   4 1551.64 528.391  -3
  10  -1   4 1551.64 528.391  -2
  10  -1   4 1551.64 528.391   1
  10  -1   5 3885.44 664.489  -3
  10  -1   5 3885.44 664.489  -2
  10  -1   5 3885.44 664.489   1
 -10   0  10 1268.34 358.397  -3
 -10   0  10 1268.34 358.397  -2
 -10   0  10 1268.34 358.397   1
 -10   0   9 11.2353 289.658  -3
 -10   0   9 11.2353 289.658  -2
 -10   0   9 11.2353 289.658   1
 -10   0   8 6017.13 463.896  -3
 -10   0   8 6017.13 463.896  -2
 -10   0   8 6017.13 463.896   1
  10   0  -7 5394.94 260.026   1
 -10   0   7 9703.57 535.679  -3
 -10   0   7 9703.57 535.679  -2
 -10   0   7 9703.57 535.679   1
  10   0  -6 3569.19 263.562   1
 -10   0   6 6376.74 307.230  -2
 -10   0   6 6376.74 307.230   1
 -10   0   6 8963.37 899.250  -3
 -10   0   6 8963.37 899.250  -2
 -10   0   6 8963.37 899.250   1
  10   0  -5 1955.30 256.416  -3
  10   0  -5 1955.30 256.416   1
 -10   0   5 2837.82 169.657  -2
 -10   0   5 2837.82 169.657   1
 -10   0   5 3582.96 441.268  -3
 -10   0   5 3582.96 441.268  -2
 -10   0   5 3582.96 441.268   1
  10   0  -4-35.8474 235.132  -3
  10   0  -4-35.8474 235.132   1
  10   0  -4 218.433 133.857  -2
  10   0  -4 218.433 133.857   1
  10   0  -4 399.860 262.928  -3
  10   0  -4 399.860 262.928  -2
  10   0  -4 399.860 262.928   1
  10   0  -3 1458.05 300.273  -3
  10   0  -3 1458.05 300.273   1
 -10   0   3 2995.74 319.768  -2
 -10   0   3 2995.74 319.768   1
 -10   0   3 2937.46 216.693  -3
 -10   0   3 2937.46 216.693  -2
 -10   0   3 2937.46 216.693   1
  10   0  -2 7988.69 506.784  -3
  10   0  -2 7988.69 506.784   1
 -10   0   2 13033.0 558.902  -2
 -10   0   2 13033.0 558.902   1
  10   0  -2 14029.3 391.670  -3
  10   0  -2 14029.3 391.670  -2
  10   0  -2 14029.3 391.670   1
 -10   0   1 11135.6 524.709  -2
 -10   0   1 11135.6 524.709   1
  10   0  -1 13200.7 478.477  -3
  10   0  -1 13200.7 478.477  -2
  10   0  -1 13200.7 478.477   1
 -10   0   0 4712.87 362.302  -2
 -10   0   0 4712.87 362.302   1
 -10   0   0 4965.24 223.293  -3
 -10   0   0 4965.24 223.293  -2
 -10   0   0 4965.24 223.293   1
 -10   0  -1 2018.49 255.666  -2
 -10   0  -1 2018.49 255.666   1
 -10   0  -1 2240.21 203.644  -3
 -10   0  -1 2240.21 203.644  -2
 -10   0  -1 2240.21 203.644   1
 -10   0  -2 2859.77 184.182  -3
 -10   0  -2 2859.77 184.182  -2
 -10   0  -2 2859.77 184.182   1
 -10   0  -3 18399.5 412.037  -3
 -10   0  -3 18399.5 412.037  -2
 -10   0  -3 18399.5 412.037   1
  10   0   4 13394.8 373.826  -3
  10   0   4 13394.8 373.826  -2
  10   0   4 13394.8 373.826   1
  10   0   5 4714.91 388.298  -3
  10   0   5 4714.91 388.298  -2
  10   0   5 4714.91 388.298   1
 -10   1  11 459.218 327.665  -3
 -10   1  11 459.218 327.665  -2
 -10   1  11 459.218 327.665   1
 -10   1  10 5640.80 465.369  -3
 -10   1  10 5640.80 465.369  -2
 -10   1  10 5640.80 465.369   1
 -10   1   9 5821.49 438.128  -3
 -10   1   9 5821.49 438.128  -2
 -10   1   9 5821.49 438.128   1
 -10   1   8 3550.38 347.110  -3
 -10   1   8 3550.38 347.110  -2
 -10   1   8 3550.38 347.110   1
 -10   1   7 17.9089 137.627  -3
 -10   1   7 17.9089 137.627  -2
 -10   1   7 17.9089 137.627   1
  10   1  -6 520.374 115.997   1
  10   1  -6 1336.92 278.586  -2
  10   1  -6 1336.92 278.586   1
 -10   1   6 1161.35 121.818  -3
 -10   1   6 1161.35 121.818  -2
 -10   1   6 1161.35 121.818   1
  10   1  -5 4721.34 288.967  -3
  10   1  -5 4721.34 288.967   1
 -10   1   5 6783.24 216.072  -2
 -10   1   5 6783.24 216.072   1
 -10   1   5 8315.67 400.135  -3
 -10   1   5 8315.67 400.135  -2
 -10   1   5 8315.67 400.135   1
  10   1  -4 6725.74 371.451  -3
  10   1  -4 6725.74 371.451   1
 -10   1   4 8161.83 245.888  -2
 -10   1   4 8161.83 245.888   1
  10   1  -4 11267.4 386.054  -3
  10   1  -4 11267.4 386.054  -2
  10   1  -4 11267.4 386.054   1
  10   1  -3 3890.99 343.857  -3
  10   1  -3 3890.99 343.857   1
 -10   1   3 4069.18 167.716  -2
 -10   1   3 4069.18 167.716   1
  10   1  -3 6659.20 326.964  -3
  10   1  -3 6659.20 326.964  -2
  10   1  -3 6659.20 326.964   1
  10   1  -2 1096.47 265.071  -3
  10   1  -2 1096.47 265.071   1
 -10   1   2 1355.04 170.912  -2
 -10   1   2 1355.04 170.912   1
  10   1  -2 1815.62 217.511  -3
  10   1  -2 1815.62 217.511  -2
  10   1  -2 1815.62 217.511   1
 -10   1   1 1675.78 172.839  -2
 -10   1   1 1675.78 172.839   1
  10   1  -1 2468.06 205.006  -3
  10   1  -1 2468.06 205.006  -2
  10   1  -1 2468.06 205.006   1
 -10   1   0 4577.47 237.684  -2
 -10   1   0 4577.47 237.684   1
 -10   1   0 5945.13 325.131  -3
 -10   1   0 5945.13 325.131  -2
 -10   1   0 5945.13 325.131   1
 -10   1  -1 10437.3 334.323  -2
 -10   1  -1 10437.3 334.323   1
 -10   1  -1 13027.7 381.593  -3
 -10   1  -1 13027.7 381.593  -2
 -10   1  -1 13027.7 381.593   1
  10   1   2 12667.1 334.770  -3
  10   1   2 12667.1 334.770  -2
  10   1   2 12667.1 334.770   1
 -10   1  -3 2756.21 191.938  -3
 -10   1  -3 2756.21 191.938  -2
 -10   1  -3 2756.21 191.938   1
  10   1   4 2101.00 318.180  -3
  10   1   4 2101.00 318.180  -2
  10   1   4 2101.00 318.180   1
  10   1   5 3696.81 381.537  -3
  10   1   5 3696.81 381.537  -2
  10   1   5 3696.81 381.537   1
  10   1   6 10789.1 702.432  -3
  10   1   6 10789.1 702.432  -2
  10   1   6 10789.1 702.432   1
  10   1   7 6517.20 592.344  -3
  10   1   7 6517.20 592.344  -2
  10   1   7 6517.20 592.344   1
 -10   2   8 2756.58 297.222  -3
 -10   2   8 2756.58 297.222  -2
 -10   2   8 2756.58 297.222   1
 -10   2   7 4377.27 298.631  -3
 -10   2   7 4377.27 298.631  -2
 -10   2   7 4377.27 298.631   1
  10   2  -6 7319.86 555.566  -2
  10   2  -6 7319.86 555.566   1
 -10   2   6 6897.71 280.678  -3
 -10   2   6 6897.71 280.678  -2
 -10   2   6 6897.71 280.678   1
  10   2  -5 975.928 178.555  -3
  10   2  -5 975.928 178.555   1
  10   2  -5 2044.61 262.256  -3
  10   2  -5 2044.61 262.256  -2
  10   2  -5 2044.61 262.256   1
  10   2  -4 174.245 176.621  -3
  10   2  -4 174.245 176.621   1
  10   2  -4 510.725 204.246  -3
  10   2  -4 510.725 204.246  -2
  10   2  -4 510.725 204.246   1
  10   2  -3 1995.40 281.514  -3
  10   2  -3 1995.40 281.514   1
  10   2  -3 4510.53 333.729  -3
  10   2  -3 4510.53 333.729  -2
  10   2  -3 4510.53 333.729   1
  10   2  -2 6130.17 455.465  -3
  10   2  -2 6130.17 455.465   1
  10   2  -2 13883.9 520.868  -3
  10   2  -2 13883.9 520.868  -2
  10   2  -2 13883.9 520.868   1
  10   2  -1 8166.91 342.886  -3
  10   2  -1 8166.91 342.886  -2
  10   2  -1 8166.91 342.886   1
  10   2   0 4964.08 284.564  -3
  10   2   0 4964.08 284.564  -2
  10   2   0 4964.08 284.564   1
 -10   2  -1 50.1524 132.256  -3
 -10   2  -1 50.1524 132.256  -2
 -10   2  -1 50.1524 132.256   1
 -10   2  -2 3437.43 312.841  -3
 -10   2  -2 3437.43 312.841  -2
 -10   2  -2 3437.43 312.841   1
  10   2   3 8738.75 431.629  -3
  10   2   3 8738.75 431.629  -2
  10   2   3 8738.75 431.629   1
  10   2   4 7984.02 492.413  -3
  10   2   4 7984.02 492.413  -2
  10   2   4 7984.02 492.413   1
  10   2   5 2993.79 488.530  -3
  10   2   5 2993.79 488.530  -2
  10   2   5 2993.79 488.530   1
  10   2   6 911.837 411.243  -3
  10   2   6 911.837 411.243  -2
  10   2   6 911.837 411.243   1
  10   3  -6 754.253 280.767  -3
  10   3  -6 754.253 280.767  -2
  10   3  -6 754.253 280.767   1
 -10   3   5 5562.79 455.679  -3
 -10   3   5 5562.79 455.679  -2
 -10   3   5 5562.79 455.679   1
  10   3  -4 5354.37 379.750  -3
  10   3  -4 5354.37 379.750   1
 -10   3   4 9389.71 453.822  -3
 -10   3   4 9389.71 453.822  -2
 -10   3   4 9389.71 453.822   1
  10   3  -3 3416.46 357.836  -3
  10   3  -3 3416.46 357.836   1
  10   3  -3 5424.92 363.234  -3
  10   3  -3 5424.92 363.234  -2
  10   3  -3 5424.92 363.234   1
  10   3  -2 156.949 289.898  -2
  10   3  -2 156.949 289.898   1
  10   3  -2 396.317 218.063  -3
  10   3  -2 396.317 218.063  -2
  10   3  -2 396.317 218.063   1
  10   3  -1 1292.07 370.130  -2
  10   3  -1 1292.07 370.130   1
  10   3  -1 1331.68 244.381  -3
  10   3  -1 1331.68 244.381  -2
  10   3  -1 1331.68 244.381   1
  10   3   0 7466.10 342.413  -3
  10   3   0 7466.10 342.413  -2
  10   3   0 7466.10 342.413   1
 -10   3  -1 6963.60 339.002  -3
 -10   3  -1 6963.60 339.002  -2
 -10   3  -1 6963.60 339.002   1
  10   3   2 8568.04 420.639  -3
  10   3   2 8568.04 420.639  -2
  10   3   2 8568.04 420.639   1
  10   3   3 187.737 217.557  -3
  10   3   3 187.737 217.557  -2
  10   3   3 187.737 217.557   1
  10   3   4 616.928 281.658  -3
  10   3   4 616.928 281.658  -2
  10   3   4 616.928 281.658   1
 -10   4   5 1838.64 501.481  -3
 -10   4   5 1838.64 501.481  -2
 -10   4   5 1838.64 501.481   1
 -10   4   4-55.7015 234.481  -3
 -10   4   4-55.7015 234.481  -2
 -10   4   4-55.7015 234.481   1
 -10   4   3 2619.26 296.016  -3
 -10   4   3 2619.26 296.016  -2
 -10   4   3 2619.26 296.016   1
  10   4  -2 6230.52 598.918  -2
  10   4  -2 6230.52 598.918   1
  10   4  -2 6380.54 389.150  -3
  10   4  -2 6380.54 389.150  -2
  10   4  -2 6380.54 389.150   1
  10   4  -1 5836.90 586.349  -2
  10   4  -1 5836.90 586.349   1
  10   4  -1 5402.49 369.314  -3
  10   4  -1 5402.49 369.314  -2
  10   4  -1 5402.49 369.314   1
  10   4   0 2319.54 308.350  -2
  10   4   0 2319.54 308.350   1
 -10   4   0 2419.49 363.909  -3
 -10   4   0 2419.49 363.909  -2
 -10   4   0 2419.49 363.909   1
  10   4   1 249.290 318.032  -2
  10   4   1 249.290 318.032   1
  10   4   1 64.6991 250.712  -3
  10   4   1 64.6991 250.712  -2
  10   4   1 64.6991 250.712   1
  10   4   2 1777.77 334.888  -3
  10   4   2 1777.77 334.888  -2
  10   4   2 1777.77 334.888   1
  10   4   3 7053.57 693.050  -3
  10   4   3 7053.57 693.050  -2
  10   4   3 7053.57 693.050   1
 -10   5   4 3750.93 572.763  -3
 -10   5   4 3750.93 572.763  -2
 -10   5   4 3750.93 572.763   1
 -10   5   3 1803.52 465.714  -3
 -10   5   3 1803.52 465.714  -2
 -10   5   3 1803.52 465.714   1
  10   5  -2 1390.46 370.851  -2
  10   5  -2 1390.46 370.851   1
 -10   5   2 758.217 390.378  -3
 -10   5   2 758.217 390.378  -2
 -10   5   2 758.217 390.378   1
  10   5  -1 933.594 374.740  -2
  10   5  -1 933.594 374.740   1
 -10   5   1 725.329 382.236  -3
 -10   5   1 725.329 382.236  -2
 -10   5   1 725.329 382.236   1
  10   5   0 1743.49 319.370  -3
  10   5   0 1743.49 319.370  -2
  10   5   0 1743.49 319.370   1
  10   5   1 3255.05 375.054  -3
  10   5   1 3255.05 375.054  -2
  10   5   1 3255.05 375.054   1
  10   5   2 7202.15 660.309  -3
  10   5   2 7202.15 660.309  -2
  10   5   2 7202.15 660.309   1
  11  -4  -3 4129.37 614.664  -3
  11  -4  -3 4129.37 614.664  -2
  11  -4  -3 4129.37 614.664   1
  11  -4  -2 3398.31 582.057  -3
  11  -4  -2 3398.31 582.057  -2
  11  -4  -2 3398.31 582.057   1
  11  -4  -1 348.566 406.614  -3
  11  -4  -1 348.566 406.614  -2
  11  -4  -1 348.566 406.614   1
  11  -4   0 0.34232 363.060  -3
  11  -4   0 0.34232 363.060  -2
  11  -4   0 0.34232 363.060   1
  11  -4   1 1837.55 496.222  -3
  11  -4   1 1837.55 496.222  -2
  11  -4   1 1837.55 496.222   1
  11  -3  -7 1887.04 335.469  -2
  11  -3  -7 1887.04 335.469   1
  11  -3  -6 6563.71 492.139  -2
  11  -3  -6 6563.71 492.139   1
  11  -3  -4 2165.39 523.149  -3
  11  -3  -4 2165.39 523.149  -2
  11  -3  -4 2165.39 523.149   1
  11  -3  -3 44.1680 275.983  -3
  11  -3  -3 44.1680 275.983  -2
  11  -3  -3 44.1680 275.983   1
  11  -3  -2 1966.65 368.679  -3
  11  -3  -2 1966.65 368.679  -2
  11  -3  -2 1966.65 368.679   1
  11  -3  -1 2849.87 403.015  -3
  11  -3  -1 2849.87 403.015  -2
  11  -3  -1 2849.87 403.015   1
  11  -3   0 5603.99 695.624  -3
  11  -3   0 5603.99 695.624  -2
  11  -3   0 5603.99 695.624   1
  11  -3   1 5460.66 710.958  -3
  11  -3   1 5460.66 710.958  -2
  11  -3   1 5460.66 710.958   1
  11  -3   2 545.813 457.202  -3
  11  -3   2 545.813 457.202  -2
  11  -3   2 545.813 457.202   1
 -11  -2   8 4796.26 512.800  -2
 -11  -2   8 4796.26 512.800   1
  11  -2  -7 6523.12 422.384  -2
  11  -2  -7 6523.12 422.384   1
  11  -2  -5 1769.20 535.074  -3
  11  -2  -5 1769.20 535.074  -2
  11  -2  -5 1769.20 535.074   1
  11  -2  -4 4454.05 477.510  -3
  11  -2  -4 4454.05 477.510  -2
  11  -2  -4 4454.05 477.510   1
  11  -2  -3 10202.6 643.919  -3
  11  -2  -3 10202.6 643.919  -2
  11  -2  -3 10202.6 643.919   1
  11  -2  -2 4906.16 491.820  -3
  11  -2  -2 4906.16 491.820  -2
  11  -2  -2 4906.16 491.820   1
  11  -2  -1 971.526 335.539  -3
  11  -2  -1 971.526 335.539  -2
  11  -2  -1 971.526 335.539   1
  11  -2   0 37.5149 279.309  -3
  11  -2   0 37.5149 279.309  -2
  11  -2   0 37.5149 279.309   1
 -11  -2  -1 4291.71 463.600  -3
 -11  -2  -1 4291.71 463.600  -2
 -11  -2  -1 4291.71 463.600   1
  11  -2   2 8742.36 851.382  -3
  11  -2   2 8742.36 851.382  -2
  11  -2   2 8742.36 851.382   1
 -11  -1   9 814.672 309.476  -2
 -11  -1   9 814.672 309.476   1
  11  -1  -7 1684.08 221.190   1
 -11  -1   7 2120.44 346.350  -2
 -11  -1   7 2120.44 346.350   1
  11  -1  -5 4915.12 387.395  -3
  11  -1  -5 4915.12 387.395   1
  11  -1  -5 8404.63 604.622  -3
  11  -1  -5 8404.63 604.622  -2
  11  -1  -5 8404.63 604.622   1
  11  -1  -4 2911.79 411.056  -3
  11  -1  -4 2911.79 411.056  -2
  11  -1  -4 2911.79 411.056   1
 -11  -1   3 66.5257 216.525  -2
 -11  -1   3 66.5257 216.525   1
  11  -1  -3 72.1703 276.242  -3
  11  -1  -3 72.1703 276.242  -2
  11  -1  -3 72.1703 276.242   1
 -11  -1   2 1974.23 334.293  -2
 -11  -1   2 1974.23 334.293   1
  11  -1  -2 2164.76 233.663  -3
  11  -1  -2 2164.76 233.663  -2
  11  -1  -2 2164.76 233.663   1
 -11  -1   1 8518.69 563.896  -2
 -11  -1   1 8518.69 563.896   1
  11  -1  -1 9955.89 632.345  -3
  11  -1  -1 9955.89 632.345  -2
  11  -1  -1 9955.89 632.345   1
 -11  -1   0 10208.7 595.457  -2
 -11  -1   0 10208.7 595.457   1
  11  -1   0 11955.9 683.181  -3
  11  -1   0 11955.9 683.181  -2
  11  -1   0 11955.9 683.181   1
  11  -1   1 4331.60 471.455  -3
  11  -1   1 4331.60 471.455  -2
  11  -1   1 4331.60 471.455   1
  11  -1   2 552.678 449.523  -3
  11  -1   2 552.678 449.523  -2
  11  -1   2 552.678 449.523   1
  11  -1   3 1671.70 535.635  -3
  11  -1   3 1671.70 535.635  -2
  11  -1   3 1671.70 535.635   1
 -11   0  10 4286.93 410.896  -2
 -11   0  10 4286.93 410.896   1
 -11   0   9 3174.34 369.997  -2
 -11   0   9 3174.34 369.997   1
 -11   0   8 6103.31 447.125  -2
 -11   0   8 6103.31 447.125   1
 -11   0   7 2521.23 320.567  -2
 -11   0   7 2521.23 320.567   1
 -11   0   6 976.848 167.116  -2
 -11   0   6 976.848 167.116   1
  11   0  -5 994.918 241.727  -3
  11   0  -5 994.918 241.727   1
 -11   0   5 1718.60 149.361  -2
 -11   0   5 1718.60 149.361   1
  11   0  -5 2585.26 405.468  -3
  11   0  -5 2585.26 405.468  -2
  11   0  -5 2585.26 405.468   1
  11   0  -4 3111.19 323.291  -3
  11   0  -4 3111.19 323.291   1
  11   0  -4 4642.91 258.140  -2
  11   0  -4 4642.91 258.140   1
  11   0  -4 4897.05 324.430  -3
  11   0  -4 4897.05 324.430  -2
  11   0  -4 4897.05 324.430   1
 -11   0   3 8896.63 490.492  -2
 -11   0   3 8896.63 490.492   1
  11   0  -3 9796.85 338.647  -3
  11   0  -3 9796.85 338.647  -2
  11   0  -3 9796.85 338.647   1
 -11   0   2 9150.96 500.581  -2
 -11   0   2 9150.96 500.581   1
  11   0  -2 11270.7 362.910  -3
  11   0  -2 11270.7 362.910  -2
  11   0  -2 11270.7 362.910   1
 -11   0   1 623.184 237.421  -2
 -11   0   1 623.184 237.421   1
  11   0  -1 1047.42 345.567  -3
  11   0  -1 1047.42 345.567  -2
  11   0  -1 1047.42 345.567   1
 -11   0   0 444.018 194.084  -2
 -11   0   0 444.018 194.084   1
  11   0   0 948.928 333.365  -3
  11   0   0 948.928 333.365  -2
  11   0   0 948.928 333.365   1
 -11   0  -1 6786.92 408.279  -2
 -11   0  -1 6786.92 408.279   1
  11   0   1 8346.53 595.057  -3
  11   0   1 8346.53 595.057  -2
  11   0   1 8346.53 595.057   1
 -11   0  -2 7238.95 414.703  -2
 -11   0  -2 7238.95 414.703   1
  11   0   2 8254.62 824.373  -3
  11   0   2 8254.62 824.373  -2
  11   0   2 8254.62 824.373   1
  11   0   3 4707.99 707.432  -3
  11   0   3 4707.99 707.432  -2
  11   0   3 4707.99 707.432   1
 -11   1   7 2123.38 247.525  -2
 -11   1   7 2123.38 247.525   1
 -11   1   6 6875.36 290.579  -2
 -11   1   6 6875.36 290.579   1
  11   1  -5 4437.50 305.107  -3
  11   1  -5 4437.50 305.107   1
 -11   1   5 6063.88 259.155  -2
 -11   1   5 6063.88 259.155   1
  11   1  -5 8897.04 615.867  -3
  11   1  -5 8897.04 615.867  -2
  11   1  -5 8897.04 615.867   1
  11   1  -4 1488.87 246.273  -3
  11   1  -4 1488.87 246.273   1
 -11   1   4 1704.53 183.862  -2
 -11   1   4 1704.53 183.862   1
 -11   1   4 2396.45 204.480  -3
 -11   1   4 2396.45 204.480  -2
 -11   1   4 2396.45 204.480   1
  11   1  -3 227.978 220.776  -3
  11   1  -3 227.978 220.776   1
 -11   1   3 108.043 146.335  -3
 -11   1   3 108.043 146.335  -2
 -11   1   3 108.043 146.335   1
 -11   1   2 1440.98 142.445  -2
 -11   1   2 1440.98 142.445   1
 -11   1   2 2741.01 229.905  -3
 -11   1   2 2741.01 229.905  -2
 -11   1   2 2741.01 229.905   1
 -11   1   1 5437.98 255.455  -2
 -11   1   1 5437.98 255.455   1
 -11   1   1 9026.72 353.150  -3
 -11   1   1 9026.72 353.150  -2
 -11   1   1 9026.72 353.150   1
  11   1   0 7301.55 233.883  -2
  11   1   0 7301.55 233.883   1
 -11   1   0 10726.7 391.906  -3
 -11   1   0 10726.7 391.906  -2
 -11   1   0 10726.7 391.906   1
 -11   1  -1 4530.19 294.274  -3
 -11   1  -1 4530.19 294.274  -2
 -11   1  -1 4530.19 294.274   1
  11   1   2 92.0144 242.626  -3
  11   1   2 92.0144 242.626  -2
  11   1   2 92.0144 242.626   1
  11   1   3 1518.41 293.374  -3
  11   1   3 1518.41 293.374  -2
  11   1   3 1518.41 293.374   1
  11   2  -6 841.267 305.616  -2
  11   2  -6 841.267 305.616   1
  11   2  -5 1905.51 315.480  -3
  11   2  -5 1905.51 315.480  -2
  11   2  -5 1905.51 315.480   1
  11   2  -4 3514.15 321.373  -3
  11   2  -4 3514.15 321.373  -2
  11   2  -4 3514.15 321.373   1
  11   2  -3 9620.44 462.821  -3
  11   2  -3 9620.44 462.821  -2
  11   2  -3 9620.44 462.821   1
  11   2  -2 4164.90 335.286  -3
  11   2  -2 4164.90 335.286  -2
  11   2  -2 4164.90 335.286   1
  11   2  -1 1130.54 315.276  -2
  11   2  -1 1130.54 315.276   1
  11   2  -1 1061.85 246.871  -3
  11   2  -1 1061.85 246.871  -2
  11   2  -1 1061.85 246.871   1
  11   2   0 172.216 261.449  -2
  11   2   0 172.216 261.449   1
  11   2   0 307.569 212.394  -3
  11   2   0 307.569 212.394  -2
  11   2   0 307.569 212.394   1
  11   2   1 4342.10 389.217  -3
  11   2   1 4342.10 389.217  -2
  11   2   1 4342.10 389.217   1
  11   2   2 9435.85 521.912  -3
  11   2   2 9435.85 521.912  -2
  11   2   2 9435.85 521.912   1
  11   2   3 5640.05 442.141  -3
  11   2   3 5640.05 442.141  -2
  11   2   3 5640.05 442.141   1
  11   2   4 2934.42 475.371  -3
  11   2   4 2934.42 475.371  -2
  11   2   4 2934.42 475.371   1
  11   2   5 118.250 357.830  -3
  11   2   5 118.250 357.830  -2
  11   2   5 118.250 357.830   1
  11   3  -6 6493.65 650.149  -3
  11   3  -6 6493.65 650.149  -2
  11   3  -6 6493.65 650.149   1
  11   3  -5 6395.11 619.789  -3
  11   3  -5 6395.11 619.789  -2
  11   3  -5 6395.11 619.789   1
  11   3  -4 1746.58 316.303  -3
  11   3  -4 1746.58 316.303  -2
  11   3  -4 1746.58 316.303   1
  11   3  -3 250.460 206.440  -3
  11   3  -3 250.460 206.440  -2
  11   3  -3 250.460 206.440   1
  11   3  -2 1753.72 273.600  -3
  11   3  -2 1753.72 273.600  -2
  11   3  -2 1753.72 273.600   1
  11   3  -1 2420.48 426.653  -2
  11   3  -1 2420.48 426.653   1
  11   3  -1 3258.19 321.240  -3
  11   3  -1 3258.19 321.240  -2
  11   3  -1 3258.19 321.240   1
  11   3   0 5860.27 565.238  -2
  11   3   0 5860.27 565.238   1
  11   3   0 5831.31 458.232  -3
  11   3   0 5831.31 458.232  -2
  11   3   0 5831.31 458.232   1
  11   3   1 7275.94 590.559  -2
  11   3   1 7275.94 590.559   1
  11   3   1 6547.93 694.468  -3
  11   3   1 6547.93 694.468  -2
  11   3   1 6547.93 694.468   1
  11   3   2 735.261 294.084  -3
  11   3   2 735.261 294.084  -2
  11   3   2 735.261 294.084   1
  11   4  -3 4398.90 616.791  -3
  11   4  -3 4398.90 616.791  -2
  11   4  -3 4398.90 616.791   1
  11   4  -2 3825.91 586.178  -3
  11   4  -2 3825.91 586.178  -2
  11   4  -2 3825.91 586.178   1
  11   4  -1 686.887 437.186  -3
  11   4  -1 686.887 437.186  -2
  11   4  -1 686.887 437.186   1
  11   4   0-140.948 363.809  -3
  11   4   0-140.948 363.809  -2
  11   4   0-140.948 363.809   1
  11   4   1 2437.55 513.637  -3
  11   4   1 2437.55 513.637  -2
  11   4   1 2437.55 513.637   1
  12  -3  -6 3282.69 389.142  -2
  12  -3  -6 3282.69 389.142   1
  12  -2  -6 829.655 217.337   1
  12  -2  -2 148.805 462.211  -3
  12  -2  -2 148.805 462.211  -2
  12  -2  -2 148.805 462.211   1
 -12  -1   8 3326.61 422.615  -2
 -12  -1   8 3326.61 422.615   1
 -12  -1   7 6660.18 521.140  -2
 -12  -1   7 6660.18 521.140   1
 -12  -1   6 4291.34 432.445  -2
 -12  -1   6 4291.34 432.445   1
  12  -1  -4 236.477 439.841  -3
  12  -1  -4 236.477 439.841  -2
  12  -1  -4 236.477 439.841   1
  12  -1  -3 3069.86 616.128  -3
  12  -1  -3 3069.86 616.128  -2
  12  -1  -3 3069.86 616.128   1
  12  -1  -2 8436.35 861.981  -3
  12  -1  -2 8436.35 861.981  -2
  12  -1  -2 8436.35 861.981   1
  12  -1  -1 10210.5 914.157  -3
  12  -1  -1 10210.5 914.157  -2
  12  -1  -1 10210.5 914.157   1
 -12   0   6 1568.36 259.472  -2
 -12   0   6 1568.36 259.472   1
 -12   0   5 2278.53 281.610  -2
 -12   0   5 2278.53 281.610   1
  12   0  -4 8925.82 893.243  -3
  12   0  -4 8925.82 893.243  -2
  12   0  -4 8925.82 893.243   1
  12   0  -3 7625.91 838.899  -3
  12   0  -3 7625.91 838.899  -2
  12   0  -3 7625.91 838.899   1
  12   0  -2 1433.33 272.883  -3
  12   0  -2 1433.33 272.883  -2
  12   0  -2 1433.33 272.883   1
  12   0  -1 973.119 252.429  -3
  12   0  -1 973.119 252.429  -2
  12   0  -1 973.119 252.429   1
  12   0   0 3159.75 601.170  -3
  12   0   0 3159.75 601.170  -2
  12   0   0 3159.75 601.170   1
  12   1  -4 215.565 221.922  -3
  12   1  -4 215.565 221.922  -2
  12   1  -4 215.565 221.922   1
  12   1  -3 2537.28 330.054  -3
  12   1  -3 2537.28 330.054  -2
  12   1  -3 2537.28 330.054   1
  12   1  -2 6696.30 452.691  -3
  12   1  -2 6696.30 452.691  -2
  12   1  -2 6696.30 452.691   1
  12   1  -1 8878.94 515.815  -3
  12   1  -1 8878.94 515.815  -2
  12   1  -1 8878.94 515.815   1
  12   1   0 3041.22 352.519  -3
  12   1   0 3041.22 352.519  -2
  12   1   0 3041.22 352.519   1
  12   2  -6 1518.72 398.563  -3
  12   2  -6 1518.72 398.563  -2
  12   2  -6 1518.72 398.563   1
  12   2  -5 3040.83 449.843  -3
  12   2  -5 3040.83 449.843  -2
  12   2  -5 3040.83 449.843   1
  12   2  -4 5786.59 559.552  -3
  12   2  -4 5786.59 559.552  -2
  12   2  -4 5786.59 559.552   1
  12   2  -3 6331.10 588.187  -3
  12   2  -3 6331.10 588.187  -2
  12   2  -3 6331.10 588.187   1
  12   2  -2 280.575 258.593  -3
  12   2  -2 280.575 258.593  -2
  12   2  -2 280.575 258.593   1
  12   2  -1-13.7525 310.851  -3
  12   2  -1-13.7525 310.851  -2
  12   2  -1-13.7525 310.851   1
  12   2   0 5390.84 508.319  -2
  12   2   0 5390.84 508.319   1
  12   2   0 4758.12 538.223  -3
  12   2   0 4758.12 538.223  -2
  12   2   0 4758.12 538.223   1
  12   2   1 9446.87 635.713  -2
  12   2   1 9446.87 635.713   1
  12   3  -1 6919.98 607.858  -2
  12   3  -1 6919.98 607.858   1
  12   3   0 4459.23 507.152  -2
  12   3   0 4459.23 507.152   1
  13   1  -2 3627.67 459.166  -3
  13   1  -2 3627.67 459.166  -2
  13   1  -2 3627.67 459.166   1
  13   1  -1 1349.51 367.579  -3
  13   1  -1 1349.51 367.579  -2
  13   1  -1 1349.51 367.579   1
  13   1   0-42.3788 244.560  -2
  13   1   0-42.3788 244.560   1
  13   2  -4 3055.22 387.695  -2
  13   2  -4 3055.22 387.695   1
   0  -3   8 3361.12 288.038   2
   0  -2   7 1227.57 204.540   2
   0  -2   8 149.766 160.210   2
   0  -2   9 1570.98 210.160   2
   0  -2 -12 655.524 358.996   2
   0  -1   8 7894.44 341.581   2
   0  -1   9 2029.45 218.471   2
   0  -1 -10 328.146 135.747   2
   0   0   9 1284.54 183.522   2
   0   0  10 5207.93 322.462   2
   0   1  10 564.648 179.701   2
   1  -5   8 84.3476 214.395   2
  -1  -4   8 663.108 236.754   2
  -1  -3   8 1362.29 208.488   2
   1  -3   8 1855.51 288.773   2
   1  -3   9 16.0637 204.236   2
  -1  -3 -12 813.262 360.459   2
   1  -2 -12 1270.15 377.918   2
  -1  -2   9-73.8222 110.530   2
  -1  -2   8 2811.32 201.937   2
  -1  -2   7 5013.63 241.158   2
   1  -2   7 336.955 213.796   2
   1  -2   8 2408.38 270.962   2
   1  -2   9 2900.37 287.322   2
  -1  -2 -11 192.535 332.208   2
  -1  -2 -12 379.023 366.617   2
  -1  -1  10 1240.64 176.239   2
  -1  -1   9 4808.96 251.485   2
  -1  -1   8 3872.70 213.571   2
   1  -1   7 8181.59 367.206   2
   1  -1   8 3539.31 284.712   2
   1  -1   9 494.042 187.137   2
   1  -1  10 583.903 199.405   2
  -1   0  10 735.066 163.176   2
  -1   0   9 11.9577 117.575   2
  -1   0   8 1309.04 156.410   2
   1   0   8 3526.41 262.593   2
   1   0   9 3592.67 284.001   2
   1   0  10 4830.26 339.216   2
  -1   1  10 1893.50 231.013   2
   1   1   9 565.898 181.689   2
   1   1  10 836.137 204.776   2
  -1   2   2 23516.2 361.848  -3
  -1   2   2 23516.2 361.848   2
  -1   2   1 35443.9 443.588  -3
  -1   2   1 35443.9 443.588   2
   1   2   9 4693.81 370.934   2
  -1   3   3 12168.1 351.273  -3
  -1   3   3 12168.1 351.273   2
  -1   4   4 163.371 114.052  -3
  -1   4   4 163.371 114.052   2
  -1   5   5 1563.92 204.486  -3
  -1   5   5 1563.92 204.486   2
   2  -3   3 1181.70 110.207   2
   2  -3   8 325.152 250.131   2
   2  -3   9 473.426 257.861   2
  -2  -3 -11 376.024 360.048   2
  -2  -2   9 1175.67 105.494   2
  -2  -2   8 2198.51 125.559   2
  -2  -2   7 4615.30 169.528   2
   2  -2  -1 3980.15 132.311  -3
   2  -2  -1 3980.15 132.311   2
   2  -2   7 2873.74 328.094   2
   2  -2   8 3640.33 354.987   2
   2  -2   9 1596.55 284.497   2
  -2  -2 -11 429.046 342.736   2
   2  -1 -11 2075.06 315.173   2
  -2  -1   9 2197.38 161.991   2
  -2  -1   8 167.341 82.9282   2
  -2  -1   7 845.160 84.6527   2
  -2  -1   6 5685.85 136.445   2
   2  -1   7 1049.46 230.659   2
   2  -1   8 61.6752 190.681   2
  -2  -1  -9 1143.28 206.235   2
   2  -1  10 2159.55 296.490   2
  -2   0  10 161.004 127.311   2
  -2   0   9 5040.34 256.825   2
   2   0   7 13661.0 489.611   2
   2   0   8 4409.18 320.016   2
   2   0   9 3086.81 293.914   2
   2   0  10 544.508 205.925   2
  -2   1  10 6844.07 354.877   2
   2   1   8-9.06067 149.705   2
   2   1   9 1739.37 255.658   2
  -2   3   4 9170.07 278.344  -3
  -2   3   4 9170.07 278.344   2
  -2   3   3 2099.22 132.966  -3
  -2   3   3 2099.22 132.966   2
  -2   4   6 2824.13 212.503  -3
  -2   4   6 2824.13 212.503   2
  -2   4   5-5.13829 84.0286  -3
  -2   4   5-5.13829 84.0286   2
  -2   4   4 3350.05 203.995  -3
  -2   4   4 3350.05 203.995   2
  -2   5   8 117.839 92.9591  -3
  -2   5   8 117.839 92.9591   2
  -2   5   7 201.031 123.355  -3
  -2   5   7 201.031 123.355   2
  -2   5   6 2696.58 222.737  -3
  -2   5   6 2696.58 222.737   2
  -2   5   5 3048.75 226.223  -3
  -2   5   5 3048.75 226.223   2
   3  -6   7 153.526 221.835   2
  -3  -2   5 10355.2 204.754   2
   3  -2   7 5057.85 417.851   2
   3  -2   8 1856.97 322.545   2
  -3  -2 -10 420.464 328.140   2
   3  -1   7 130.133 218.436   2
   3  -1   8 807.985 250.575   2
   3  -1   9 3696.04 370.580   2
   3   0   7 4898.14 349.591   2
   3   0   8 5044.16 377.102   2
   3   0   9 720.953 225.154   2
   3   1  -3 379.902 48.9157   2
   3   1   7 175.251 169.295   2
   3   1   8 1007.23 228.319   2
  -3   5   7 1551.66 172.559   2
  -4  -3 -10 102.890 382.520   2
   4  -2   6 2025.19 344.178   2
   4  -2   7 1765.79 352.767   2
  -4  -2  -9 677.315 357.679   2
   4  -1   0 526.639 70.2395  -3
   4  -1   0 526.639 70.2395   2
   4  -1   6 779.371 276.784   2
   4  -1   7 1601.95 309.051   2
   4   0   6 7691.88 467.485   2
   4   0   7 5634.14 429.253   2
  -4   1   0 935.734 75.8121   2
   4   1   6 943.064 223.051   2
   4   1   7 2139.60 276.809   2
  -4   2   5 6765.29 141.448   2
  -4   3   6 416.955 55.0239   2
  -5  -3  -8 878.859 415.340   2
  -5  -3  -9 17.5794 357.776   2
   5  -2   6 2456.00 390.232   2
  -5  -2  -8 1735.08 426.665   2
   5  -1   5 837.541 300.654   2
   5  -1   6 2895.11 386.616   2
   5   0  -6 18485.0 314.954   2
   5   0   5 4877.53 433.376   2
   5   0   6 2243.24 360.501   2
  -5   1   1 3268.39 135.820   2
   5   1   5 858.210 223.338   2
   5   1   6 4583.78 386.850   2
  -5   2  10 1980.63 201.672   2
  -5   2   7 1752.08 131.493   2
   5   2  -4 1846.72 139.451   2
   5   2   5 8666.60 483.489   2
  -5   3   9 1252.62 124.929   2
  -5   3   8 643.718 61.6786   2
   6  -4   2 375.912 40.2026   2
   6  -3   2 1076.37 59.9174   2
  -6  -3  -8 472.907 397.065   2
  -6  -2  -7 1319.56 418.762   2
   6  -1   3 636.064 298.550   2
   6  -1   4 966.555 330.978   2
   6  -1   5 2424.37 392.697   2
   6   0  -7 7485.79 169.683   2
   6   0  -6 4164.47 174.481   2
   6   0   3 11032.5 592.064   2
   6   0   4 6544.69 499.163   2
   6   0   5 3842.33 443.151   2
   6   1  -5 4984.45 172.931   2
   6   1  -4 8470.21 286.255   2
   6   1   4 1186.98 261.623   2
   6   1   5 4551.02 397.984   2
  -6   2   9 1258.07 144.146   2
  -6   2   8 2706.78 154.762   2
   6   2  -5 398.256 80.9418   2
   6   2  -4 1400.21 150.712   2
   6   2  -3 4751.07 261.606   2
   6   2  -2 12545.7 442.660   2
   6   2  -1 9410.90 412.060   2
   6   3  -4 784.658 152.083   2
   6   3  -3 2873.55 250.791   2
   6   3  -2 194.190 157.727   2
   6   3  -1 3568.86 307.992   2
   6   3   0 7973.62 443.065   2
   7  -4  -1 155.383 70.7286   2
  -7  -4  -5-126.195 351.720   2
  -7  -3   3 196.196 253.562   2
  -7  -3  -5 1766.24 465.287   2
  -7  -3  -6 410.866 381.991   2
   7  -1   3 3880.89 485.478   2
   7   0   4 465.494 316.359   2
   7   1  -6 1218.44 77.4905   2
   7   1  -5 4637.20 212.624   2
   7   1  -4 1026.52 174.108   2
   7   1  -3 94.9353 149.596   2
   7   1  -2 6440.72 370.290   2
   7   1  -1 9028.64 448.661   2
   7   1   0 13045.8 544.853   2
   7   1   1 3795.34 351.626   2
   7   1   2 237.726 217.929   2
   7   2  -5 383.863 106.353   2
   7   2  -4 4015.51 239.860   2
   7   2  -3 17761.0 513.323   2
   7   2  -2 6304.59 348.139   2
   7   2  -1 163.314 169.072   2
   7   2   0 246.031 182.238   2
   7   2   1 8923.48 469.956   2
   7   2   2 10018.3 519.918   2
   7   2   3 5528.93 419.089   2
   7   3  -5 2132.06 181.636   2
   7   3  -4 3335.74 249.755   2
   7   3  -3-79.2436 137.467   2
   7   3  -2 5400.24 360.433   2
   7   3  -1 10578.4 499.983   2
   7   3   0 3675.71 341.841   2
   7   3   1 5114.35 403.634   2
   7   4  -4 2758.50 260.172   2
   7   4  -3 5367.50 368.273   2
   7   4  -2 2102.55 292.729   2
   7   4  -1 387.377 225.920   2
   7   5  -3 190.573 184.259   2
  -8  -5   3 680.392 308.736   2
  -8  -5   2 1246.05 358.917   2
  -8  -5   1 609.466 334.119   2
  -8  -5   0 906.148 359.194   2
  -8  -5  -1 95.6524 312.554   2
  -8  -5  -2 585.821 376.418   2
  -8  -4   4 2996.75 352.798   2
  -8  -4   3 880.236 316.631   2
  -8  -4   2 197.941 294.110   2
  -8  -4   1 330.295 307.592   2
  -8  -4   0 1552.30 376.311   2
  -8  -4  -1 2930.89 449.914   2
  -8  -4  -2 275.343 343.547   2
  -8  -4  -3 509.892 373.707   2
  -8  -4  -4-126.831 352.522   2
  -8  -3   2 1268.30 46.9165   2
  -8  -3   1 2231.17 390.824   2
  -8  -3   0 750.295 342.341   2
  -8  -3  -1 350.111 352.827   2
  -8  -3  -2 820.907 368.211   2
  -8  -3  -3 1592.87 424.451   2
  -8  -3  -4 1563.17 436.552   2
  -8  -3  -5 1031.15 398.233   2
  -8  -3  -6 407.109 397.742   2
   8  -2   2 1526.78 112.182   2
   8  -1   1 420.637 363.836   2
   8   0  -7-69.2895 79.9332   2
   8   0  -1 299.368 274.428   2
   8   0   0 5471.37 453.834   2
   8   0   1 6416.58 494.189   2
   8   0   2 4539.92 461.538   2
   8   1  -6 1221.45 124.632   2
   8   1  -5 373.203 138.922   2
   8   1  -4 152.163 162.872   2
   8   1  -3 3868.26 306.618   2
   8   1  -2 3858.12 324.879   2
   8   1  -1 7293.06 434.389   2
   8   1   0 2544.38 322.926   2
   8   1   1 178.917 234.673   2
   8   1   2 3213.27 382.388   2
   8   2  -6 513.600 79.9590   2
   8   2  -5 2273.02 184.399   2
   8   2  -4 3593.59 253.814   2
   8   2  -3 2009.13 239.093   2
   8   2  -2 86.1901 157.242   2
   8   2  -1 459.934 190.815   2
   8   2   0 5322.74 384.049   2
   8   2   1 7797.32 470.293   2
   8   3  -5 110.443 62.5377   2
   8   3  -4 768.950 174.320   2
   8   3  -3 1744.00 238.289   2
   8   3  -2 4996.21 360.047   2
   8   3  -1 3477.02 328.600   2
   8   3   0 1497.96 271.412   2
   8   4  -4 2485.65 268.705   2
   8   4  -3 841.429 217.747   2
   8   4  -2 311.900 193.430   2
  -9  -5   2 767.036 370.636   2
  -9  -5   1 251.341 349.618   2
  -9  -5   0 613.764 370.157   2
  -9  -5  -1 648.900 385.652   2
  -9  -4   2 913.996 360.008   2
  -9  -4   1 1579.91 383.170   2
  -9  -4   0 1699.73 404.264   2
  -9  -4  -1 60.7212 342.176   2
  -9  -4  -2-32.2797 362.338   2
  -9  -4  -3 382.706 395.072   2
   9  -2  -3 17.2302 72.0844   2
   9  -1   0 1787.37 404.261   2
   9   0  -8 7.71156 43.0940   2
   9   0  -7 882.518 97.1955   2
   9   0  -6 2784.02 272.056   2
   9   0  -5 2397.04 291.053   2
   9   0  -4 403.490 245.448   2
   9   0  -3 420.450 260.913   2
   9   0  -2 610.114 277.366   2
   9   0  -1 7470.18 506.229   2
   9   0   0 3335.07 406.370   2
   9   1  -6 55.5772 104.141   2
   9   1  -5 298.682 158.620   2
   9   1  -4 2417.80 260.976   2
   9   1  -3 3006.40 308.067   2
   9   1  -2 3709.21 350.921   2
   9   1  -1 1302.00 281.083   2
   9   1   0 1460.45 297.464   2
   9   2  -6 1361.81 136.697   2
   9   2  -5 1322.99 177.262   2
   9   2  -4 1210.61 196.600   2
   9   2  -3-8.52752 155.034   2
   9   2  -2 2637.17 289.588   2
   9   2  -1 4286.26 354.945   2
   9   2   0 5732.70 416.992   2
  -9   3   6 15.7331 108.601   2
   9   3  -5 173.683 126.770   2
   9   3  -4 2265.13 251.026   2
   9   3  -3 3106.55 300.075   2
   9   3  -2 2643.87 303.731   2
   9   3  -1 209.729 197.182   2
   9   4  -3 140.318 176.086   2
 -10  -5   0 304.039 381.535   2
  10  -2  -2 3600.60 245.417   2
  10   0  -7 1189.12 128.761   2
  10   0  -6 1056.87 225.521   2
  10   0  -5 303.622 225.629   2
  10   0  -4-55.6644 228.930   2
  10   0  -3 603.574 280.211   2
  10   0  -2 2772.49 370.706   2
  10   1  -6 282.775 130.110   2
  10   1  -5 1395.89 212.510   2
  10   1  -4 2005.70 271.788   2
  10   1  -3 1268.21 263.390   2
  10   1  -2 214.570 230.010   2
  10   2  -5 183.979 133.305   2
  10   2  -4 90.5259 146.339   2
  10   2  -3 1013.60 221.936   2
  10   2  -2 3588.67 341.044   2
  10   3  -4 1948.57 253.159   2
  10   3  -3 1356.39 239.583   2
  11  -1  -7 520.189 191.031   2
  11  -1  -6 1036.86 303.418   2
  11  -1  -5 1245.16 329.566   2
  11   0  -5 347.132 221.896   2
  11   0  -4 726.468 265.561   2
  11   1  -5 1122.17 216.248   2
  11   1  -4 245.191 198.502   2
  11   1  -3 10.6585 189.447   2
   0  -4   2 139.162 50.7257   3
   0   5   4 1597.13 143.137   3
  -1  -4   2 5305.67 190.926   3
  -1   3   2 9652.60 307.624   3
  -1   4   3 620.488 135.279   3
  -1   5   4 3058.19 255.074   3
   1   5   3 419.104 53.7364   3
  -1   6   6 1210.17 208.038   3
  -1   6   5 678.546 174.493   3
   2  -5   2-8.88150 36.8088   3
  -2  -4   8 397.611 173.946   3
  -2  -4   1 1600.40 80.4153   3
  -2  -3   9 894.899 139.142   3
   2  -3  -1 14137.0 329.502   3
  -2  -2   9 1191.33 133.699   3
  -2  -2   8 2547.52 169.699   3
  -2  -2   7 6512.78 237.665   3
  -2  -1   6 5222.49 158.866   3
  -2  -1   5 11864.3 186.986   3
  -2  -1   2 599.277 74.9331   3
  -2   3   2 3853.40 173.678   3
  -2   4   3 5870.99 256.071   3
  -2   4   2 3579.97 224.667   3
  -2   5   4 1813.31 182.008   3
  -2   5   3 371.893 137.329   3
  -2   6   5 62.0915 120.449   3
  -2   6   4 278.194 140.942   3
  -3  -5   2 788.062 78.5353   3
  -3  -4   7 107.745 129.612   3
  -3  -3   8 46.0956 49.6890   3
  -3  -3   6 1638.12 159.316   3
   3  -3  -1 18447.0 337.913   3
  -3  -2   5 1117.05 88.8892   3
  -3  -2   4 7559.68 227.794   3
   3  -2  -1 953.315 70.5338   3
  -3  -1   6 20408.1 603.282   3
  -3  -1   5 16487.4 495.626   3
  -3  -1   4 568.626 138.230   3
  -3   0   6 4935.53 282.018   3
   3   1  -3 1008.97 169.467   3
  -3   4   7 1232.35 139.927   3
  -3   4   6 332.994 91.6718   3
  -3   4   5 1175.77 112.233   3
  -3   4   4 3632.82 167.572   3
  -3   5   7 1476.10 144.232   3
  -3   5   6 1823.34 149.327   3
  -3   5   5 270.236 95.1855   3
   3   5   2 3.03318 75.0469   3
   4  -4  -1 5824.80 221.467   3
  -4  -3   6 477.884 101.982   3
   4  -3  -1 5725.40 178.851   3
   4  -3   0 922.392 105.513   3
  -4  -2   4 7538.54 226.725   3
  -4  -1   8 27328.1 758.871   3
  -4  -1   7 13977.4 526.152   3
  -4  -1   6 8068.39 381.206   3
  -4  -1   5 1771.64 188.922   3
  -4  -1   4 7811.30 340.035   3
  -4  -1   3 48941.4 792.674   3
   4  -1  -2 22874.2 292.574   3
  -4   0  10 11596.7 540.713   3
  -4   0   9 13605.7 545.761   3
  -4   0   8 1517.01 203.764   3
  -4   0   7 1819.50 195.280   3
   4   0  -6 6766.23 158.156   3
  -4   0   5 22208.9 502.679   3
  -4   0   4 59467.1 763.357   3
   4   0  -3 10345.4 219.322   3
   4   0  -2 17741.1 389.382   3
  -4   1  11 2454.65 274.090   3
  -4   1  10 739.586 174.380   3
  -4   1   9 2071.61 222.508   3
  -4   1   8 22697.3 587.720   3
  -4   1   7 11557.3 390.926   3
  -4   1   6 6573.33 263.676   3
  -4   1   5 1203.89 110.314   3
   4   1  -4 7662.12 181.131   3
   4   1  -3 23158.2 292.594   3
  -4   1   0 160.602 63.9280   3
  -4   2   6 6089.36 210.243   3
   4   5   1 53.2278 90.6808   3
   5  -5   1 666.497 109.760   3
   5  -4  -1 3212.87 81.9980   3
   5  -4   0 7486.80 269.864   3
  -5  -3   5 2988.10 213.761   3
   5  -3  -1 184.719 58.7216   3
  -5  -1   9 12462.0 545.632   3
  -5  -1   8 11247.1 500.287   3
  -5  -1   7 5155.34 337.806   3
  -5  -1   6 508.687 151.093   3
  -5  -1   5 5523.96 314.675   3
  -5  -1   4 37540.0 745.016   3
   5  -1  -3 10087.0 228.829   3
   5  -1  -2 13416.2 286.377   3
  -5   0  10 5896.50 374.212   3
  -5   0   9 635.448 162.032   3
  -5   0   8 4647.59 302.087   3
  -5   0   7 8861.47 379.406   3
  -5   0   6 26469.9 598.895   3
  -5   0   5 7731.15 311.909   3
   5   0  -4 4972.95 175.356   3
   5   0  -3 4152.60 217.512   3
   5   0  -2 6602.77 272.855   3
  -5   1  11 210.520 136.865   3
  -5   1  10 2365.67 236.095   3
  -5   1   9 10463.5 412.664   3
  -5   1   8 10106.4 374.873   3
  -5   1   7 4139.70 229.067   3
  -5   1   6 437.629 96.0044   3
  -5   1   5 5467.43 208.188   3
   5   1  -4 11807.7 204.395   3
   5   1  -3 14863.6 507.907   3
  -5   1   0 896.830 113.446   3
  -5   2  10 3035.25 229.287   3
  -5   2   9 325.385 108.532   3
  -5   2   8 518.916 100.952   3
  -5   2   7 2210.08 136.478   3
   5   2  -5 20602.3 685.118   3
   6  -4  -1 4880.61 184.412   3
   6  -4   0 91.6210 81.7128   3
  -6  -3   5 8249.82 348.138   3
   6  -3  -1 2421.00 130.949   3
  -6  -2   7 15820.3 625.825   3
  -6  -1   9 6357.20 397.868   3
  -6  -1   8 2084.92 248.660   3
  -6  -1   7 582.907 161.037   3
  -6  -1   6 8247.89 399.911   3
  -6  -1   5 19850.0 586.685   3
   6  -1  -3 3047.97 154.522   3
   6  -1  -2 325.391 83.1297   3
  -6   0  10 255.411 146.585   3
  -6   0   9 6929.66 374.852   3
  -6   0   8 5333.07 317.853   3
  -6   0   7 17289.2 523.586   3
   6   0  -6 822.126 84.7479   3
   6   0  -4 5962.52 282.819   3
   6   0  -3 13915.8 413.313   3
  -6   1  10 8416.83 384.858   3
  -6   1   9 5779.40 305.231   3
  -6   1   8 1713.35 173.475   3
  -6   1   7 487.764 109.040   3
   6   1  -5 2334.32 100.541   3
   6   1  -4 9052.46 221.566   3
  -6   2   9 1986.24 159.224   3
  -6   2   8 4084.44 182.259   3
   6   2  -5 1479.34 245.225   3
   7  -4  -1 301.926 61.5928   3
   7  -4   0 324.449 89.9384   3
  -7  -2   7 5708.45 410.268   3
   7  -2  -3 2.13747 10.0186   3
   7  -1  -9 203.485 90.4550   3
   7  -1  -8 175.990 90.3088   3
   7  -1  -7 1842.06 159.758   3
   7  -1  -4 1732.64 138.209   3
   7  -1  -3 245.366 83.5507   3
   7  -1  -2 8523.95 304.850   3
  -7   0  10 3678.77 298.188   3
  -7   0   9 9119.45 430.268   3
  -7   0   8 14027.9 498.581   3
   7   0  -7 141.552 38.7074   3
   7   0  -6-35.3300 53.8778   3
   7   0  -5 5863.44 313.893   3
   7   0  -4 8728.64 359.265   3
   7   0  -3 17395.7 503.273   3
  -7   1  10 5407.52 306.052   3
  -7   1   9 1215.41 161.230   3
  -7   1   8 565.775 123.102   3
   7   1  -5 3399.77 147.380   3
   7   1  -4 2252.51 243.567   3
   7   2  -6 282.525 189.331   3
   7   2  -5 881.686 100.208   3
  -8  -3   9 164.966 243.141   3
   8  -2  -9 168.120 161.733   3
   8  -2  -8-25.1512 146.856   3
   8  -2  -3 1083.83 86.7024   3
   8  -2  -2 182.137 79.8086   3
   8  -2   2 624.897 88.8582   3
   8  -1  -9-3.56541 94.6511   3
   8  -1  -8 617.103 118.565   3
   8  -1  -7 302.932 152.212   3
   8  -1  -6 410.284 150.533   3
   8  -1  -4 389.644 95.8213   3
   8  -1  -3 7223.99 288.553   3
  -8   0  10 6293.62 373.667   3
  -8   0   9 5142.61 328.423   3
   8   0  -7 32.4391 49.5137   3
   8   0  -6 227.091 152.275   3
   8   0  -5 9078.60 402.281   3
   8   0  -4 7915.38 367.112   3
   8   0  -3 5938.46 327.065   3
   8   1  -6 423.638 70.8889   3
   8   1  -5 587.357 103.872   3
   8   1  -4 699.989 186.390   3
  -8   1   1 1094.78 164.955   3
  -8   1   0 543.136 137.878   3
   8   2  -6 3510.11 359.076   3
   8   2  -5 3384.74 187.592   3
  -8   2   3 287.614 39.5008   3
   8   5  -2 121.077 269.671   3
   8   5  -1 70.3066 278.494   3
   8   5   0 17.8918 238.247   3
   9  -4  -9-52.0478 200.863   3
   9  -4  -8-26.4041 163.340   3
   9  -3  -9 64.1794 184.714   3
   9  -3  -8 208.558 195.252   3
   9  -3  -7 65.0672 173.142   3
  -9  -2   9 125.141 128.121   3
  -9  -2   8 120.745 126.470   3
   9  -2  -7 128.903 151.019   3
   9  -2  -4 2.79389 8.82426   3
   9  -2  -3 18.9488 57.1991   3
   9  -2  -2 1372.00 127.084   3
   9  -1  -8 32.3881 123.295   3
   9  -1  -7 182.482 150.249   3
   9  -1  -4 4028.75 224.867   3
   9  -1  -3 5440.32 275.181   3
   9   0  -7 26.3119 71.9395   3
   9   0  -6 1709.41 222.488   3
   9   0  -5 5583.02 335.986   3
   9   0  -4 1174.59 183.957   3
   9   0  -3 118.296 131.854   3
  -9   0   2 95.1691 166.574   3
  -9   0   1 1854.48 264.188   3
  -9   0   0 732.830 219.617   3
   9   1  -6-101.485 68.5282   3
   9   1  -5 1072.39 222.923   3
  -9   1   3 2216.80 119.014   3
  -9   1   2 530.874 151.982   3
  -9   1   1 144.137 129.773   3
  -9   1   0 243.716 129.657   3
  -9   1  -1 836.652 162.710   3
   9   2  -6 1127.07 86.9218   3
   9   2  -5 1902.75 173.702   3
  -9   2   4 494.707 103.947   3
   9   3  -2 380.217 252.987   3
   9   4  -2-31.9398 220.912   3
  10  -4  -8 40.6888 194.906   3
  10  -4  -7 233.112 210.001   3
  10  -3  -8-33.9341 159.485   3
  10  -3  -7-33.9105 152.932   3
  10  -3  -6-69.9208 159.423   3
 -10  -2   9 567.174 265.863   3
 -10  -2   8 192.025 141.003   3
  10  -2  -7 92.2719 166.218   3
  10  -2  -6 195.989 170.224   3
  10  -2  -2 3881.76 222.647   3
 -10  -1  10 1533.99 315.798   3
 -10  -1   8 137.925 106.091   3
 -10  -1   7-41.6722 100.410   3
  10  -1  -5 2390.68 180.165   3
  10  -1  -4 1789.66 154.105   3
  10  -1  -3 1272.53 145.242   3
 -10  -1   2-33.9771 184.252   3
 -10  -1   1 90.9700 197.114   3
 -10  -1   0 374.637 218.980   3
 -10  -1  -1 608.575 243.452   3
  10   0  -7 77.5507 109.422   3
  10   0  -6 1191.22 126.229   3
 -10   0   5 717.924 105.190   3
 -10   0   4 66.0490 102.388   3
 -10   0   3 47.4299 172.439   3
 -10   0   2 395.507 205.416   3
 -10   0   1 409.045 203.637   3
 -10   0   0 353.918 195.351   3
 -10   0  -1 178.098 181.791   3
  10   1  -6 112.646 86.9143   3
 -10   1   5 1399.89 115.098   3
 -10   1   4 1740.33 125.063   3
 -10   1   3 843.441 94.8089   3
 -10   1   2 83.7223 126.023   3
 -10   1   1 56.2166 121.325   3
 -10   1   0 171.491 131.043   3
 -10   1  -1 1012.71 173.776   3
  10   2  -6 2206.41 319.152   3
 -10   2   4 10.6578 36.8821   3
  10   3  -2 116.936 226.065   3
  10   3  -1-14.9047 207.248   3
  10   4  -2 238.353 277.086   3
  10   4  -1 173.134 269.871   3
  10   4   0 17.7926 243.429   3
  10   4   1 72.9941 263.842   3
  10   5  -2-81.2849 177.098   3
  10   5  -1 177.449 198.099   3
  11  -3  -7 23.7527 168.260   3
  11  -3  -6 208.992 201.440   3
 -11  -2   8 910.509 285.837   3
  11  -2  -7 19.9927 174.370   3
 -11  -1   9 286.038 223.125   3
 -11  -1   7 110.815 117.908   3
 -11  -1   3 370.507 79.9156   3
 -11  -1   2 48.9121 198.794   3
 -11  -1   1 121.171 214.024   3
 -11  -1   0 181.215 227.824   3
 -11   0  10 1040.85 282.531   3
 -11   0   9 519.676 234.040   3
 -11   0   8 1229.81 255.228   3
 -11   0   7 681.240 212.942   3
 -11   0   6 153.298 122.379   3
 -11   0   5 510.797 100.443   3
  11   0  -4 836.149 147.311   3
 -11   0   3 212.289 196.993   3
 -11   0   2 316.676 209.321   3
 -11   0   1-96.6002 163.459   3
 -11   0   0-28.7255 158.021   3
 -11   0  -1 229.995 200.377   3
 -11   0  -2 324.183 212.686   3
 -11   1   7 271.193 171.978   3
 -11   1   6 1475.71 162.012   3
 -11   1   5 1410.01 150.940   3
 -11   1   4 339.583 126.795   3
 -11   1   2 279.632 102.141   3
 -11   1   1 361.297 134.759   3
  11   1   0 395.912 117.481   3
  11   2  -7 1415.06 275.323   3
  11   2  -6 131.767 192.686   3
  11   2  -1 105.369 199.371   3
  11   2   0 13.7711 212.036   3
  11   3  -1 157.300 242.142   3
  11   3   0 310.861 273.158   3
  11   3   1 100.593 254.762   3
  12  -3  -6 90.8696 190.120   3
  12  -2  -6 21.6211 161.295   3
 -12  -1   8 523.989 247.632   3
 -12  -1   7 997.230 263.589   3
 -12  -1   6 796.415 240.673   3
 -12   0   6 82.0087 166.053   3
 -12   0   5 264.089 176.142   3
  12   1  -5 685.825 200.557   3
  12   2   0 71.6068 230.332   3
  12   2   1 419.352 259.565   3
  12   3  -1 313.442 265.253   3
  12   3   0 322.415 280.071   3
;
_shelx_hkl_checksum              46425
_olex2_submission_special_instructions 'No special instructions were received'
_oxdiff_exptl_absorpt_empirical_details
;
Empirical correction (ABSPACK) includes:
- Absorption correction using spherical harmonics
- Frame scaling
;
_oxdiff_exptl_absorpt_empirical_full_max 1.370
_oxdiff_exptl_absorpt_empirical_full_min 0.683
_oxdiff_twin_integration_method  simultaneous
_oxdiff_twin_items               3
_twin_special_details
;
Component 2 rotated by 1.1210\% 
 around [0.21 -0.98 0.03] (reciprocal) or [0.08 -1.00 0.02] (direct)
Component 3 rotated by 1.6544\% 
 around [-0.12 0.01 0.99] (reciprocal) or [0.05 0.04 1.00] (direct)
;
loop_
_space_group_symop_operation_xyz
'x, y, z'
'-x, y+1/2, -z'
loop_
_atom_site_label
_atom_site_type_symbol
_atom_site_fract_x
_atom_site_fract_y
_atom_site_fract_z
_atom_site_U_iso_or_equiv
_atom_site_adp_type
_atom_site_occupancy
_atom_site_site_symmetry_order
_atom_site_calc_flag
_atom_site_refinement_flags_posn
I1 I 0.88470(10) 0.7170(3) 0.40462(10) 0.0198(4) Uani 0.96(2) 1 d .
O1 O 0.6135(15) 0.600(3) 0.0267(14) 0.021(3) Uani 1 1 d .
C5 C 0.5260(16) 0.726(9) 0.2325(16) 0.016(4) Uani 1 1 d .
C8 C 0.3071(18) 0.740(8) 0.377(2) 0.022(6) Uani 1 1 d .
H8 H 0.232585 0.747629 0.424046 0.026 Uiso 1 1 calc R
C4 C 0.6478(15) 0.716(8) 0.1581(15) 0.016(3) Uani 1 1 d .
H4 H 0.681589 0.876235 0.145315 0.020 Uiso 1 1 calc R
C11 C 0.908(3) 0.273(5) 0.112(3) 0.026(7) Uani 1 1 d .
N1 N 0.951(3) 0.089(5) 0.113(3) 0.034(6) Uani 1 1 d .
C3 C 0.741(2) 0.562(4) -0.019(2) 0.023(5) Uani 1 1 d .
H3A H 0.765888 0.700744 -0.067566 0.027 Uiso 1 1 calc R
H3B H 0.733804 0.427693 -0.081390 0.027 Uiso 1 1 calc R
C9 C 0.320(2) 0.548(4) 0.294(2) 0.022(4) Uani 1 1 d .
H9 H 0.256121 0.425100 0.286458 0.027 Uiso 1 1 calc R
C1 C 0.768(2) 0.557(4) 0.227(2) 0.017(4) Uani 1 1 d .
H1 H 0.730678 0.406293 0.252958 0.021 Uiso 1 1 calc R
C10 C 0.432(2) 0.539(4) 0.219(2) 0.021(4) Uani 1 1 d .
H10 H 0.442102 0.411319 0.162095 0.025 Uiso 1 1 calc R
C2 C 0.851(2) 0.513(4) 0.109(2) 0.020(4) Uani 1 1 d .
H2 H 0.925527 0.629275 0.114126 0.024 Uiso 1 1 calc R
C6 C 0.512(2) 0.916(4) 0.318(2) 0.019(4) Uani 1 1 d .
H6 H 0.575262 1.038808 0.326731 0.023 Uiso 1 1 calc R
C7 C 0.402(2) 0.922(4) 0.392(2) 0.021(4) Uani 1 1 d .
H7 H 0.392526 1.048162 0.450171 0.025 Uiso 1 1 calc R
loop_
_atom_site_aniso_label
_atom_site_aniso_U_11
_atom_site_aniso_U_22
_atom_site_aniso_U_33
_atom_site_aniso_U_23
_atom_site_aniso_U_13
_atom_site_aniso_U_12
I1 0.0180(6) 0.0293(6) 0.0117(5) -0.0007(11) 0.0015(3) 0.0004(10)
O1 0.021(7) 0.030(8) 0.013(7) -0.002(6) 0.006(5) 0.001(6)
C5 0.017(7) 0.018(9) 0.012(7) 0.005(15) 0.004(5) 0.003(15)
C8 0.018(7) 0.028(16) 0.020(8) -0.004(12) 0.006(6) 0.005(11)
C4 0.016(7) 0.019(8) 0.014(7) -0.003(18) 0.004(5) -0.012(17)
C11 0.026(12) 0.03(2) 0.024(11) 0.003(9) 0.012(9) -0.001(10)
N1 0.042(15) 0.031(14) 0.035(12) 0.009(10) 0.026(12) 0.004(10)
C3 0.019(9) 0.035(12) 0.016(9) -0.002(9) 0.006(8) 0.008(8)
C9 0.030(11) 0.021(10) 0.019(10) 0.001(8) 0.009(9) -0.004(8)
C1 0.019(9) 0.019(9) 0.015(9) -0.002(7) 0.005(7) -0.002(7)
C10 0.026(10) 0.020(10) 0.017(10) -0.002(8) 0.005(8) 0.002(8)
C2 0.022(10) 0.018(10) 0.021(10) 0.001(8) 0.008(8) -0.003(8)
C6 0.026(10) 0.018(10) 0.014(9) 0.000(8) 0.003(8) -0.003(8)
C7 0.029(11) 0.022(10) 0.013(10) -0.002(8) 0.006(8) 0.006(8)
loop_
_atom_type_symbol
_atom_type_description
_atom_type_scat_dispersion_real
_atom_type_scat_dispersion_imag
_atom_type_scat_source
C C 0.0033 0.0016 'International Tables Vol C Tables 4.2.6.8 and 6.1.1.4'
H H 0.0000 0.0000 'International Tables Vol C Tables 4.2.6.8 and 6.1.1.4'
I I -0.4742 1.8119 'International Tables Vol C Tables 4.2.6.8 and 6.1.1.4'
N N 0.0061 0.0033 'International Tables Vol C Tables 4.2.6.8 and 6.1.1.4'
O O 0.0106 0.0060 'International Tables Vol C Tables 4.2.6.8 and 6.1.1.4'
loop_
_geom_angle_atom_site_label_1
_geom_angle_atom_site_label_2
_geom_angle_atom_site_label_3
_geom_angle
C3 O1 C4 105.5(14)
C10 C5 C4 119(3)
C6 C5 C4 120(3)
C6 C5 C10 120.7(16)
C9 C8 H8 119.2
C7 C8 H8 119.2
C7 C8 C9 121.6(17)
O1 C4 C5 111.6(17)
O1 C4 H4 109.8
O1 C4 C1 100(2)
C5 C4 H4 109.8
C5 C4 C1 115(2)
C1 C4 H4 109.8
N1 C11 C2 179(4)
O1 C3 H3A 110.2
O1 C3 H3B 110.2
O1 C3 C2 107.5(16)
H3A C3 H3B 108.5
C2 C3 H3A 110.2
C2 C3 H3B 110.2
C8 C9 H9 120.3
C8 C9 C10 119(2)
C10 C9 H9 120.3
I1 C1 H1 108.9
C4 C1 I1 112.7(15)
C4 C1 H1 108.9
C2 C1 I1 114.2(13)
C2 C1 C4 102.9(15)
C2 C1 H1 108.9
C5 C10 C9 119(2)
C5 C10 H10 120.6
C9 C10 H10 120.6
C11 C2 C3 113(2)
C11 C2 C1 112.4(18)
C11 C2 H2 109.7
C3 C2 H2 109.7
C1 C2 C3 101.7(16)
C1 C2 H2 109.7
C5 C6 H6 119.9
C5 C6 C7 120(2)
C7 C6 H6 119.9
C8 C7 C6 119(2)
C8 C7 H7 120.3
C6 C7 H7 120.3
loop_
_geom_bond_atom_site_label_1
_geom_bond_atom_site_label_2
_geom_bond_distance
I1 C1 2.13(2)
O1 C4 1.44(3)
O1 C3 1.41(2)
C5 C4 1.503(19)
C5 C10 1.40(5)
C5 C6 1.38(5)
C8 H8 0.9300
C8 C9 1.38(4)
C8 C7 1.38(4)
C4 H4 0.9800
C4 C1 1.55(4)
C11 N1 1.12(4)
C11 C2 1.47(3)
C3 H3A 0.9700
C3 H3B 0.9700
C3 C2 1.55(3)
C9 H9 0.9300
C9 C10 1.42(3)
C1 H1 0.9800
C1 C2 1.54(3)
C10 H10 0.9300
C2 H2 0.9800
C6 H6 0.9300
C6 C7 1.40(3)
C7 H7 0.9300
loop_
_twin_individual_id
_twin_individual_mass_fraction_refined
_oxdiff_twin_reflns_isolated
_oxdiff_twin_reflns_overlapped
_twin_individual_twin_lattice_type
_twin_individual_twin_matrix_11
_twin_individual_twin_matrix_12
_twin_individual_twin_matrix_13
_twin_individual_twin_matrix_21
_twin_individual_twin_matrix_22
_twin_individual_twin_matrix_23
_twin_individual_twin_matrix_31
_twin_individual_twin_matrix_32
_twin_individual_twin_matrix_33
1 0.496(11) 47 7890 ref 1.0000 0.0000 0.0000 0.0000 1.0000 0.0000 0.0000 0.0000
1.0000
2 0.271(8) 321 7623 nmt 0.9959 0.0007 -0.0203 0.0002 1.0005 -0.0019 0.0197
0.0045 0.9994
3 0.233(7) 388 7577 nmt 0.9949 -0.0363 0.0066 0.0167 1.0043 0.0002 -0.0007
0.0023 1.0001
