#------------------------------------------------------------------------------
#$Date: 2018-02-04 00:31:15 +0200 (Sun, 04 Feb 2018) $
#$Revision: 206136 $
#$URL: file:///home/coder/svn-repositories/cod/cif/4/51/43/4514334.cif $
#------------------------------------------------------------------------------
#
# This file is available in the Crystallography Open Database (COD),
# http://www.crystallography.net/
#
# All data on this site have been placed in the public domain by the
# contributors.
#
data_4514334
loop_
_publ_author_name
'Mayorga-Martinez, Carmen C'
'Sofer, Zden\<ek'
'Luxa, Jan'
'Huber, \<St\<ep\'an'
'Sedmidubsk\'y, David'
'Br\'azda, Petr'
'Palatinus, Luk\'a\<s'
'Mikulics, Martin'
'Lazar, Petr'
'Medl\'in, Rostislav'
'Pumera, Martin'
_publ_section_title
;
 TaS3 Nanofibers: Layered Trichalcogenide for High-Performance Electronic
 and Sensing Devices.
;
_journal_issue                   1
_journal_name_full               'ACS nano'
_journal_page_first              464
_journal_page_last               473
_journal_paper_doi               10.1021/acsnano.7b06853
_journal_volume                  12
_journal_year                    2018
_chemical_formula_analytical     'Ta1 S3'
_chemical_formula_moiety         'Ta1 S3'
_chemical_formula_structural     'Ta1 S3'
_chemical_formula_sum            'S3 Ta'
_chemical_formula_weight         277.14
_chemical_name_systematic        'Tantalum trisufide'
_space_group_IT_number           12
_symmetry_cell_setting           monoclinic
_symmetry_Int_Tables_number      12
_symmetry_space_group_name_Hall  '-C 2y'
_symmetry_space_group_name_H-M   'C 1 2/m 1'
_cell_angle_alpha                90
_cell_angle_beta                 112.4
_cell_angle_gamma                90
_cell_formula_units_Z            8
_cell_length_a                   19.9
_cell_length_b                   3.34
_cell_length_c                   15.2
_cell_measurement_temperature    293
_cell_volume                     934.053
_computing_cell_refinement
;
Jana2006 (Petricek et al., 2014).
;
_computing_data_collection
;
PETS (Palatinus, L., 2011).
;
_computing_data_reduction
;
PETS (Palatinus, L., 2011).
;
_computing_structure_refinement
;
Jana2006 (Petricek et al., 2014). Dynamical refinement (Palatinus, L. et al.
 2015).
;
_computing_structure_solution
;
Superflip (Palatinus et al., 2007).
;
_diffrn_ambient_temperature      293
_diffrn_detector                 ';CCD camera Olympus SIS Veleta;'
_diffrn_detector_area_resol_mean 2048.2048
_diffrn_measured_fraction_theta_full 0.73
_diffrn_measured_fraction_theta_max 0.73
_diffrn_measurement_device       'Transmission electron microscope'
_diffrn_measurement_device_type  ';Philips CM120;'
_diffrn_measurement_method       PEDT
_diffrn_measurement_specimen_support ';Cu grid with carbon foil;'
_diffrn_radiation_probe          electron
_diffrn_radiation_source         LaB6
_diffrn_radiation_type           electron
_diffrn_radiation_wavelength     0.0335
_diffrn_reflns_limit_h_max       26
_diffrn_reflns_limit_h_min       -27
_diffrn_reflns_limit_k_max       4
_diffrn_reflns_limit_k_min       -4
_diffrn_reflns_limit_l_max       21
_diffrn_reflns_limit_l_min       -21
_diffrn_reflns_number            16367
_diffrn_reflns_reduction_process 'data integration with PETS'
_diffrn_reflns_theta_full        1.04
_diffrn_reflns_theta_max         1.34
_diffrn_reflns_theta_min         0.07
_diffrn_source                   'electron microscope'
_diffrn_source_voltage           120
_exptl_absorpt_correction_type   none
_exptl_crystal_density_diffrn    3.2614
_exptl_crystal_density_method    'not measured'
_exptl_crystal_description
;
piece of nano-ribbon
;
_exptl_crystal_F_000             1452
_exptl_crystal_size_max          0.0002
_exptl_crystal_size_mid          0.00005
_exptl_crystal_size_min          0.00005
_refine_ls_extinction_method     none
_refine_ls_goodness_of_fit_gt    2.87
_refine_ls_goodness_of_fit_ref   2.08
_refine_ls_number_constraints    0
_refine_ls_number_parameters     144
_refine_ls_number_reflns         8073
_refine_ls_number_restraints     0
_refine_ls_R_factor_all          0.1434
_refine_ls_R_factor_gt           0.0853
_refine_ls_shift/su_max          0.0000
_refine_ls_shift/su_mean         0.0000
_refine_ls_structure_factor_coef F
_refine_ls_weighting_details     ;w=1/(\s^2^(F)+0.0001F^2^);
_refine_ls_weighting_scheme      sigma
_refine_ls_wR_factor_gt          0.0901
_refine_ls_wR_factor_ref         0.0931
_reflns_number_gt                3963
_reflns_number_total             8073
_reflns_threshold_expression     ;I>3\s(I);
_cod_data_source_file            nn7b06853_si_002.cif
_cod_data_source_block           I
_cod_depositor_comments
'Adding full bibliography for 4514334--4514335.cif.'
_cod_original_cell_volume        933
_cod_original_formula_sum        'Ta1 S3'
_cod_database_code               4514334
loop_
_space_group_symop_id
_space_group_symop_operation_xyz
1 x,y,z
2 -x,y,-z
3 -x,-y,-z
4 x,-y,z
5 x+1/2,y+1/2,z
6 -x+1/2,y+1/2,-z
7 -x+1/2,-y+1/2,-z
8 x+1/2,-y+1/2,z
loop_
_atom_site_label
_atom_site_type_symbol
_atom_site_fract_x
_atom_site_fract_y
_atom_site_fract_z
_atom_site_adp_type
_atom_site_U_iso_or_equiv
_atom_site_site_symmetry_multiplicity
_atom_site_occupancy
_atom_site_calc_flag
Ta1 Ta 0.34906(10) 0 0.04855(8) Uiso 0.0051(3) 4 1 d
Ta2 Ta 0.65004(10) -1 0.44935(8) Uiso 0.0055(3) 4 1 d
Ta3 Ta 0.32683(10) -0.5 -0.21155(8) Uiso 0.0089(3) 4 1 d
S1 S 0.2746(3) -0.5 -0.0691(2) Uiso 0.0117(8) 4 1 d
S2 S 0.4501(3) -0.5 0.1074(3) Uiso 0.0145(8) 4 1 d
S3 S 0.6180(3) -0.5 0.5522(2) Uiso 0.0142(8) 4 1 d
S4 S 0.2260(3) -1 -0.2621(2) Uiso 0.0070(7) 4 1 d
S5 S 0.3805(3) -0.5 0.1827(2) Uiso 0.0146(8) 4 1 d
S6 S 0.3951(3) 0 -0.0856(2) Uiso 0.0101(8) 4 1 d
S7 S 0.7270(3) -0.5 0.4080(2) Uiso 0.0082(7) 4 1 d
S8 S 0.5463(3) -0.5 0.4064(2) Uiso 0.0123(8) 4 1 d
S9 S 0.3984(3) -1 -0.2683(2) Uiso 0.0104(7) 4 1 d
loop_
_atom_type_symbol
_atom_type_scat_source
Ta 'International Tables Vol C tables 4.3.1.1'
S 'International Tables Vol C tables 4.3.1.1'
loop_
_refln_index_h
_refln_index_k
_refln_index_l
_refln_intensity_calc
_refln_intensity_meas
_refln_intensity_sigma
_refln_scale_group_code
_refln_observed_status
24 -2 -12 64.66 3.30 53.20 1 <
25 -1 -12 321.16 3.40 52.80 1 <
25 1 -12 335.41 275.60 56.50 1 o
22 -2 -11 198.79 158.30 55.70 1 <
23 1 -11 214.17 55.30 53.90 1 <
24 2 -11 82.36 -3.60 52.80 1 <
19 -3 -10 162.35 179.40 55.80 1 o
20 -2 -10 415.32 306.20 58.20 1 o
21 1 -10 242.43 174.80 55.80 1 o
17 -3 -9 153.96 99.60 55.50 1 <
18 -2 -9 35.40 17.30 53.40 1 <
19 1 -9 126.34 70.00 55.30 1 <
14 -4 -8 201.18 -22.60 54.40 1 <
15 -3 -8 179.30 174.20 56.10 1 o
16 -2 -8 73.95 81.80 54.50 1 <
17 1 -8 1575.50 1761.50 81.30 1 o
12 -4 -7 70.41 -37.90 53.30 1 <
13 -3 -7 40.95 33.90 53.40 1 <
14 -2 -7 182.38 152.40 56.80 1 <
15 1 -7 475.62 343.00 61.20 1 o
10 -4 -6 59.01 49.20 54.20 1 <
11 -3 -6 107.26 78.70 54.80 1 <
12 -2 -6 600.66 761.10 66.60 1 o
13 1 -6 168.79 188.90 59.20 1 o
13 3 -6 106.47 86.80 54.50 1 <
14 4 -6 213.16 -72.50 53.00 1 <
8 -4 -5 12.57 23.90 53.20 1 <
9 -3 -5 87.50 23.10 54.10 1 <
11 1 -5 244.85 210.40 59.40 1 o
11 3 -5 83.61 9.20 53.60 1 <
6 -4 -4 38.24 36.40 53.30 1 <
7 -3 -4 219.61 181.70 56.30 1 o
9 1 -4 7715.40 7576.40 138.60 1 o
9 3 -4 1283.40 1048.50 71.90 1 o
4 -4 -3 28.16 21.40 53.00 1 <
5 -3 -3 618.28 559.20 65.20 1 o
7 3 -3 403.49 386.00 61.70 1 o
2 -4 -2 90.39 39.70 54.00 1 <
3 -3 -2 1553.20 1835.50 80.90 1 o
5 3 -2 1210.20 1318.50 76.40 1 o
0 -4 -1 98.50 92.90 54.40 1 <
3 3 -1 140.12 205.10 58.80 1 o
-2 -4 0 295.16 331.60 59.10 1 o
1 3 0 111.41 72.50 55.50 1 <
-4 -4 1 118.36 20.30 53.30 1 <
-7 -1 3 4384.40 4390.50 117.40 1 o
-6 2 3 96.70 99.20 58.40 1 <
-6 4 3 24.70 53.50 55.20 1 <
-10 -2 4 573.29 516.20 66.10 1 o
-9 -1 4 7223.00 7138.00 137.00 1 o
-8 2 4 2700.60 2694.70 93.60 1 o
-8 4 4 1091.60 -33.70 54.20 1 <
-13 -3 5 154.17 160.20 57.60 1 <
-12 -2 5 967.76 814.50 70.40 1 o
-10 2 5 326.58 370.10 64.20 1 o
-10 4 5 64.75 36.90 55.20 1 <
-15 -3 6 503.38 302.40 57.60 1 o
-14 -2 6 1284.20 1201.40 74.00 1 o
-13 1 6 944.13 578.60 65.60 1 o
-12 4 6 102.49 104.50 55.80 1 <
-17 -3 7 62.20 81.80 54.30 1 <
-16 -2 7 389.00 189.50 57.30 1 o
-15 1 7 363.27 380.10 61.40 1 o
-15 3 7 119.47 29.70 57.60 1 <
-14 4 7 50.65 -16.80 54.90 1 <
-19 -3 8 183.78 66.60 55.10 1 <
-18 0 8 120.25 62.00 55.00 1 <
-17 1 8 1530.30 1571.90 78.20 1 o
-17 3 8 582.62 468.00 63.00 1 o
-21 -3 9 59.99 22.10 54.10 1 <
-20 0 9 36.63 57.70 54.60 1 <
-19 3 9 18.91 44.90 53.60 1 <
-23 -1 10 59.61 50.50 53.20 1 <
-22 0 10 255.83 180.00 57.10 1 o
-22 2 10 122.19 142.40 54.90 1 <
-21 3 10 44.57 -21.80 54.90 1 <
-25 -1 11 61.28 45.20 54.20 1 <
-24 0 11 109.95 49.80 53.70 1 <
-24 2 11 23.50 7.90 54.60 1 <
-27 -1 12 138.56 24.50 52.90 1 <
26 0 -13 7.55 42.90 53.50 2 <
24 -2 -12 56.16 3.70 53.50 2 <
24 0 -12 126.36 148.90 55.10 2 <
25 1 -12 274.48 223.80 56.70 2 o
22 -2 -11 326.98 173.90 55.70 2 o
23 1 -11 219.08 66.40 53.70 2 <
19 -3 -10 112.11 188.30 56.00 2 o
20 -2 -10 631.84 380.20 59.30 2 o
21 1 -10 308.24 181.40 57.30 2 o
21 3 -10 86.55 29.10 54.30 2 <
17 -3 -9 60.18 90.20 54.80 2 <
18 -2 -9 33.11 40.00 53.00 2 <
19 1 -9 163.31 117.30 55.10 2 <
19 3 -9 71.66 63.00 53.60 2 <
14 -4 -8 273.29 164.00 56.80 2 <
15 -3 -8 149.39 177.60 56.70 2 o
16 -2 -8 171.15 86.40 54.30 2 <
17 1 -8 1761.90 1712.00 80.80 2 o
17 3 -8 266.18 526.70 61.50 2 o
12 -4 -7 151.26 -22.00 54.00 2 <
13 -3 -7 71.87 41.90 53.40 2 <
15 1 -7 663.60 399.90 62.20 2 o
15 3 -7 118.32 108.50 54.30 2 <
10 -4 -6 48.22 65.80 54.30 2 <
11 -3 -6 158.18 175.60 56.60 2 o
13 1 -6 184.90 285.20 59.50 2 o
13 3 -6 139.26 144.40 55.20 2 <
8 -4 -5 57.84 20.10 52.40 2 <
9 -3 -5 98.70 73.30 54.30 2 <
11 3 -5 169.06 52.40 53.70 2 <
6 -4 -4 92.99 74.40 54.00 2 <
7 -3 -4 147.20 152.20 56.00 2 <
9 3 -4 914.87 862.20 69.10 2 o
4 -4 -3 58.66 53.00 53.30 2 <
5 -3 -3 545.11 569.70 63.70 2 o
7 3 -3 451.55 297.30 61.00 2 o
2 -4 -2 88.97 61.60 53.10 2 <
3 -3 -2 1404.60 1575.50 78.00 2 o
5 3 -2 1151.60 1139.60 74.20 2 o
0 -4 -1 83.89 57.20 54.50 2 <
3 3 -1 191.71 168.30 57.50 2 <
-2 -4 0 359.31 261.10 57.90 2 o
1 3 0 246.83 185.30 57.90 2 o
-4 -4 1 65.75 61.30 54.10 2 <
-6 -4 2 87.06 80.50 53.70 2 <
-6 2 3 157.52 152.30 59.00 2 <
-6 4 3 32.25 40.10 54.40 2 <
-9 -1 4 6150.80 7336.80 138.60 2 o
-8 2 4 3740.60 3195.80 99.90 2 o
-8 4 4 1186.20 2.20 53.50 2 <
-12 -2 5 1321.80 793.30 69.20 2 o
-11 -1 5 163.40 345.50 62.80 2 o
-10 2 5 385.69 341.90 63.00 2 o
-10 4 5 138.03 96.50 55.70 2 <
-14 -2 6 1211.20 1124.10 72.50 2 o
-13 -1 6 166.94 287.70 59.70 2 o
-12 2 6 1168.50 642.80 67.50 2 o
-12 4 6 222.98 64.90 55.40 2 <
-17 -3 7 80.91 55.30 54.10 2 <
-16 -2 7 259.43 247.50 57.90 2 o
-15 1 7 531.38 321.90 61.20 2 o
-14 4 7 71.60 53.10 54.70 2 <
-19 -3 8 138.35 80.20 54.90 2 <
-18 -2 8 30.92 27.30 53.60 2 <
-17 1 8 1146.50 1401.70 78.10 2 o
-17 3 8 751.23 599.40 66.50 2 o
-21 -3 9 45.90 48.70 54.40 2 <
-20 -2 9 34.93 28.40 53.30 2 <
-19 1 9 97.33 96.10 55.50 2 <
-19 3 9 36.77 44.90 55.30 2 <
-22 0 10 210.80 198.20 56.60 2 o
-21 1 10 160.33 214.00 55.80 2 o
-21 3 10 41.18 50.20 54.30 2 <
-24 0 11 105.26 60.20 54.60 2 <
-27 -1 12 145.01 16.70 53.80 2 <
-26 0 12 234.94 51.30 54.00 2 <
25 -1 -13 107.28 -9.10 54.20 3 <
26 0 -13 8.13 -0.70 53.20 3 <
23 -1 -12 977.54 846.50 66.50 3 o
24 0 -12 77.71 111.70 55.10 3 <
24 2 -12 57.36 43.30 53.90 3 <
22 0 -11 87.12 104.50 56.00 3 <
22 2 -11 218.87 50.10 54.80 3 <
19 -3 -10 188.18 261.80 57.30 3 o
20 0 -10 296.30 317.00 60.80 3 o
20 2 -10 547.75 284.10 58.20 3 o
17 -3 -9 173.18 100.80 54.80 3 <
18 0 -9 196.10 114.90 56.40 3 <
18 2 -9 155.58 30.60 54.30 3 <
14 -4 -8 254.71 246.10 57.80 3 o
15 -3 -8 206.53 58.20 56.40 3 <
16 0 -8 157.45 222.00 59.50 3 o
16 2 -8 510.92 288.00 58.50 3 o
12 -4 -7 179.59 63.80 54.20 3 <
13 -3 -7 118.38 87.10 55.10 3 <
14 0 -7 198.43 261.80 62.20 3 o
14 4 -7 118.94 -0.30 53.50 3 <
10 -4 -6 20.51 15.90 53.10 3 <
11 -3 -6 164.65 203.40 57.60 3 o
12 0 -6 1856.50 2933.60 96.00 3 o
8 -4 -5 45.14 45.90 53.40 3 <
9 -3 -5 116.72 123.30 55.00 3 <
10 0 -5 2549.40 2184.60 91.10 3 o
6 -4 -4 58.09 89.80 54.70 3 <
7 -3 -4 108.20 167.60 56.60 3 <
8 0 -4 14645.00 16380.90 197.40 3 o
4 -4 -3 86.94 69.90 53.80 3 <
5 -3 -3 398.28 571.50 64.40 3 o
6 0 -3 4896.60 2474.90 103.40 3 o
2 -4 -2 34.62 36.00 53.10 3 <
3 -3 -2 1461.20 1781.80 80.80 3 o
4 0 -2 9511.90 9845.80 166.00 3 o
0 -4 -1 18.11 9.00 54.50 3 <
1 -3 -1 159.47 65.80 56.10 3 <
2 0 -1 7031.70 6762.00 165.60 3 o
-2 -4 0 164.20 159.60 56.50 3 <
-1 -3 0 142.30 62.00 55.20 3 <
-4 -4 1 111.11 15.70 53.60 3 <
-3 -3 1 470.65 154.00 56.60 3 <
-2 4 1 40.24 31.50 54.60 3 <
-6 -4 2 87.73 49.50 53.30 3 <
-4 4 2 149.93 88.00 55.50 3 <
-8 -4 3 90.57 7.20 53.40 3 <
-6 2 3 418.12 258.30 60.40 3 o
-6 4 3 57.39 22.90 55.10 3 <
-10 -4 4 119.49 169.30 55.80 3 o
-8 2 4 3235.50 3215.80 101.10 3 o
-8 4 4 1130.20 15.90 55.00 3 <
-12 -4 5 80.00 74.80 54.20 3 <
-10 2 5 303.13 324.00 63.80 3 o
-10 4 5 59.86 57.20 56.10 3 <
-14 -4 6 180.95 144.90 55.10 3 <
-13 -1 6 185.01 359.60 61.00 3 o
-12 2 6 713.48 622.10 67.70 3 o
-12 4 6 113.87 97.40 56.10 3 <
-15 -1 7 506.28 307.10 63.60 3 o
-14 2 7 250.26 126.20 58.90 3 <
-14 4 7 45.13 26.50 54.80 3 <
-17 -1 8 1382.20 1658.40 80.40 3 o
-16 2 8 202.99 167.90 58.90 3 <
-20 -2 9 54.01 50.80 54.00 3 <
-19 -1 9 125.51 123.70 55.40 3 <
-18 2 9 71.02 26.30 55.20 3 <
-22 -2 10 63.73 110.90 54.50 3 <
-21 -1 10 270.60 172.80 55.90 3 o
-21 1 10 142.97 80.00 55.40 3 <
-21 3 10 71.55 72.50 55.20 3 <
-24 -2 11 45.45 21.30 53.40 3 <
-23 -1 11 183.06 63.30 54.20 3 <
-23 1 11 63.78 46.90 53.40 3 <
-25 1 12 156.74 112.00 56.00 3 <
25 -1 -13 75.97 -28.50 53.60 4 <
25 1 -13 100.06 -34.50 53.50 4 <
23 -1 -12 541.40 637.90 64.10 4 o
24 2 -12 42.53 38.30 53.60 4 <
21 -1 -11 98.87 50.50 55.00 4 <
22 2 -11 116.77 79.60 55.00 4 <
19 -1 -10 443.50 474.80 62.10 4 o
20 2 -10 449.66 184.60 56.80 4 o
18 0 -9 293.63 155.60 56.40 4 <
18 2 -9 101.36 77.80 54.30 4 <
14 -4 -8 77.77 -21.60 54.20 4 <
15 -3 -8 158.43 -1.10 54.50 4 <
16 0 -8 170.66 243.90 58.30 4 o
16 2 -8 177.23 327.60 59.00 4 o
12 -4 -7 98.76 -27.90 55.20 4 <
13 -3 -7 100.49 99.80 54.80 4 <
14 0 -7 209.25 251.40 61.70 4 o
14 2 -7 124.03 191.00 57.30 4 o
14 4 -7 44.13 51.90 53.70 4 <
10 -4 -6 25.26 45.60 52.70 4 <
11 -3 -6 198.49 263.70 57.70 4 o
12 0 -6 1793.00 2755.30 95.00 4 o
12 2 -6 646.52 918.70 69.60 4 o
12 4 -6 197.42 124.60 55.90 4 <
8 -4 -5 46.98 33.90 53.30 4 <
9 -3 -5 174.73 138.70 55.60 4 <
10 0 -5 2147.40 2078.40 90.40 4 o
10 2 -5 452.06 360.20 62.50 4 o
10 4 -5 60.91 52.20 54.40 4 <
6 -4 -4 39.27 56.30 53.90 4 <
7 -3 -4 86.34 172.80 55.80 4 o
8 0 -4 12290.00 15940.80 193.00 4 o
8 4 -4 290.46 603.30 63.90 4 o
4 -4 -3 45.91 68.00 53.30 4 <
5 -3 -3 308.44 438.90 62.80 4 o
6 0 -3 3384.90 2298.30 101.90 4 o
6 4 -3 43.74 30.10 54.30 4 <
2 -4 -2 36.50 -6.80 53.50 4 <
3 -3 -2 721.76 985.70 72.00 4 o
4 0 -2 7409.10 10512.00 170.40 4 o
4 4 -2 73.79 54.00 55.30 4 <
0 -4 -1 15.33 3.30 53.10 4 <
1 -3 -1 65.79 91.80 56.50 4 <
2 0 -1 11619.00 6587.90 167.20 4 o
2 4 -1 53.81 17.60 54.10 4 <
-2 -4 0 128.68 143.60 56.20 4 <
-1 -3 0 72.27 61.70 56.20 4 <
0 4 0 628.08 1049.20 72.80 4 o
-4 -4 1 46.96 32.50 53.10 4 <
-3 -3 1 200.46 189.80 57.80 4 o
-2 0 1 9851.50 5921.20 157.80 4 o
-2 4 1 39.19 53.10 54.50 4 <
-6 -4 2 47.97 35.00 52.70 4 <
-5 -3 2 1160.40 1848.10 82.10 4 o
-4 0 2 7638.40 9022.20 161.80 4 o
-4 4 2 103.97 77.10 55.20 4 <
-8 -4 3 73.07 43.80 53.90 4 <
-7 -3 3 203.53 331.80 59.90 4 o
-6 0 3 4424.90 2585.50 104.10 4 o
-6 4 3 39.02 -18.90 55.30 4 <
-10 -4 4 72.93 90.30 54.70 4 <
-9 -3 4 603.77 955.20 68.70 4 o
-8 0 4 13787.00 20169.70 215.60 4 o
-8 2 4 3559.50 3764.90 107.40 4 o
-8 4 4 717.46 18.00 54.40 4 <
-12 -4 5 42.06 31.80 53.50 4 <
-10 0 5 2952.90 1869.10 89.20 4 o
-10 2 5 509.07 371.30 63.70 4 o
-10 4 5 81.61 49.80 55.70 4 <
-14 -4 6 70.95 86.70 53.20 4 <
-12 2 6 951.16 804.10 69.90 4 o
-12 4 6 154.49 134.10 56.10 4 <
-15 -1 7 646.60 277.50 61.60 4 o
-14 2 7 138.28 74.50 57.10 4 <
-14 4 7 38.00 17.20 53.70 4 <
-17 -1 8 1560.40 1724.70 81.70 4 o
-16 2 8 164.33 210.40 59.50 4 o
-19 -1 9 94.45 79.20 54.60 4 <
-18 2 9 59.24 4.70 55.30 4 <
-21 -1 10 153.42 193.80 56.20 4 o
-20 2 10 246.27 234.90 58.30 4 o
-24 -2 11 40.43 64.10 53.10 4 <
-23 -1 11 126.80 44.70 54.10 4 <
-23 1 11 62.41 33.20 53.90 4 <
-22 2 11 138.73 110.60 55.50 4 <
-25 -1 12 256.82 205.10 57.20 4 o
-25 1 12 196.06 153.50 56.60 4 <
-24 2 12 49.85 1.90 54.50 4 <
26 0 -14 223.78 256.80 57.30 5 o
24 -2 -13 37.30 -7.50 54.00 5 <
25 1 -13 116.67 30.80 51.90 5 <
22 -2 -12 313.63 359.50 59.50 5 o
23 1 -12 533.11 571.00 62.70 5 o
20 -2 -11 98.79 56.60 54.90 5 <
21 1 -11 78.19 102.20 55.30 5 <
18 -2 -10 816.49 694.70 65.40 5 o
19 -1 -10 513.41 400.80 61.00 5 o
19 1 -10 814.33 524.80 62.80 5 o
19 3 -10 243.25 190.90 55.60 5 o
17 -1 -9 260.43 273.80 59.10 5 o
17 1 -9 418.04 282.10 59.80 5 o
17 3 -9 159.97 72.20 54.60 5 <
14 -4 -8 273.66 224.00 57.70 5 o
15 -1 -8 333.58 447.40 62.90 5 o
12 -4 -7 119.13 -0.40 53.70 5 <
13 -1 -7 65.09 72.00 57.20 5 <
14 2 -7 364.21 138.90 58.60 5 <
14 4 -7 97.82 0.30 53.30 5 <
10 -4 -6 31.72 17.90 53.00 5 <
11 -1 -6 309.66 373.40 61.90 5 o
12 2 -6 1171.10 761.80 67.40 5 o
12 4 -6 152.59 69.20 54.80 5 <
8 -4 -5 33.57 14.70 53.60 5 <
10 2 -5 390.98 360.20 62.30 5 o
10 4 -5 55.43 7.10 53.90 5 <
6 -4 -4 173.72 87.80 54.60 5 <
8 2 -4 3273.90 3688.00 104.70 5 o
8 4 -4 672.73 500.00 63.40 5 o
4 -4 -3 93.10 59.80 54.30 5 <
5 -3 -3 257.22 404.90 62.40 5 o
6 2 -3 525.61 548.90 67.20 5 o
6 4 -3 56.02 72.30 54.10 5 <
2 -4 -2 56.93 27.40 53.10 5 <
3 -3 -2 1405.00 1167.00 73.20 5 o
4 2 -2 1399.90 1453.00 80.40 5 o
4 4 -2 145.72 47.70 54.30 5 <
0 -4 -1 30.17 9.30 53.10 5 <
1 -3 -1 178.86 87.50 55.60 5 <
2 4 -1 31.90 18.00 54.50 5 <
-2 -4 0 251.05 172.30 57.50 5 <
-1 -3 0 78.41 93.10 55.20 5 <
0 4 0 720.90 1058.90 73.50 5 o
-4 -4 1 135.12 44.80 53.80 5 <
-3 -3 1 332.35 160.50 58.30 5 <
-2 4 1 34.20 10.30 55.10 5 <
-6 -4 2 99.49 34.40 53.20 5 <
-5 -3 2 1900.80 1692.50 80.60 5 o
-4 4 2 47.48 11.30 55.20 5 <
-8 -4 3 100.74 100.50 53.90 5 <
-7 -3 3 273.16 288.30 61.10 5 o
-6 0 3 5866.00 2331.70 102.40 5 o
-6 4 3 63.06 45.00 55.00 5 <
-10 -4 4 130.40 89.60 55.20 5 <
-9 -3 4 486.81 692.00 65.90 5 o
-8 0 4 17418.00 19100.40 210.00 5 o
-8 4 4 278.67 26.80 53.60 5 <
-12 -4 5 54.54 58.40 53.60 5 <
-11 -3 5 121.77 32.70 54.10 5 <
-10 0 5 2486.90 1752.30 86.30 5 o
-10 4 5 29.57 -1.70 55.00 5 <
-14 -4 6 180.18 39.20 54.00 5 <
-13 -3 6 84.67 86.10 55.10 5 <
-12 0 6 1564.70 1322.70 78.40 5 o
-12 4 6 144.76 54.40 55.50 5 <
-15 -3 7 58.41 75.70 54.80 5 <
-14 0 7 198.91 253.70 62.40 5 o
-14 4 7 72.00 71.70 54.50 5 <
-17 -3 8 458.64 366.10 61.20 5 o
-16 0 8 146.91 241.90 59.80 5 o
-19 -3 9 46.96 47.40 53.60 5 <
-18 0 9 152.60 69.40 55.80 5 <
-18 2 9 101.15 34.80 55.70 5 <
-21 -3 10 31.90 -17.20 52.90 5 <
-20 0 10 274.08 207.40 57.80 5 o
-20 2 10 505.85 192.30 57.80 5 o
-22 0 11 97.53 68.90 55.70 5 <
-22 2 11 219.73 123.10 56.00 5 <
-24 0 12 64.56 110.20 55.20 5 <
-24 2 12 62.38 64.60 54.80 5 <
-26 0 13 6.23 -2.70 53.00 5 <
26 0 -14 691.71 419.70 60.10 6 o
24 0 -13 64.11 -6.40 53.60 6 <
24 2 -13 15.65 -9.50 52.30 6 <
22 -2 -12 396.37 330.50 61.10 6 o
22 0 -12 1040.60 814.70 67.00 6 o
22 2 -12 510.60 432.90 61.20 6 o
19 -3 -11 141.72 -29.50 53.80 6 <
20 -2 -11 31.58 85.80 54.60 6 <
18 -2 -10 448.87 663.90 64.40 6 o
19 1 -10 640.55 651.20 64.80 6 o
19 3 -10 154.79 119.30 55.10 6 <
16 -2 -9 464.35 563.20 65.20 6 o
17 1 -9 499.60 361.00 61.30 6 o
17 3 -9 101.30 60.90 55.60 6 <
14 -4 -8 212.37 270.10 58.20 6 o
15 -1 -8 772.09 640.00 65.30 6 o
15 1 -8 663.03 658.70 66.40 6 o
15 3 -8 197.21 218.00 56.00 6 o
12 -4 -7 69.92 7.60 54.00 6 <
13 -1 -7 48.94 94.40 56.00 6 <
13 1 -7 74.31 101.10 57.30 6 <
13 3 -7 18.83 -12.40 53.80 6 <
10 -4 -6 40.81 -10.90 53.70 6 <
11 -1 -6 216.54 317.80 61.50 6 o
8 -4 -5 10.30 8.30 53.30 6 <
9 -1 -5 286.71 280.40 63.70 6 o
6 -4 -4 107.05 117.00 54.30 6 <
8 2 -4 4529.20 4022.40 108.70 6 o
8 4 -4 1021.50 816.60 67.10 6 o
4 -4 -3 41.47 64.00 53.60 6 <
5 -3 -3 454.50 623.30 65.50 6 o
6 2 -3 230.58 362.50 63.00 6 o
6 4 -3 38.32 -1.90 53.90 6 <
2 -4 -2 143.33 78.20 53.10 6 <
3 -3 -2 816.07 961.90 69.70 6 o
4 2 -2 916.90 1035.70 75.20 6 o
4 4 -2 102.21 66.90 55.50 6 <
1 -3 -1 43.20 101.60 55.30 6 <
2 2 -1 1005.90 966.20 77.10 6 o
2 4 -1 31.80 6.00 54.20 6 <
-1 -3 0 50.26 20.30 55.20 6 <
0 2 0 31182.00 31533.30 270.60 6 o
0 4 0 654.82 872.00 73.90 6 o
-3 -3 1 203.48 234.30 58.60 6 o
-2 4 1 41.59 4.60 55.60 6 <
-5 -3 2 1306.50 1789.10 81.40 6 o
-4 4 2 92.00 36.50 55.00 6 <
-7 -3 3 286.11 303.20 61.40 6 o
-6 4 3 34.84 7.10 55.60 6 <
-9 -3 4 968.28 942.90 69.60 6 o
-8 -2 4 4211.30 3894.70 107.00 6 o
-8 4 4 1186.40 33.20 54.00 6 <
-11 -3 5 146.99 57.80 54.10 6 <
-10 -2 5 368.90 297.20 61.40 6 o
-10 4 5 76.22 8.30 55.10 6 <
-12 -2 6 903.29 870.60 69.40 6 o
-11 3 6 181.76 194.40 57.80 6 o
-12 4 6 320.00 133.20 57.40 6 <
-14 -2 7 193.94 142.80 57.20 6 <
-13 3 7 29.06 23.30 55.40 6 <
-14 4 7 73.93 109.70 55.20 6 <
-16 -2 8 102.67 363.60 59.30 6 o
-15 3 8 145.12 137.70 57.50 6 <
-19 -3 9 57.28 41.90 53.40 6 <
-18 -2 9 40.96 37.30 53.70 6 <
-17 1 9 424.32 209.80 58.30 6 o
-17 3 9 92.89 23.20 55.80 6 <
-21 -3 10 32.29 6.70 53.50 6 <
-20 -2 10 361.68 248.90 58.30 6 o
-19 1 10 407.00 407.60 61.70 6 o
-19 3 10 51.51 111.90 56.20 6 <
-22 -2 11 100.39 107.30 54.70 6 <
-21 1 11 79.94 69.20 54.70 6 <
-24 -2 12 37.31 78.60 53.30 6 <
-24 0 12 95.93 183.20 56.30 6 o
-23 1 12 746.62 702.60 65.80 6 o
-26 0 13 11.07 9.20 53.60 6 <
-25 1 13 112.06 6.90 54.60 6 <
25 -1 -14 103.44 63.40 53.80 7 <
25 1 -14 138.05 44.90 53.50 7 <
23 -1 -13 88.03 6.70 53.40 7 <
24 2 -13 30.49 -10.50 52.20 7 <
22 0 -12 1076.20 961.70 68.70 7 o
22 2 -12 427.58 390.80 59.10 7 o
19 -3 -11 64.91 36.90 53.50 7 <
20 0 -11 55.97 78.70 54.80 7 <
20 2 -11 26.82 69.70 52.90 7 <
17 -3 -10 265.82 269.80 57.50 7 o
18 -2 -10 653.55 707.80 65.10 7 o
18 0 -10 1617.40 1434.80 77.00 7 o
18 2 -10 724.10 538.70 63.20 7 o
16 -2 -9 474.15 456.60 63.90 7 o
14 -2 -8 1285.70 1419.60 76.10 7 o
15 1 -8 741.72 528.10 63.30 7 o
15 3 -8 178.98 191.80 56.30 7 o
12 -4 -7 120.04 118.30 55.00 7 <
13 1 -7 50.99 40.10 56.20 7 <
13 3 -7 28.61 -17.40 53.60 7 <
10 -4 -6 23.04 -3.40 53.70 7 <
11 -1 -6 289.08 368.00 61.30 7 o
11 1 -6 251.30 223.10 59.20 7 o
11 3 -6 242.49 140.40 54.90 7 <
8 -4 -5 44.39 -9.80 53.40 7 <
9 -1 -5 193.35 369.10 62.80 7 o
9 3 -5 25.29 108.90 54.50 7 <
6 -4 -4 74.32 14.90 54.90 7 <
4 -4 -3 86.61 16.40 53.20 7 <
5 -3 -3 565.00 650.10 65.10 7 o
3 -3 -2 926.88 702.80 66.60 7 o
4 2 -2 939.38 877.00 69.60 7 o
4 4 -2 302.53 149.20 56.00 7 <
1 -3 -1 17.35 54.10 54.80 7 <
2 2 -1 623.37 826.90 73.60 7 o
2 4 -1 21.57 29.90 55.00 7 <
-1 -3 0 128.65 5.10 53.80 7 <
0 2 0 25646.00 26384.20 248.40 7 o
0 4 0 905.83 1188.00 74.80 7 o
-3 -3 1 390.39 264.70 59.30 7 o
-2 4 1 37.98 96.00 55.80 7 <
-4 -2 2 1113.70 1020.30 72.10 7 o
-4 4 2 249.56 107.60 55.60 7 <
-6 -2 3 139.19 253.80 58.80 7 o
-6 4 3 21.33 50.70 54.10 7 <
-8 -2 4 3568.10 3506.90 101.40 7 o
-8 4 4 1166.50 4.20 53.70 7 <
-10 -2 5 355.77 238.90 60.00 7 o
-9 3 5 37.24 64.90 55.60 7 <
-10 4 5 122.69 53.80 54.20 7 <
-12 -2 6 778.00 590.60 65.70 7 o
-11 1 6 283.79 318.60 60.40 7 o
-11 3 6 129.22 131.30 57.00 7 <
-14 -4 7 86.56 55.50 53.30 7 <
-14 -2 7 215.55 115.70 57.10 7 <
-13 1 7 44.67 55.30 55.80 7 <
-13 3 7 18.88 39.90 55.10 7 <
-16 -2 8 94.82 216.90 56.00 7 o
-15 1 8 783.52 702.00 65.90 7 o
-15 3 8 325.90 219.60 57.50 7 o
-18 -2 9 44.21 53.80 53.90 7 <
-17 -1 9 388.66 172.80 59.20 7 <
-17 1 9 353.22 154.30 59.00 7 <
-17 3 9 160.87 62.30 55.90 7 <
-20 -2 10 603.78 443.70 60.20 7 o
-19 -1 10 638.75 581.30 63.40 7 o
-19 1 10 438.00 353.90 61.70 7 o
-19 3 10 267.62 158.80 57.30 7 <
-22 -2 11 270.09 89.40 54.30 7 <
-21 -1 11 63.31 93.80 54.50 7 <
-21 1 11 66.00 25.10 54.30 7 <
-24 -2 12 49.66 72.00 53.40 7 <
-23 -1 12 637.24 565.20 63.70 7 o
-23 1 12 507.82 563.80 63.40 7 o
-25 -1 13 89.88 38.00 53.10 7 <
-25 1 13 89.36 11.50 54.40 7 <
26 0 -15 96.29 97.40 54.50 8 <
24 0 -14 266.61 118.20 55.50 8 <
22 -2 -13 209.64 62.60 54.80 8 <
23 -1 -13 88.10 -11.30 53.20 8 <
23 1 -13 39.19 15.60 54.00 8 <
21 -1 -12 221.51 151.60 56.20 8 <
21 1 -12 172.08 112.70 55.10 8 <
19 -3 -11 130.10 16.90 53.20 8 <
19 -1 -11 229.95 245.60 57.60 8 o
19 1 -11 195.94 88.50 55.50 8 <
19 3 -11 50.91 39.40 53.40 8 <
17 -3 -10 196.22 244.00 58.00 8 o
15 -3 -9 75.25 22.50 54.50 8 <
16 0 -9 1505.00 1638.60 82.20 8 o
16 2 -9 750.64 497.50 63.20 8 o
14 -2 -8 1259.30 1199.00 73.80 8 o
14 0 -8 3812.50 3748.20 105.90 8 o
14 2 -8 1302.70 1395.00 77.20 8 o
14 4 -8 271.11 177.50 57.10 8 o
12 -2 -7 869.85 862.20 70.50 8 o
12 4 -7 109.82 80.80 54.40 8 <
10 -4 -6 90.21 81.90 54.10 8 <
10 4 -6 69.33 33.00 52.80 8 <
8 -4 -5 69.19 53.20 54.20 8 <
9 1 -5 268.54 494.80 67.00 8 o
9 3 -5 106.02 84.90 55.80 8 <
6 -4 -4 97.81 -27.40 53.30 8 <
7 -1 -4 965.69 1255.70 79.10 8 o
7 1 -4 987.74 1003.90 76.90 8 o
7 3 -4 76.86 123.00 56.30 8 <
5 -3 -3 937.96 1133.10 75.30 8 o
5 3 -3 1188.90 1000.00 74.10 8 o
3 -3 -2 911.08 753.10 68.00 8 o
1 -3 -1 63.96 55.00 55.00 8 <
0 2 0 26616.00 25468.70 246.30 8 o
0 4 0 1145.60 1230.40 76.90 8 o
-2 -2 1 394.25 750.50 72.40 8 o
-2 2 1 423.35 623.30 71.40 8 o
-2 4 1 66.40 24.80 55.20 8 <
-4 -2 2 1024.60 844.60 70.40 8 o
-4 4 2 235.98 145.60 56.00 8 <
-6 -4 3 31.56 69.50 53.70 8 <
-6 4 3 32.29 -4.10 54.60 8 <
-8 -4 4 780.60 977.80 68.80 8 o
-8 4 4 1070.10 -41.30 54.70 8 <
-10 -4 5 41.07 23.10 54.20 8 <
-9 1 5 134.14 232.30 63.40 8 o
-9 3 5 36.47 72.70 56.40 8 <
-12 -4 6 181.18 56.70 54.30 8 <
-11 -1 6 313.90 184.60 60.10 8 o
-11 1 6 232.13 341.70 62.00 8 o
-11 3 6 96.09 71.20 56.30 8 <
-14 -4 7 89.07 44.90 53.50 8 <
-13 -3 7 45.94 11.80 53.20 8 <
-13 -1 7 53.27 46.10 58.00 8 <
-13 1 7 40.53 50.60 56.40 8 <
-13 3 7 26.80 56.40 55.50 8 <
-15 -3 8 252.48 255.80 57.10 8 o
-15 -1 8 871.56 611.00 66.40 8 o
-15 3 8 197.70 66.90 57.30 8 <
-17 -3 9 109.59 71.00 55.20 8 <
-17 -1 9 414.46 359.00 61.50 8 o
-17 3 9 43.22 55.70 56.00 8 <
-19 -3 10 245.86 283.90 58.80 8 o
-19 3 10 158.40 124.10 57.70 8 <
-20 0 11 51.23 35.80 55.40 8 <
-20 2 11 20.45 30.00 54.70 8 <
-22 0 12 762.23 767.50 67.00 8 o
-22 2 12 329.11 266.90 58.70 8 o
-24 -2 13 28.95 19.00 52.50 8 <
-24 0 13 16.31 6.80 53.30 8 <
-24 2 13 16.60 15.70 53.60 8 <
-26 0 14 385.13 479.30 60.40 8 o
26 0 -15 51.22 58.00 53.20 9 <
24 0 -14 43.26 90.80 54.50 9 <
22 -2 -13 160.21 78.90 54.10 9 <
22 2 -13 231.54 -16.50 53.80 9 <
21 -1 -12 120.15 135.10 55.80 9 <
21 1 -12 129.11 116.80 54.90 9 <
19 -3 -11 80.31 -4.10 54.30 9 <
19 -1 -11 250.05 182.60 56.60 9 o
19 1 -11 212.06 103.20 55.20 9 <
19 3 -11 57.26 -15.40 53.80 9 <
17 -3 -10 108.82 214.00 57.60 9 o
17 -1 -10 1551.70 887.40 70.20 9 o
17 3 -10 103.28 173.30 56.00 9 o
15 -3 -9 131.00 80.00 53.60 9 <
15 3 -9 159.73 42.50 53.20 9 <
14 -2 -8 1444.50 1805.90 82.00 9 o
14 0 -8 1766.40 2544.30 92.00 9 o
14 2 -8 1533.50 1246.10 74.10 9 o
12 -4 -7 170.74 151.90 56.80 9 <
12 -2 -7 1304.10 1166.10 74.30 9 o
12 2 -7 1434.20 858.50 70.80 9 o
12 4 -7 116.09 92.90 54.30 9 <
10 -4 -6 45.24 22.10 54.10 9 <
10 4 -6 110.82 -18.80 53.10 9 <
8 -4 -5 101.00 46.50 55.10 9 <
8 4 -5 130.30 81.30 54.30 9 <
6 -4 -4 94.46 -41.40 53.10 9 <
7 -1 -4 647.29 1229.10 77.80 9 o
7 1 -4 798.00 875.80 75.80 9 o
7 3 -4 122.81 251.40 58.50 9 o
5 -3 -3 1151.30 1448.60 78.80 9 o
5 3 -3 1243.00 842.80 75.20 9 o
3 -3 -2 1035.10 788.30 69.30 9 o
3 3 -2 1179.80 844.00 70.70 9 o
0 -2 0 35860.00 39996.30 300.00 9 o
0 2 0 29158.00 26259.60 246.00 9 o
-2 -2 1 916.23 738.20 77.00 9 o
-2 2 1 883.86 680.60 71.30 9 o
-2 4 1 84.72 108.20 55.20 9 <
-4 -4 2 357.95 254.10 56.20 9 o
-4 4 2 387.84 179.80 55.90 9 o
-6 -4 3 69.50 14.90 53.10 9 <
-6 4 3 60.36 21.60 54.30 9 <
-8 -4 4 689.39 494.90 62.00 9 o
-8 4 4 783.41 21.90 53.10 9 <
-10 -4 5 66.34 9.60 54.10 9 <
-9 -1 5 280.51 655.50 68.30 9 o
-9 1 5 180.42 335.20 66.60 9 o
-9 3 5 80.32 87.40 57.60 9 <
-10 4 5 71.43 24.10 54.40 9 <
-12 -4 6 189.91 109.10 53.80 9 <
-11 -3 6 141.58 61.20 54.60 9 <
-11 -1 6 283.92 198.10 60.20 9 o
-11 1 6 201.70 258.70 61.00 9 o
-11 3 6 116.00 138.40 56.90 9 <
-13 -3 7 34.96 20.20 53.70 9 <
-13 3 7 19.05 48.70 54.40 9 <
-15 -3 8 233.59 100.50 56.00 9 <
-15 3 8 285.59 167.90 57.30 9 <
-17 -3 9 89.20 99.70 55.10 9 <
-17 3 9 145.88 67.80 55.90 9 <
-19 -3 10 303.13 249.60 57.60 9 o
-18 -2 10 640.98 467.40 61.70 9 o
-18 0 10 559.06 858.70 70.40 9 o
-18 2 10 807.46 507.10 64.80 9 o
-19 3 10 421.34 161.60 58.00 9 <
-20 -2 11 42.40 42.10 54.50 9 <
-20 0 11 32.73 81.80 54.50 9 <
-20 2 11 23.31 38.30 55.50 9 <
-22 -2 12 380.35 424.00 60.70 9 o
-22 0 12 305.55 435.20 61.70 9 o
-22 2 12 361.49 301.00 58.90 9 o
-24 -2 13 15.27 14.90 52.80 9 <
-24 0 13 23.79 1.40 52.70 9 <
-24 2 13 28.27 -6.30 53.50 9 <
-26 0 14 261.87 350.70 58.80 9 o
25 -1 -15 19.34 18.40 53.10 10 <
25 1 -15 19.20 -34.90 53.20 10 <
24 0 -14 34.76 1.40 52.60 10 <
22 -2 -13 112.31 42.70 54.20 10 <
22 0 -13 111.39 82.20 54.90 10 <
22 2 -13 115.81 47.70 54.20 10 <
20 -2 -12 119.08 49.70 54.10 10 <
20 0 -12 85.04 23.70 53.80 10 <
20 2 -12 107.25 19.80 53.30 10 <
19 1 -11 247.70 157.50 54.80 10 <
17 -3 -10 238.47 285.50 58.80 10 o
17 -1 -10 437.50 695.20 66.80 10 o
17 1 -10 438.53 701.40 66.30 10 o
17 3 -10 270.16 281.40 57.30 10 o
15 -3 -9 42.19 39.70 54.20 10 <
15 3 -9 41.50 -24.30 53.00 10 <
13 -3 -8 70.90 14.90 53.10 10 <
13 3 -8 74.28 58.90 53.80 10 <
12 -2 -7 1304.80 1056.80 73.80 10 o
12 0 -7 1895.80 2239.50 90.90 10 o
12 2 -7 1473.60 982.00 72.30 10 o
10 -4 -6 53.92 61.00 53.50 10 <
10 -2 -6 253.81 367.40 63.50 10 o
10 2 -6 278.20 346.30 61.80 10 o
10 4 -6 53.45 25.90 53.20 10 <
8 -4 -5 187.60 78.80 54.20 10 <
8 4 -5 196.01 103.20 55.30 10 <
6 -4 -4 195.17 81.80 54.60 10 <
7 -1 -4 1011.00 1110.50 78.00 10 o
7 1 -4 975.72 1083.10 77.30 10 o
6 4 -4 216.78 -0.50 54.30 10 <
5 -3 -3 1391.20 1530.70 78.40 10 o
5 -1 -3 15281.00 11289.70 170.20 10 o
5 3 -3 1403.90 1244.60 76.60 10 o
3 -3 -2 1117.90 846.20 68.80 10 o
3 3 -2 1168.40 794.90 69.00 10 o
0 -2 0 31060.00 32094.50 272.20 10 o
0 2 0 30805.00 28739.20 255.80 10 o
-2 -4 1 299.47 94.00 55.80 10 <
-2 -2 1 825.90 799.50 73.00 10 o
-2 2 1 850.90 793.40 71.90 10 o
-2 4 1 313.68 101.90 56.10 10 <
-4 -4 2 274.94 179.50 55.20 10 o
-4 4 2 285.83 154.60 56.50 10 <
-6 -4 3 34.26 47.70 52.40 10 <
-6 4 3 36.11 -0.50 54.20 10 <
-8 -4 4 522.06 512.80 62.50 10 o
-7 -1 4 742.96 869.20 77.20 10 o
-7 1 4 794.00 906.70 76.30 10 o
-8 4 4 554.81 -18.10 54.20 10 <
-9 -3 5 336.56 164.40 57.10 10 <
-9 -1 5 673.25 353.70 65.40 10 o
-9 1 5 630.53 461.60 65.50 10 o
-9 3 5 346.12 82.40 57.50 10 <
-11 -3 6 150.79 72.90 54.00 10 <
-11 3 6 150.90 0.00 56.00 10 <
-13 -3 7 32.33 8.70 53.80 10 <
-13 3 7 37.26 -3.40 55.50 10 <
-14 -2 8 1422.70 1270.80 76.30 10 o
-14 0 8 1705.90 2465.50 92.90 10 o
-14 2 8 1385.20 1365.90 77.10 10 o
-16 -2 9 377.23 410.30 64.40 10 o
-16 0 9 748.46 901.20 72.30 10 o
-16 2 9 422.29 495.60 64.50 10 o
-18 -2 10 333.65 441.10 62.00 10 o
-18 0 10 634.16 1100.80 71.80 10 o
-18 2 10 334.15 419.40 62.40 10 o
-20 -2 11 67.08 69.30 54.40 10 <
-20 2 11 63.34 54.00 55.20 10 <
-22 -2 12 485.97 531.00 62.10 10 o
-22 2 12 489.08 431.40 61.30 10 o
-23 -1 13 17.40 45.50 53.00 10 <
-23 1 13 16.95 32.10 54.40 10 <
-25 -1 14 77.12 60.60 52.80 10 <
-25 1 14 78.80 30.40 53.30 10 <
25 -1 -15 39.52 3.50 52.40 11 <
23 -1 -14 7.44 0.10 53.70 11 <
23 1 -14 23.62 30.40 53.10 11 <
21 1 -13 147.34 13.20 53.70 11 <
20 -2 -12 78.40 3.20 53.70 11 <
20 0 -12 79.26 68.40 53.80 11 <
19 3 -12 47.14 24.80 53.40 11 <
18 -2 -11 109.51 64.70 54.60 11 <
18 0 -11 92.96 81.80 56.30 11 <
18 2 -11 118.74 59.80 54.10 11 <
16 2 -10 220.55 134.40 55.10 11 <
15 -3 -9 145.59 38.70 54.00 11 <
15 -1 -9 86.39 71.00 55.40 11 <
15 1 -9 151.18 134.20 57.40 11 <
13 -3 -8 20.83 5.80 53.30 11 <
13 1 -8 116.73 63.30 57.70 11 <
13 3 -8 46.71 25.40 53.10 11 <
11 3 -7 328.91 219.10 58.90 11 o
10 -4 -6 69.53 1.40 52.90 11 <
10 -2 -6 165.03 251.60 61.10 11 o
10 0 -6 587.66 704.50 71.90 11 o
10 2 -6 372.01 368.20 60.80 11 o
8 -4 -5 85.87 101.70 55.10 11 <
8 2 -5 129.38 406.10 63.30 11 o
8 4 -5 250.07 133.70 55.60 11 <
6 -4 -4 238.08 -3.30 55.10 11 <
6 4 -4 185.37 65.10 54.90 11 <
5 -3 -3 1559.60 1887.20 84.50 11 o
5 -1 -3 9308.90 12223.80 174.10 11 o
5 1 -3 12927.00 13574.10 183.70 11 o
4 4 -3 72.11 90.30 54.50 11 <
3 -3 -2 1431.30 1089.60 73.50 11 o
3 3 -2 1328.80 1048.40 73.50 11 o
1 3 -1 43.52 93.20 55.00 11 <
0 -2 0 22932.00 27922.90 257.00 11 o
-2 -4 1 292.33 166.10 56.60 11 <
-2 2 1 760.15 741.50 74.90 11 o
-4 -4 2 216.92 129.90 55.00 11 <
-4 4 2 216.51 113.10 55.70 11 <
-5 -1 3 14320.00 10239.90 165.00 11 o
-6 4 3 68.17 -1.10 54.50 11 <
-7 -3 4 200.10 163.90 57.10 11 <
-7 1 4 1246.00 1224.30 79.70 11 o
-7 3 4 428.07 218.40 59.50 11 o
-8 4 4 610.11 -2.50 54.00 11 <
-9 -3 5 95.04 113.20 57.00 11 <
-9 3 5 79.12 193.50 58.80 11 o
-11 3 6 269.40 170.60 58.20 11 <
-12 -2 7 852.03 980.50 72.60 11 o
-12 0 7 1490.90 2173.90 91.40 11 o
-12 2 7 1356.20 1254.80 77.50 11 o
-14 -4 8 168.93 167.70 56.20 11 <
-14 -2 8 746.45 1116.70 73.50 11 o
-14 0 8 3523.00 3284.10 101.10 11 o
-14 2 8 1622.70 1215.80 75.80 11 o
-16 2 9 463.58 419.30 64.40 11 o
-17 -1 10 623.33 671.90 66.00 11 o
-19 -3 11 127.06 109.00 54.10 11 <
-19 -1 11 187.68 110.50 56.10 11 <
-19 1 11 93.45 123.40 58.10 11 <
-21 -1 12 91.94 77.20 54.70 11 <
-21 1 12 134.98 143.30 55.50 11 <
-23 -1 13 19.93 39.00 52.80 11 <
-23 1 13 54.03 4.90 54.70 11 <
-24 0 14 184.42 48.70 54.10 11 <
-25 1 14 189.19 21.50 54.50 11 <
-26 0 15 50.08 3.70 53.40 11 <
23 1 -15 80.09 71.70 52.90 13 <
22 -2 -14 222.36 218.40 58.00 13 o
22 0 -14 785.90 548.50 62.40 13 o
22 2 -14 380.04 338.40 58.10 13 o
20 2 -13 79.22 11.50 52.60 13 <
19 -3 -12 107.78 42.80 53.70 13 <
19 -1 -12 170.39 113.70 55.30 13 <
19 1 -12 186.76 55.30 55.80 13 <
17 1 -11 115.35 128.60 55.70 13 <
17 3 -11 36.59 -3.20 52.90 13 <
16 -2 -10 149.64 107.30 55.00 13 <
16 0 -10 635.65 329.00 62.60 13 o
15 3 -10 80.91 133.60 54.10 13 <
14 2 -9 459.20 332.90 61.30 13 o
13 -3 -8 21.91 11.80 53.20 13 <
13 -1 -8 151.33 95.30 56.50 13 <
12 2 -8 105.69 109.10 55.60 13 <
12 4 -8 7.74 14.90 53.00 13 <
11 -3 -7 653.27 363.90 60.00 13 o
11 1 -7 1703.30 1488.20 77.90 13 o
10 4 -7 107.93 48.20 52.50 13 <
9 3 -6 320.86 281.10 58.30 13 o
8 -4 -5 91.06 102.20 55.10 13 <
8 -2 -5 341.70 301.30 61.20 13 o
8 0 -5 1928.70 1850.50 88.10 13 o
7 3 -5 320.99 255.70 57.50 13 o
6 -4 -4 189.26 -41.30 54.80 13 <
6 2 -4 284.67 351.90 61.60 13 o
5 -3 -3 1247.10 1420.80 80.50 13 o
5 -1 -3 11774.00 11029.80 163.40 13 o
4 4 -3 107.81 67.10 54.90 13 <
3 1 -2 14848.00 13616.30 182.10 13 o
2 4 -2 113.08 88.30 54.40 13 <
1 3 -1 75.67 95.80 54.80 13 <
0 -4 0 1081.30 1395.30 77.70 13 o
0 -2 0 30039.00 27391.50 248.50 13 o
-1 3 0 138.36 132.70 55.70 13 <
-2 -4 1 303.90 143.70 55.80 13 <
-2 2 1 502.67 823.90 72.30 13 o
-3 -3 2 2222.50 2668.70 92.30 13 o
-5 -3 3 965.53 1322.10 77.60 13 o
-5 1 3 9367.40 12198.10 173.80 13 o
-6 4 3 13.16 -4.00 54.00 13 <
-7 3 4 332.37 156.50 58.50 13 <
-8 4 4 604.48 -30.30 54.80 13 <
-8 -4 5 130.02 32.70 54.00 13 <
-8 -2 5 606.40 480.00 62.90 13 o
-9 3 5 86.14 162.40 57.10 13 <
-10 -4 6 19.36 -3.10 52.80 13 <
-10 2 6 185.66 256.40 60.10 13 o
-11 -3 7 576.76 214.20 58.50 13 o
-12 2 7 843.18 807.60 69.90 13 o
-13 -3 8 51.52 16.90 52.90 13 <
-13 -1 8 65.38 64.30 56.00 13 <
-14 4 8 297.37 167.30 57.70 13 <
-15 -3 9 60.46 13.80 53.20 13 <
-15 1 9 170.63 109.30 56.70 13 <
-16 -2 10 231.58 149.10 56.20 13 <
-17 1 10 1097.20 685.20 66.60 13 o
-17 3 10 249.34 146.60 57.80 13 <
-18 -2 11 80.55 50.40 53.70 13 <
-18 0 11 324.37 211.00 57.50 13 o
-19 3 11 50.43 43.50 54.90 13 <
-20 -2 12 44.48 13.80 53.30 13 <
-20 0 12 89.98 42.20 54.10 13 <
-20 2 12 108.66 8.40 54.60 13 <
-22 2 13 64.25 41.10 54.60 13 <
-23 -1 14 82.24 7.00 52.60 13 <
-25 -1 15 28.02 12.40 52.90 13 <
-25 1 15 22.98 50.00 53.00 13 <
23 -1 -15 68.23 -18.80 53.30 14 <
23 1 -15 80.86 46.00 53.00 14 <
22 -2 -14 198.51 246.60 57.60 14 o
21 1 -14 287.64 183.20 56.30 14 o
20 -2 -13 40.14 16.30 53.20 14 <
20 0 -13 73.38 -38.10 53.90 14 <
19 3 -13 35.96 -22.20 52.80 14 <
19 -3 -12 26.19 49.80 54.00 14 <
19 -1 -12 177.53 120.10 55.80 14 <
18 2 -12 142.92 154.10 56.40 14 <
17 -3 -11 92.75 72.60 54.90 14 <
17 -1 -11 463.92 332.40 59.70 14 o
17 1 -11 111.77 140.10 56.00 14 <
16 -2 -10 308.55 214.30 58.40 14 o
15 3 -10 178.83 177.10 56.50 14 o
14 -2 -9 738.57 553.80 64.60 14 o
14 0 -9 1974.10 1878.00 83.70 14 o
13 3 -9 56.36 72.50 55.30 14 <
13 -3 -8 62.35 42.40 53.30 14 <
12 2 -8 54.72 70.20 56.30 14 <
11 -3 -7 447.65 347.30 60.30 14 o
11 -1 -7 1888.80 1894.00 85.00 14 o
10 4 -7 62.78 14.10 54.10 14 <
9 1 -6 2600.40 2431.80 92.00 14 o
8 4 -6 193.81 126.00 54.50 14 <
8 -4 -5 50.94 101.60 55.40 14 <
8 -2 -5 472.23 489.50 63.30 14 o
7 3 -5 289.40 215.10 58.80 14 o
6 2 -4 238.44 277.90 60.70 14 o
5 -3 -3 1313.60 1317.70 79.80 14 o
3 1 -2 14265.00 12691.80 179.30 14 o
2 4 -2 54.83 26.50 54.60 14 <
2 -4 -1 237.62 70.40 55.80 14 <
1 3 -1 72.49 59.00 55.20 14 <
0 4 -1 41.30 36.80 53.90 14 <
0 -4 0 937.88 1121.10 75.10 14 o
-1 3 0 96.24 45.20 56.20 14 <
-2 2 1 760.70 936.40 73.70 14 o
-3 -3 2 2217.70 1753.80 84.00 14 o
-3 -1 2 11855.00 13986.80 185.50 14 o
-5 1 3 10981.00 10682.30 170.40 14 o
-6 4 3 5.56 24.30 53.60 14 <
-6 -4 4 167.74 86.60 55.10 14 <
-6 -2 4 272.23 300.50 62.00 14 o
-7 3 4 307.26 171.00 58.70 14 <
-8 4 4 716.70 -14.40 53.80 14 <
-8 -4 5 71.07 120.00 54.20 14 <
-8 -2 5 502.62 577.00 65.90 14 o
-8 0 5 1462.00 1207.10 83.70 14 o
-9 3 5 115.27 53.00 56.70 14 <
-10 2 6 187.80 164.20 61.10 14 <
-11 -3 7 222.59 339.90 59.90 14 o
-11 -1 7 1435.20 1602.00 81.90 14 o
-12 2 7 1109.00 838.90 71.10 14 o
-13 -3 8 98.34 0.80 53.00 14 <
-13 1 8 103.45 64.90 57.20 14 <
-14 4 8 176.03 107.60 57.40 14 <
-14 -2 9 403.62 395.30 60.90 14 o
-15 1 9 79.92 16.10 55.80 14 <
-16 -2 10 183.45 137.10 56.20 14 <
-16 0 10 369.44 545.30 63.00 14 o
-17 3 10 166.64 141.30 57.10 14 <
-18 0 11 198.88 207.00 57.30 14 o
-18 2 11 115.15 55.40 55.50 14 <
-19 3 11 32.39 44.60 54.70 14 <
-19 -3 12 24.07 81.60 53.30 14 <
-19 -1 12 96.70 125.90 54.80 14 <
-20 2 12 47.24 27.30 53.50 14 <
-21 -1 13 65.63 21.40 53.00 14 <
-21 1 13 49.60 56.50 53.40 14 <
-22 2 13 33.71 20.30 55.10 14 <
-23 -1 14 63.47 11.90 52.80 14 <
-23 1 14 16.71 30.80 53.60 14 <
-25 1 15 50.22 48.80 53.70 14 <
24 0 -16 55.21 -33.60 54.00 15 <
23 -1 -15 34.63 22.60 52.50 15 <
22 2 -15 15.73 -1.50 52.30 15 <
21 -1 -14 232.57 133.60 56.00 15 <
21 1 -14 195.90 151.90 55.10 15 <
20 -2 -13 36.55 44.30 53.70 15 <
19 1 -13 173.16 93.40 54.20 15 <
19 3 -13 80.73 5.80 53.00 15 <
18 0 -12 212.97 326.70 58.50 15 o
17 3 -12 30.16 19.40 52.90 15 <
17 -3 -11 83.45 15.00 54.50 15 <
17 -1 -11 116.52 112.70 55.20 15 <
16 2 -11 127.50 35.00 53.10 15 <
15 1 -10 358.40 405.30 61.20 15 o
14 -2 -9 575.14 475.70 64.10 15 o
13 3 -9 235.57 65.30 54.10 15 <
12 4 -9 32.39 43.40 53.50 15 <
12 0 -8 67.79 132.50 58.10 15 <
11 3 -8 298.92 339.60 59.20 15 o
11 -3 -7 412.18 285.00 58.70 15 o
11 -1 -7 1286.60 1439.10 78.80 15 o
10 2 -7 275.57 355.70 60.70 15 o
9 1 -6 1502.10 1911.00 86.40 15 o
8 4 -6 217.63 -10.90 53.70 15 <
8 -4 -5 119.98 102.20 55.00 15 <
8 -2 -5 172.23 288.20 61.20 15 o
6 4 -5 70.24 129.10 55.90 15 <
5 3 -4 443.24 521.80 62.60 15 o
5 -3 -3 695.77 824.50 70.60 15 o
4 2 -3 452.09 754.90 68.40 15 o
2 -4 -1 114.45 142.40 55.20 15 <
2 -2 -1 677.78 783.50 75.30 15 o
0 4 -1 15.04 31.60 54.30 15 <
0 -4 0 1140.20 1393.80 77.70 15 o
-1 3 0 48.56 3.60 55.70 15 <
-1 -3 1 58.38 123.10 57.50 15 <
-2 2 1 746.11 569.40 69.20 15 o
-3 -3 2 2130.80 1919.80 83.50 15 o
-3 -1 2 12487.00 10870.50 166.50 15 o
-4 -4 3 118.01 110.70 55.30 15 <
-5 1 3 11705.00 11218.60 168.20 15 o
-6 4 3 15.19 -4.30 53.50 15 <
-6 -4 4 92.17 9.20 53.50 15 <
-6 -2 4 152.41 339.80 63.30 15 o
-7 3 4 135.49 163.90 57.10 15 <
-8 4 4 454.54 22.90 53.20 15 <
-9 3 5 57.59 74.80 56.20 15 <
-9 -3 6 256.67 345.80 60.30 15 o
-9 -1 6 2268.10 2312.50 91.50 15 o
-10 2 6 160.08 267.10 61.20 15 o
-12 -4 8 18.95 15.00 52.80 15 <
-12 -2 8 83.10 89.10 57.00 15 <
-13 1 8 205.27 135.40 56.60 15 <
-14 4 8 168.18 177.40 57.30 15 o
-14 -2 9 431.69 405.20 62.90 15 o
-14 0 9 1372.70 1267.20 77.80 15 o
-15 3 9 45.56 57.20 54.60 15 <
-15 -3 10 252.33 212.10 57.20 15 o
-16 0 10 469.49 311.20 61.60 15 o
-17 3 10 248.22 154.00 58.20 15 <
-17 -3 11 27.86 28.00 52.70 15 <
-17 -1 11 51.61 110.70 55.30 15 <
-18 2 11 46.25 70.70 54.80 15 <
-19 -3 12 33.94 49.30 53.80 15 <
-19 -1 12 162.28 173.30 56.00 15 o
-19 1 12 245.52 129.20 55.60 15 <
-20 2 12 122.25 41.40 53.50 15 <
-20 -2 13 34.27 16.90 52.90 15 <
-21 1 13 33.28 32.40 53.30 15 <
-22 -2 14 184.92 193.20 56.50 15 o
-22 0 14 285.09 327.50 59.20 15 o
-24 0 15 5.49 -21.60 52.50 15 <
23 1 -16 130.95 130.30 55.20 16 <
22 -2 -15 76.03 61.00 53.20 16 <
22 0 -15 31.49 37.90 53.50 16 <
21 -1 -14 184.80 218.20 56.90 16 o
20 2 -14 122.42 141.20 55.60 16 <
19 1 -13 127.09 82.60 55.10 16 <
18 -2 -12 211.69 243.30 56.90 16 o
18 0 -12 356.69 449.80 61.60 16 o
17 3 -12 53.98 -3.50 52.30 16 <
17 -3 -11 100.45 22.60 54.10 16 <
16 0 -11 148.32 140.30 57.10 16 <
15 3 -11 84.04 22.20 53.70 16 <
15 -3 -10 186.02 153.90 55.20 16 <
15 -1 -10 329.04 476.70 62.40 16 o
14 2 -10 1693.70 1332.50 75.20 16 o
14 -2 -9 616.83 529.50 63.60 16 o
13 1 -9 446.91 480.20 63.90 16 o
12 4 -9 72.92 -9.30 53.30 16 <
12 -4 -8 21.26 11.90 52.90 16 <
12 -2 -8 161.89 155.40 57.20 16 <
12 0 -8 75.28 140.20 57.60 16 <
11 3 -8 415.72 243.00 57.80 16 o
10 4 -8 358.86 346.80 58.60 16 o
11 -3 -7 295.98 283.70 58.00 16 o
10 2 -7 316.99 345.80 61.70 16 o
9 -1 -6 2496.50 2840.90 95.60 16 o
8 -4 -5 115.80 76.70 54.80 16 <
8 -2 -5 199.21 280.70 62.90 16 o
6 4 -5 113.11 78.70 54.90 16 <
6 0 -4 393.66 487.00 78.50 16 o
5 3 -4 479.51 481.50 63.10 16 o
5 -3 -3 815.86 813.40 69.30 16 o
4 2 -3 634.53 750.70 70.50 16 o
2 -4 -1 117.09 48.80 53.70 16 <
2 -2 -1 478.73 737.20 70.20 16 o
0 4 -1 53.95 68.90 53.70 16 <
-1 3 0 54.94 24.50 56.50 16 <
-1 -3 1 36.61 86.50 55.60 16 <
-2 2 1 610.16 503.30 67.10 16 o
-4 -4 3 165.28 86.30 54.50 16 <
-4 -2 3 858.13 814.00 71.60 16 o
-6 4 3 6.61 20.70 53.70 16 <
-6 -4 4 53.05 26.40 53.00 16 <
-6 0 4 397.00 477.80 79.00 16 o
-7 3 4 137.64 202.40 57.80 16 o
-8 4 4 824.19 -10.80 55.00 16 <
-7 -3 5 369.47 248.00 59.60 16 o
-9 3 5 52.11 87.00 55.60 16 <
-9 -3 6 416.36 268.40 58.80 16 o
-9 -1 6 1581.10 1848.50 88.10 16 o
-10 2 6 245.39 251.30 62.00 16 o
-10 -4 7 110.69 101.00 54.00 16 <
-11 1 7 1318.60 1272.30 79.10 16 o
-12 4 7 145.16 63.70 56.20 16 <
-12 -4 8 19.70 11.90 52.80 16 <
-12 -2 8 115.03 115.90 56.40 16 <
-14 4 8 270.52 230.10 57.30 16 o
-14 0 9 1784.40 1077.10 78.50 16 o
-15 3 9 21.64 -15.20 54.50 16 <
-15 -3 10 157.05 108.00 56.00 16 <
-15 -1 10 410.29 471.50 62.80 16 o
-16 2 10 423.25 193.90 57.70 16 o
-17 -1 11 94.88 89.20 55.00 16 <
-17 1 11 17.30 10.10 54.00 16 <
-18 2 11 102.51 73.50 55.50 16 <
-18 -2 12 188.45 194.10 56.80 16 o
-19 1 12 195.08 113.60 55.50 16 <
-20 -2 13 65.52 49.50 53.20 16 <
-20 0 13 41.31 33.50 52.80 16 <
-22 0 14 486.30 344.30 60.20 16 o
-22 2 14 369.01 255.80 58.90 16 o
-23 -1 15 73.26 24.80 53.40 16 <
24 0 -17 35.40 34.60 52.60 17 <
23 -1 -16 101.05 59.80 54.00 17 <
22 -2 -15 18.22 8.20 53.50 17 <
21 1 -15 368.46 156.20 55.90 17 <
20 0 -14 150.21 228.50 57.70 17 o
19 -3 -13 47.77 31.90 53.40 17 <
19 -1 -13 131.96 73.00 55.30 17 <
18 2 -13 155.75 135.70 55.50 17 <
18 -2 -12 297.39 321.60 58.70 17 o
17 1 -12 98.00 160.50 55.00 17 <
16 -2 -11 72.48 46.90 55.40 17 <
16 0 -11 50.06 76.30 56.20 17 <
15 3 -11 66.48 56.00 53.40 17 <
15 -3 -10 165.52 150.30 55.70 17 <
14 2 -10 1582.60 1060.20 71.40 17 o
13 3 -10 976.62 881.20 67.70 17 o
12 -4 -8 14.27 37.80 53.60 17 <
12 -2 -8 48.51 83.60 57.00 17 <
10 4 -8 377.55 293.80 57.80 17 o
11 -3 -7 349.89 318.10 58.60 17 o
9 3 -7 119.67 104.70 55.10 17 <
9 -3 -6 433.99 513.40 62.30 17 o
9 -1 -6 1960.30 2477.40 92.10 17 o
8 2 -6 1017.30 996.00 72.50 17 o
8 -4 -5 168.15 119.90 54.80 17 <
7 1 -5 4097.50 4267.50 113.00 17 o
4 4 -4 148.39 76.50 55.50 17 <
5 -3 -3 355.85 562.10 65.50 17 o
3 3 -3 146.01 42.10 56.30 17 <
2 -4 -1 141.85 71.20 54.70 17 <
2 -2 -1 637.00 615.20 68.80 17 o
0 4 -1 25.20 56.50 53.50 17 <
-1 3 0 36.98 51.10 56.30 17 <
-2 4 0 361.37 241.20 58.80 17 o
-1 -3 1 85.86 148.80 57.30 17 <
-2 -4 2 116.21 54.30 54.10 17 <
-4 -4 3 137.73 149.90 55.30 17 <
-4 -2 3 528.30 724.40 71.00 17 o
-6 4 3 14.95 -2.70 53.10 17 <
-6 0 4 333.39 360.70 77.80 17 o
-7 3 4 94.64 131.60 57.80 17 <
-8 4 4 645.71 -55.00 55.30 17 <
-7 -3 5 569.15 332.70 62.00 17 o
-8 2 5 139.46 227.00 60.90 17 o
-8 -4 6 232.56 116.30 54.80 17 <
-10 -4 7 63.10 36.70 54.20 17 <
-10 -2 7 99.52 310.00 60.70 17 o
-11 1 7 2476.60 1359.80 79.80 17 o
-12 4 7 169.63 99.70 56.90 17 <
-12 0 8 93.78 108.20 58.70 17 <
-13 3 8 13.12 -7.70 54.90 17 <
-14 4 8 283.14 176.60 58.20 17 o
-13 -3 9 72.27 112.70 55.10 17 <
-13 -1 9 509.12 371.50 63.20 17 o
-14 2 9 746.62 490.50 66.30 17 o
-15 3 9 47.09 23.10 56.10 17 <
-15 -1 10 467.54 455.50 62.70 17 o
-16 2 10 769.37 292.10 60.00 17 o
-16 -2 11 22.02 71.50 53.40 17 <
-17 1 11 30.69 18.00 54.40 17 <
-18 -2 12 298.93 257.60 57.90 17 o
-18 0 12 326.19 343.80 60.20 17 o
-19 3 12 73.76 20.40 54.80 17 <
-19 -3 13 46.94 -1.20 52.90 17 <
-20 0 13 67.96 24.30 53.50 17 <
-20 2 13 75.39 4.90 54.80 17 <
-21 -1 14 183.99 132.20 55.70 17 <
-22 2 14 311.61 240.80 58.60 17 o
-22 -2 15 26.82 30.80 53.70 17 <
-23 1 15 31.52 24.80 53.60 17 <
-24 0 16 104.73 28.00 53.00 17 <
24 0 -17 35.06 -15.20 53.00 18 <
23 -1 -16 82.39 -55.20 54.10 18 <
22 -2 -15 37.07 1.30 53.10 18 <
21 1 -15 477.19 170.90 57.40 18 <
20 2 -15 29.74 41.00 53.10 18 <
20 -2 -14 136.69 -51.10 53.80 18 <
20 0 -14 350.65 365.50 59.70 18 o
19 1 -14 366.60 245.40 58.30 18 o
19 -3 -13 62.51 35.50 53.00 18 <
17 3 -13 21.83 44.50 53.00 18 <
17 -1 -12 210.53 243.80 58.60 18 o
16 2 -12 1075.00 1018.40 69.10 18 o
16 -2 -11 62.77 30.00 54.70 18 <
15 1 -11 159.23 156.50 56.70 18 <
15 -3 -10 213.09 145.50 56.60 18 <
14 0 -10 2716.60 2312.60 89.10 18 o
13 3 -10 732.86 626.40 65.30 18 o
12 4 -10 78.25 29.40 53.30 18 <
13 -1 -9 329.59 338.30 61.80 18 o
12 2 -9 180.56 308.70 60.00 18 o
12 -4 -8 7.40 4.80 53.30 18 <
12 -2 -8 48.11 29.30 55.30 18 <
11 1 -8 1478.90 1530.90 79.10 18 o
11 -3 -7 515.39 292.60 58.30 18 o
10 0 -7 1066.00 1248.80 78.70 18 o
8 4 -7 194.11 120.40 54.80 18 <
9 -3 -6 433.08 367.10 59.60 18 o
9 -1 -6 3304.50 3623.70 103.00 18 o
7 3 -6 1857.10 2114.60 84.70 18 o
8 -4 -5 117.31 86.60 55.30 18 <
4 4 -4 113.24 85.80 54.70 18 <
5 -3 -3 332.09 473.80 63.50 18 o
3 3 -3 27.04 55.40 55.30 18 <
4 -4 -2 101.73 101.20 55.20 18 <
2 2 -2 789.11 933.20 71.20 18 o
2 -4 -1 110.21 53.10 54.60 18 <
2 -2 -1 428.36 739.30 70.10 18 o
1 1 -1 518.98 468.00 83.10 18 o
1 -3 0 40.86 23.80 55.40 18 <
-2 4 0 237.05 212.90 58.10 18 o
-1 -3 1 128.74 10.40 56.60 18 <
-3 3 1 291.98 376.70 61.10 18 o
-2 -4 2 36.85 53.50 53.40 18 <
-4 -2 3 732.13 704.00 70.30 18 o
-6 4 3 9.39 36.20 54.10 18 <
-5 -3 4 432.41 550.60 63.70 18 o
-7 3 4 129.79 94.50 57.50 18 <
-8 4 4 656.25 -195.90 59.70 18 <
-7 -1 5 4059.30 3839.60 109.50 18 o
-8 2 5 176.42 176.90 60.70 18 <
-8 -4 6 110.01 104.60 53.80 18 <
-8 -2 6 1333.90 1048.40 72.10 18 o
-9 1 6 3376.30 3278.50 101.30 18 o
-12 4 7 139.86 84.40 57.60 18 <
-11 -3 8 359.39 220.90 57.80 18 o
-13 3 8 17.92 7.80 55.00 18 <
-14 4 8 323.47 292.10 59.90 18 o
-12 -4 9 123.78 45.70 54.10 18 <
-13 -1 9 431.33 396.90 63.80 18 o
-14 2 9 490.28 507.50 66.60 18 o
-14 -2 10 1194.50 1059.70 71.60 18 o
-15 1 10 521.74 542.60 63.50 18 o
-16 -2 11 17.86 26.70 54.00 18 <
-16 0 11 144.53 -6.50 56.00 18 <
-17 -3 12 103.76 80.80 54.50 18 <
-18 0 12 466.69 393.10 61.30 18 o
-19 3 12 40.67 17.10 54.20 18 <
-19 -1 13 164.67 19.70 55.50 18 <
-20 2 13 55.70 40.10 54.40 18 <
-20 -2 14 92.34 133.40 55.00 18 <
-21 1 14 272.86 174.80 57.50 18 o
-22 2 14 511.23 295.90 60.80 18 o
-22 -2 15 18.28 -20.10 52.50 18 <
-22 0 15 50.23 36.60 52.70 18 <
-23 1 15 29.85 7.60 53.80 18 <
-24 0 16 73.08 6.10 53.90 18 <
23 1 -17 48.49 17.00 52.80 19 <
22 0 -16 69.89 64.80 54.20 19 <
21 -1 -15 173.58 63.50 55.10 19 <
20 2 -15 21.46 -21.90 53.40 19 <
20 -2 -14 192.74 168.20 56.20 19 <
19 1 -14 298.67 264.10 57.90 19 o
19 -3 -13 72.73 27.70 53.80 19 <
18 0 -13 459.67 315.50 58.90 19 o
17 3 -13 72.32 -10.60 52.60 19 <
17 -3 -12 123.59 130.70 55.40 19 <
17 -1 -12 158.75 148.50 56.70 19 <
16 2 -12 1025.90 947.20 68.70 19 o
15 3 -12 25.28 35.20 54.00 19 <
16 -2 -11 73.50 65.50 55.10 19 <
15 1 -11 109.49 148.00 56.70 19 <
15 -3 -10 235.05 235.60 57.50 19 o
14 0 -10 2502.20 2625.60 92.00 19 o
12 4 -10 59.86 54.60 52.80 19 <
13 -3 -9 110.55 108.20 55.30 19 <
13 -1 -9 457.05 471.30 63.70 19 o
11 3 -9 618.59 594.30 63.60 19 o
12 -4 -8 9.06 33.30 53.50 19 <
11 1 -8 2425.00 1686.70 81.40 19 o
8 4 -7 141.93 86.20 54.90 19 <
9 -3 -6 216.39 243.90 58.20 19 o
7 3 -6 1601.40 1380.30 77.50 19 o
8 -4 -5 102.53 113.70 55.20 19 <
6 2 -5 1313.60 1278.10 77.10 19 o
6 -2 -4 283.30 557.40 65.80 19 o
4 4 -4 221.13 146.20 55.70 19 <
5 -3 -3 368.37 516.10 64.70 19 o
3 3 -3 23.43 57.30 56.00 19 <
2 4 -3 93.91 -17.60 54.40 19 <
4 -4 -2 200.14 74.70 54.60 19 <
2 2 -2 759.19 788.40 70.40 19 o
2 -4 -1 137.47 97.80 54.80 19 <
2 -2 -1 625.90 703.70 70.00 19 o
1 1 -1 681.88 826.50 87.90 19 o
1 -3 0 95.51 135.00 56.40 19 <
-2 4 0 212.04 177.50 56.90 19 o
-3 3 1 241.07 364.50 61.50 19 o
-2 -4 2 66.38 50.00 53.30 19 <
-6 4 3 10.29 7.10 53.90 19 <
-5 -3 4 495.67 365.40 61.80 19 o
-7 3 4 128.66 104.70 56.90 19 <
-8 4 4 799.48 -27.60 54.30 19 <
-6 -4 5 155.77 111.40 54.60 19 <
-8 2 5 293.75 260.30 60.60 19 o
-8 -4 6 297.48 228.80 56.90 19 o
-8 -2 6 1001.00 900.10 71.20 19 o
-9 1 6 2309.50 2455.30 93.20 19 o
-9 -3 7 52.03 91.80 54.70 19 <
-10 0 7 984.86 1286.30 77.70 19 o
-12 4 7 159.21 101.90 56.30 19 <
-11 -3 8 504.24 327.00 59.30 19 o
-11 -1 8 1767.00 1664.10 82.60 19 o
-13 3 8 17.89 96.00 55.60 19 <
-12 -4 9 82.07 77.40 54.10 19 <
-14 2 9 722.51 741.40 68.20 19 o
-14 -2 10 1085.80 827.70 68.70 19 o
-15 1 10 670.19 524.10 66.30 19 o
-15 -3 11 107.59 32.40 55.00 19 <
-16 0 11 109.00 60.80 55.80 19 <
-17 3 11 32.17 46.10 54.70 19 <
-17 -3 12 196.25 148.70 55.90 19 <
-17 -1 12 98.75 55.80 55.70 19 <
-18 2 12 304.92 263.90 58.80 19 o
-19 3 12 84.39 -7.20 54.70 19 <
-18 -2 13 212.48 79.50 55.60 19 <
-19 1 13 124.08 95.10 55.40 19 <
-20 2 13 71.08 50.20 54.40 19 <
-20 -2 14 82.95 121.50 54.30 19 <
-20 0 14 330.99 236.40 58.30 19 o
-21 1 14 324.93 270.90 58.60 19 o
-22 0 15 31.50 18.70 53.80 19 <
-23 -1 16 87.99 56.80 53.90 19 <
23 -1 -17 95.64 3.10 53.80 20 <
21 1 -16 302.74 229.10 57.30 20 o
20 0 -15 68.03 54.10 54.60 20 <
19 -1 -14 254.44 184.20 56.30 20 o
18 2 -14 90.91 129.60 54.00 20 <
18 -2 -13 89.55 41.00 54.80 20 <
17 1 -13 102.91 39.20 54.00 20 <
17 -3 -12 38.61 59.10 54.80 20 <
15 3 -12 19.66 61.90 53.70 20 <
14 2 -11 50.32 63.10 55.00 20 <
14 -2 -10 877.63 715.20 65.70 20 o
13 1 -10 3339.90 3068.20 96.10 20 o
12 4 -10 19.58 4.00 52.60 20 <
13 -3 -9 40.72 57.30 54.00 20 <
11 3 -9 465.61 441.90 61.40 20 o
10 4 -9 21.31 -24.40 53.50 20 <
12 -4 -8 20.23 0.80 53.10 20 <
10 2 -8 1111.30 1298.10 76.00 20 o
10 -2 -7 1087.60 624.80 65.50 20 o
9 -3 -6 189.95 295.20 58.10 20 o
7 3 -6 1544.00 1428.50 76.30 20 o
6 4 -6 446.73 376.50 60.10 20 o
8 -4 -5 64.67 64.80 54.30 20 <
6 2 -5 915.60 941.70 71.30 20 o
6 -2 -4 689.88 671.40 69.00 20 o
5 1 -4 9429.40 9941.20 156.20 20 o
5 -3 -3 355.30 435.50 62.50 20 o
2 4 -3 42.52 -8.90 53.70 20 <
4 -4 -2 72.26 99.10 53.50 20 <
2 2 -2 601.04 892.60 71.00 20 o
2 -4 -1 145.11 74.40 54.10 20 <
2 -2 -1 699.18 894.90 73.00 20 o
1 1 -1 790.16 923.40 88.20 20 o
1 -3 0 64.03 119.30 56.80 20 <
-2 4 0 139.50 187.60 56.70 20 o
-1 -1 1 840.58 1106.20 89.20 20 o
-3 3 1 184.23 238.90 58.40 20 o
-2 -4 2 50.69 21.80 53.60 20 <
-2 -2 2 1049.70 1102.30 74.40 20 o
-6 4 3 22.79 4.30 55.10 20 <
-5 -3 4 388.82 415.70 61.60 20 o
-7 3 4 69.43 84.60 57.10 20 <
-8 4 4 747.06 -54.30 54.40 20 <
-6 -4 5 50.89 128.20 53.70 20 <
-8 2 5 84.77 173.50 60.40 20 <
-8 -2 6 1079.40 1197.20 74.60 20 o
-9 1 6 3127.00 2810.60 97.00 20 o
-9 -3 7 37.80 41.80 53.90 20 <
-10 0 7 1071.60 1008.80 74.80 20 o
-11 3 7 269.56 240.10 59.30 20 o
-12 4 7 123.61 89.50 55.80 20 <
-10 -4 8 237.24 332.40 58.00 20 o
-11 -1 8 1746.00 1468.10 79.20 20 o
-12 2 8 33.02 8.40 56.60 20 <
-13 3 8 114.04 100.60 55.60 20 <
-12 -4 9 98.65 90.90 54.30 20 <
-12 -2 9 169.44 192.40 59.40 20 o
-13 1 9 372.39 355.80 61.90 20 o
-13 -3 10 773.01 785.40 66.10 20 o
-14 0 10 2327.40 2066.00 86.80 20 o
-15 -3 11 138.87 58.90 53.80 20 <
-15 -1 11 78.12 29.80 55.50 20 <
-17 3 11 30.88 40.60 54.50 20 <
-18 2 12 239.82 270.80 59.00 20 o
-18 -2 13 119.89 9.40 54.70 20 <
-19 1 13 139.06 84.00 55.70 20 <
-20 0 14 216.33 214.20 57.00 20 o
-21 -1 15 223.83 118.50 54.40 20 <
-22 2 15 9.93 10.70 53.70 20 <
-23 1 16 132.02 65.00 55.30 20 <
-24 0 17 22.32 -20.20 52.70 20 <
23 -1 -17 86.59 -32.10 54.00 21 <
22 0 -17 68.17 -7.00 54.10 21 <
21 -1 -16 1047.10 514.90 62.30 21 o
20 2 -16 149.53 119.20 55.40 21 <
20 0 -15 99.95 58.20 54.30 21 <
19 1 -15 150.53 125.10 55.80 21 <
19 -1 -14 206.20 85.90 55.80 21 <
17 3 -14 81.39 85.70 52.90 21 <
18 -2 -13 95.23 101.60 55.50 21 <
17 1 -13 171.23 49.60 54.70 21 <
16 2 -13 122.45 39.10 54.40 21 <
17 -3 -12 44.37 15.30 53.30 21 <
16 0 -12 703.92 1013.00 70.00 21 o
15 -1 -11 289.55 332.30 60.00 21 o
13 3 -11 105.44 78.30 54.20 21 <
14 -2 -10 819.81 674.80 64.90 21 o
13 1 -10 3361.10 3191.20 98.20 21 o
13 -3 -9 53.08 79.10 55.00 21 <
12 0 -9 1762.00 1278.80 75.10 21 o
10 4 -9 20.58 -9.90 53.50 21 <
12 -4 -8 19.59 24.80 53.60 21 <
11 -1 -8 1594.80 1496.20 77.90 21 o
9 3 -8 43.49 31.90 53.30 21 <
10 -2 -7 535.52 735.90 65.20 21 o
9 1 -7 1301.50 662.60 68.20 21 o
9 -3 -6 156.55 197.10 57.10 21 o
8 0 -6 4116.90 5186.00 120.00 21 o
6 4 -6 265.67 264.90 58.80 21 o
8 -4 -5 80.90 30.00 54.80 21 <
7 -1 -5 3142.70 3413.00 105.30 21 o
5 3 -5 10.49 5.80 54.90 21 <
6 -2 -4 452.86 491.60 64.60 21 o
5 1 -4 10755.00 10739.00 160.90 21 o
5 -3 -3 320.78 458.80 63.40 21 o
4 0 -3 9260.00 8050.70 152.50 21 o
2 4 -3 52.55 54.70 54.50 21 <
4 -4 -2 48.65 -10.90 53.60 21 <
3 -1 -2 15818.00 15391.00 190.80 21 o
1 3 -2 52.36 98.50 55.80 21 <
2 -2 -1 1029.00 747.00 71.10 21 o
1 -3 0 256.81 214.00 57.40 21 o
-2 4 0 201.81 145.60 56.20 21 <
0 -4 1 32.80 70.90 54.00 21 <
-1 -1 1 1141.50 1496.30 94.80 21 o
-3 3 1 178.83 214.10 58.90 21 o
-2 -2 2 1021.90 894.80 71.90 21 o
-3 -3 3 99.72 115.10 55.70 21 <
-6 4 3 12.69 -3.90 53.90 21 <
-4 -4 4 189.78 122.60 53.90 21 <
-5 -1 4 9811.10 9999.50 156.20 21 o
-7 3 4 216.37 160.10 56.40 21 <
-8 4 4 840.47 -224.00 61.00 21 <
-6 -4 5 132.95 67.10 55.00 21 <
-6 -2 5 1242.90 1054.80 74.00 21 o
-8 2 5 478.30 325.20 61.80 21 o
-7 -3 6 1180.90 1422.50 76.30 21 o
-10 4 6 45.14 24.60 54.20 21 <
-11 3 7 231.64 253.60 59.40 21 o
-12 4 7 83.99 91.40 56.00 21 <
-10 -4 8 486.94 313.40 59.50 21 o
-12 2 8 36.83 54.80 55.80 21 <
-13 1 9 358.81 310.20 61.60 21 o
-13 -3 10 733.43 567.60 63.90 21 o
-15 3 10 209.62 127.40 56.50 21 <
-15 -1 11 108.66 92.70 56.70 21 <
-16 2 11 76.07 38.80 55.70 21 <
-17 3 11 24.06 38.60 54.60 21 <
-16 -2 12 892.52 630.00 66.50 21 o
-17 1 12 172.55 130.40 56.70 21 <
-17 -3 13 22.36 11.30 53.40 21 <
-18 0 13 368.34 174.00 58.80 21 <
-19 -1 14 249.76 125.40 56.40 21 <
-20 2 14 265.11 166.80 55.90 21 <
-20 -2 15 50.29 22.80 53.50 21 <
-21 1 15 245.24 24.10 54.20 21 <
-22 2 15 5.14 -8.60 54.50 21 <
-22 0 16 133.98 97.90 54.40 21 <
-23 1 16 175.45 113.40 54.50 21 <
-23 -1 17 41.12 47.50 53.20 21 <
-24 0 17 31.53 -14.90 53.50 21 <
22 0 -17 99.59 72.40 53.80 22 <
21 1 -17 139.81 95.30 54.50 22 <
21 -1 -16 852.35 645.10 65.10 22 o
20 -2 -15 23.20 -10.40 53.50 22 <
19 1 -15 115.58 111.20 55.20 22 <
18 2 -15 160.96 138.50 54.70 22 <
18 0 -14 456.63 271.10 58.00 22 o
17 -1 -13 49.78 72.00 55.40 22 <
16 2 -13 90.76 83.40 54.00 22 <
15 3 -13 57.97 52.10 52.70 22 <
16 -2 -12 920.75 667.20 63.30 22 o
15 1 -12 71.01 49.90 55.30 22 <
15 -3 -11 24.71 -44.90 53.20 22 <
14 -2 -10 1087.50 1045.40 70.70 22 o
12 2 -10 131.74 148.10 56.20 22 <
13 -3 -9 55.48 58.80 53.90 22 <
12 -4 -8 19.19 23.30 53.50 22 <
11 -1 -8 1226.70 1721.10 79.50 22 o
9 3 -8 24.11 2.80 53.20 22 <
8 4 -8 290.31 289.40 57.20 22 o
10 -2 -7 1154.40 819.90 68.00 22 o
8 2 -7 678.37 720.80 66.80 22 o
9 -3 -6 263.66 308.90 59.50 22 o
8 -4 -5 74.73 65.80 54.20 22 <
7 -1 -5 2280.10 3448.40 103.90 22 o
5 3 -5 21.81 56.80 54.00 22 <
4 4 -5 37.54 -11.00 54.10 22 <
6 -2 -4 726.08 719.80 66.80 22 o
5 -3 -3 435.16 499.70 62.60 22 o
4 0 -3 7814.70 6874.30 144.10 22 o
4 -4 -2 55.72 16.60 54.00 22 <
3 -1 -2 17345.00 16919.20 198.50 22 o
1 3 -2 34.69 78.60 55.30 22 <
0 4 -2 112.74 59.00 55.00 22 <
2 -2 -1 1115.30 823.10 71.60 22 o
1 -3 0 159.61 143.60 56.20 22 <
-2 4 0 267.37 230.10 57.50 22 o
0 -4 1 21.71 40.40 53.30 22 <
-3 3 1 186.29 117.50 58.00 22 <
-4 4 1 129.30 82.10 55.20 22 <
-2 -2 2 590.95 856.20 71.70 22 o
-3 -3 3 40.58 91.40 56.10 22 <
-4 0 3 8387.00 7390.20 152.00 22 o
-6 4 3 13.14 -3.50 54.10 22 <
-4 -4 4 97.72 124.00 54.50 22 <
-5 -1 4 9902.50 8590.00 150.10 22 o
-7 3 4 109.35 73.10 56.90 22 <
-8 4 4 694.41 192.60 65.00 22 <
-6 -2 5 847.21 1031.00 72.90 22 o
-7 -3 6 1096.40 1082.00 72.30 22 o
-8 0 6 5051.10 5971.60 127.00 22 o
-10 4 6 31.82 16.30 53.50 22 <
-8 -4 7 131.33 62.30 54.20 22 <
-9 -1 7 799.03 710.30 69.70 22 o
-11 3 7 218.73 174.20 59.60 22 <
-12 4 7 116.42 95.80 56.40 22 <
-10 -2 8 1010.30 1168.20 74.20 22 o
-11 1 8 2284.80 1604.20 80.40 22 o
-12 2 8 29.22 92.80 56.30 22 <
-11 -3 9 460.77 328.00 60.90 22 o
-12 0 9 1881.20 1202.10 74.80 22 o
-12 -4 10 8.67 5.50 52.30 22 <
-13 -1 10 2382.60 2550.00 92.70 22 o
-15 3 10 73.70 53.60 56.40 22 <
-14 -2 11 21.32 51.80 54.00 22 <
-16 2 11 41.47 88.60 55.10 22 <
-15 -3 12 28.96 29.80 53.50 22 <
-16 0 12 712.42 1033.20 71.20 22 o
-17 1 12 238.67 181.30 56.00 22 o
-17 -1 13 75.42 98.30 54.70 22 <
-19 3 13 69.42 -11.90 55.60 22 <
-18 -2 14 86.04 67.50 53.60 22 <
-20 2 14 155.21 93.30 56.60 22 <
-20 0 15 86.21 44.30 54.00 22 <
-21 1 15 114.92 57.10 54.90 22 <
-21 -1 16 450.98 257.00 58.00 22 o
-22 0 16 152.20 126.90 54.80 22 <
-23 -1 17 31.82 15.70 53.70 22 <
21 1 -17 142.37 115.40 54.70 23 <
20 2 -17 38.81 39.80 53.60 23 <
20 0 -16 318.49 319.30 58.20 23 o
20 -2 -15 11.83 37.20 53.90 23 <
19 -1 -15 125.40 120.90 54.70 23 <
18 2 -15 140.00 185.40 55.70 23 o
17 1 -14 106.02 193.20 56.50 23 o
17 -1 -13 29.68 135.10 54.00 23 <
16 -2 -12 418.41 527.10 61.70 23 o
14 2 -12 93.05 74.30 54.20 23 <
13 3 -12 1427.90 1353.10 72.70 23 o
15 -3 -11 28.55 -13.30 53.20 23 <
14 0 -11 199.88 405.00 62.10 23 o
13 -1 -10 2385.90 2727.00 93.40 23 o
11 3 -10 229.27 137.80 55.40 23 <
10 4 -10 155.69 -19.30 55.00 23 <
12 -2 -9 519.16 358.50 59.70 23 o
11 1 -9 2360.10 1923.80 83.50 23 o
12 -4 -8 27.08 -2.70 53.10 23 <
10 0 -8 6768.00 6659.50 130.30 23 o
8 4 -8 444.96 245.80 57.10 23 o
10 -4 -7 16.02 -12.00 53.90 23 <
8 2 -7 1313.30 800.80 68.00 23 o
7 3 -7 61.95 -6.60 54.50 23 <
9 -3 -6 204.15 240.60 57.50 23 o
7 1 -6 14836.00 14328.80 181.70 23 o
8 -4 -5 99.24 113.80 54.80 23 <
4 4 -5 14.60 -33.10 54.00 23 <
6 -2 -4 595.25 733.20 67.40 23 o
4 2 -4 1497.80 1560.90 79.40 23 o
5 -3 -3 306.83 452.70 63.60 23 o
4 -4 -2 72.34 57.30 53.90 23 <
3 -1 -2 16362.00 16541.50 197.50 23 o
1 3 -2 133.64 137.20 57.50 23 <
0 4 -2 56.22 60.70 54.40 23 <
2 -2 -1 776.41 824.00 70.70 23 o
0 2 -1 409.01 400.40 63.80 23 o
1 -3 0 98.46 104.30 56.50 23 <
0 -4 1 39.49 15.00 52.70 23 <
-3 3 1 184.94 222.90 59.60 23 o
-4 4 1 73.71 77.10 55.10 23 <
-4 -4 4 132.30 82.20 54.70 23 <
-7 3 4 360.11 240.00 57.80 23 o
-8 4 4 717.61 754.70 66.00 23 o
-5 -3 5 98.10 -6.70 54.90 23 <
-7 1 5 3532.40 3130.20 103.50 23 o
-6 -4 6 327.66 473.10 60.90 23 o
-10 4 6 71.61 80.20 54.80 23 <
-8 -4 7 120.69 66.80 54.20 23 <
-8 -2 7 1425.40 711.10 67.20 23 o
-11 3 7 246.82 257.70 59.10 23 o
-12 4 7 232.30 204.70 56.80 23 o
-9 -3 8 58.01 95.50 54.00 23 <
-11 1 8 1385.00 1470.80 78.70 23 o
-10 -4 9 17.97 33.50 52.80 23 <
-12 -4 10 13.93 12.00 52.50 23 <
-12 -2 10 143.75 203.60 57.10 23 o
-14 2 10 1630.60 1100.60 72.20 23 o
-15 3 10 142.56 99.50 55.80 23 <
-13 -3 11 77.36 88.90 54.20 23 <
-15 1 11 260.78 182.30 57.80 23 o
-15 -1 12 70.69 60.60 54.80 23 <
-16 0 12 1069.60 1128.40 73.20 23 o
-16 -2 13 77.86 68.80 54.40 23 <
-18 2 13 100.94 24.90 55.10 23 <
-19 3 13 47.98 16.50 54.50 23 <
-17 -3 14 70.83 77.00 53.70 23 <
-19 1 14 181.35 118.70 55.30 23 <
-20 2 14 188.76 94.40 56.00 23 <
-19 -1 15 175.25 132.40 54.80 23 <
-20 0 15 67.25 -8.90 53.60 23 <
-20 -2 16 159.58 142.80 55.40 23 <
-21 -1 16 364.36 233.40 58.40 23 o
-23 1 17 51.29 -10.20 54.60 23 <
22 0 -18 102.81 -41.40 54.90 24 <
21 -1 -17 155.20 152.10 56.30 24 <
20 2 -17 27.45 -26.50 53.60 24 <
19 1 -16 170.12 186.30 57.90 24 o
19 -1 -15 184.56 65.70 54.50 24 <
18 -2 -14 191.30 156.40 55.40 24 <
16 2 -14 319.96 260.00 58.20 24 o
15 3 -14 652.12 533.80 61.20 24 o
17 -3 -13 22.58 -82.70 53.50 24 <
16 0 -13 240.95 215.60 57.30 24 o
16 -2 -12 491.82 489.70 60.80 24 o
13 3 -12 978.34 771.40 65.70 24 o
15 -3 -11 16.52 49.80 53.80 24 <
13 1 -11 579.73 527.80 64.30 24 o
13 -1 -10 3752.10 3783.00 102.70 24 o
10 4 -10 74.36 18.10 54.20 24 <
12 -2 -9 130.47 143.00 58.20 24 <
10 2 -9 125.37 180.30 57.80 24 o
9 3 -9 119.97 209.60 57.00 24 o
11 -3 -8 394.73 351.70 59.00 24 o
10 0 -8 5212.40 5051.70 116.90 24 o
10 -4 -7 10.39 14.10 53.90 24 <
7 3 -7 36.83 21.60 54.00 24 <
6 4 -7 32.67 39.30 53.80 24 <
9 -3 -6 319.11 338.40 59.60 24 o
7 1 -6 12955.00 12378.60 171.20 24 o
8 -4 -5 97.41 -40.70 54.10 24 <
6 -2 -4 428.04 632.70 67.60 24 o
4 2 -4 1768.20 1076.10 73.40 24 o
3 3 -4 237.40 234.70 58.80 24 o
2 4 -4 848.77 950.20 68.80 24 o
5 -3 -3 351.00 476.70 62.30 24 o
4 -4 -2 115.27 47.20 54.00 24 <
3 -1 -2 12039.00 14457.00 186.90 24 o
0 4 -2 116.92 102.90 54.30 24 <
0 2 -1 188.22 330.40 62.70 24 o
-3 3 1 277.85 199.90 59.30 24 o
-4 4 1 110.08 94.80 56.60 24 <
-1 -3 2 214.96 211.30 58.10 24 o
-3 1 2 20263.00 18665.60 207.10 24 o
-2 -4 3 70.23 52.70 54.20 24 <
-4 -2 4 1132.50 1342.20 76.10 24 o
-7 3 4 193.10 237.90 58.10 24 o
-8 4 4 832.82 -163.90 60.10 24 <
-5 -3 5 67.05 55.30 55.70 24 <
-7 1 5 4131.10 3122.00 103.70 24 o
-6 -4 6 249.78 330.10 58.80 24 o
-7 -1 6 15560.00 14034.70 180.40 24 o
-10 4 6 35.36 23.20 55.70 24 <
-8 -2 7 697.08 783.70 69.40 24 o
-10 2 7 296.41 640.20 67.50 24 o
-11 3 7 178.62 200.90 57.60 24 o
-12 4 7 153.57 121.40 56.60 24 <
-9 -3 8 53.66 19.10 54.20 24 <
-11 1 8 1909.80 1634.00 80.00 24 o
-10 -4 9 14.91 29.10 52.40 24 <
-11 -1 9 2094.10 1997.50 85.10 24 o
-12 -2 10 136.33 159.70 56.00 24 <
-14 2 10 1240.50 867.10 70.90 24 o
-15 3 10 126.91 230.00 57.70 24 o
-13 -3 11 120.73 99.20 55.00 24 <
-14 0 11 481.53 537.90 65.70 24 o
-15 -1 12 44.34 76.10 55.10 24 <
-17 3 12 229.35 169.20 57.80 24 <
-16 -2 13 65.44 9.60 53.80 24 <
-18 2 13 46.85 27.00 54.80 24 <
-19 3 13 105.83 1.10 55.50 24 <
-17 -3 14 68.98 105.60 53.90 24 <
-18 0 14 197.99 224.90 57.90 24 o
-19 -1 15 128.31 99.30 54.80 24 <
-20 -2 16 134.77 38.80 53.90 24 <
-21 1 16 458.06 329.40 59.80 24 o
-22 0 17 55.92 67.50 53.50 24 <
-23 1 17 63.95 0.90 54.60 24 <
21 1 -18 227.20 57.40 55.60 25 <
21 -1 -17 165.71 67.90 55.80 25 <
20 -2 -16 62.65 85.30 54.30 25 <
19 1 -16 495.20 411.00 60.50 25 o
18 2 -16 486.36 575.20 63.70 25 o
18 0 -15 417.17 479.30 62.10 25 o
18 -2 -14 249.93 -85.80 57.30 25 <
16 2 -14 608.20 513.60 61.70 25 o
15 3 -14 487.24 295.90 59.20 25 o
17 -3 -13 18.94 19.60 52.40 25 <
16 0 -13 740.44 148.10 56.40 25 <
15 1 -13 41.13 68.00 55.20 25 <
15 -1 -12 105.26 117.70 55.50 25 <
15 -3 -11 51.14 -11.90 53.50 25 <
13 1 -11 861.01 572.30 64.90 25 o
12 2 -11 175.94 120.90 56.60 25 <
12 0 -10 626.70 555.80 66.10 25 o
12 -2 -9 445.70 318.80 59.80 25 o
9 3 -9 172.52 159.90 57.10 25 <
8 4 -9 94.81 54.30 53.90 25 <
11 -3 -8 694.24 449.10 60.80 25 o
9 1 -8 185.54 445.40 64.30 25 o
10 -4 -7 19.76 -12.00 53.90 25 <
9 -1 -7 809.83 788.90 70.30 25 o
6 4 -7 14.30 16.20 53.70 25 <
6 2 -6 4345.70 5878.10 123.20 25 o
8 -4 -5 99.82 3.80 53.00 25 <
6 -2 -4 735.85 699.30 68.10 25 o
3 3 -4 199.90 231.60 59.20 25 o
2 4 -4 1129.20 848.30 67.10 25 o
5 -3 -3 548.53 569.50 64.20 25 o
4 -4 -2 96.42 77.30 54.30 25 <
3 -1 -2 18964.00 17696.00 202.50 25 o
0 4 -2 78.78 19.00 54.60 25 <
0 2 -1 269.26 349.70 65.20 25 o
2 -4 0 397.42 466.30 60.30 25 o
-3 3 1 386.03 380.80 60.80 25 o
-4 4 1 61.37 105.10 55.40 25 <
-1 -3 2 111.37 188.80 57.70 25 o
-3 1 2 22602.00 19145.60 210.50 25 o
-2 -4 3 28.74 56.00 53.10 25 <
-4 -2 4 587.05 724.20 70.20 25 o
-7 3 4 414.40 310.10 60.20 25 o
-8 4 4 761.81 -268.10 60.70 25 <
-5 -3 5 108.11 74.00 55.30 25 <
-6 -4 6 380.57 360.50 59.60 25 o
-7 -1 6 13138.00 13622.90 179.40 25 o
-10 4 6 84.17 42.50 54.80 25 <
-8 -2 7 1285.10 758.20 69.00 25 o
-10 2 7 252.75 545.50 66.90 25 o
-11 3 7 257.87 218.40 59.50 25 o
-8 -4 8 572.80 461.20 60.70 25 o
-10 0 8 6373.70 5749.50 124.80 25 o
-13 3 9 131.13 -37.80 56.50 25 <
-11 -3 10 139.54 217.00 55.70 25 o
-13 1 10 2722.10 2836.40 95.60 25 o
-14 2 10 1600.20 1153.00 73.30 25 o
-14 0 11 564.16 404.80 62.50 25 o
-14 -2 12 49.63 109.90 54.60 25 <
-17 3 12 188.68 130.90 56.50 25 <
-15 -3 13 11.46 54.60 52.90 25 <
-17 1 13 48.21 101.50 55.90 25 <
-18 2 13 87.36 15.70 55.40 25 <
-17 -1 14 178.59 175.30 55.80 25 o
-18 0 14 359.46 301.60 58.40 25 o
-18 -2 15 97.07 111.20 55.20 25 <
-20 2 15 70.39 4.50 54.40 25 <
-20 0 16 226.30 235.60 57.70 25 o
-21 1 16 608.18 318.50 59.10 25 o
-21 -1 17 146.31 57.60 54.80 25 <
-22 0 17 105.75 59.30 53.90 25 <
22 0 -19 121.33 15.80 53.50 26 <
20 0 -17 31.11 20.00 52.60 26 <
19 1 -17 176.89 115.70 55.50 26 <
20 -2 -16 123.13 102.90 54.60 26 <
19 -1 -16 435.74 349.10 59.30 26 o
17 1 -15 99.20 49.70 54.30 26 <
16 2 -15 666.06 648.30 64.30 26 o
17 -1 -14 169.61 155.50 56.50 26 <
17 -3 -13 32.30 -17.20 53.00 26 <
14 2 -13 74.58 86.20 55.00 26 <
13 3 -13 155.51 126.90 54.80 26 <
14 0 -12 332.59 258.60 59.60 26 o
14 -2 -11 103.09 25.40 55.10 26 <
11 3 -11 122.44 126.30 55.20 26 <
10 4 -11 11.60 10.40 53.10 26 <
13 -3 -10 1115.40 1169.80 71.20 26 o
12 0 -10 766.82 482.30 65.30 26 o
8 4 -9 37.75 70.50 53.40 26 <
11 -3 -8 408.04 377.60 59.50 26 o
9 1 -8 159.22 216.00 60.90 26 o
8 2 -8 3225.70 3228.20 97.50 26 o
10 -4 -7 12.46 55.00 53.30 26 <
9 -1 -7 717.75 851.10 70.70 26 o
8 -2 -6 1468.50 1302.90 76.40 26 o
6 2 -6 4478.50 4877.30 114.70 26 o
5 3 -6 2117.80 2815.70 92.60 26 o
4 4 -6 40.92 11.70 53.80 26 <
8 -4 -5 96.52 -20.30 53.30 26 <
6 0 -5 8173.40 8196.20 146.10 26 o
6 -2 -4 586.68 640.10 67.80 26 o
3 3 -4 335.69 252.00 59.80 26 o
2 4 -4 486.79 392.90 60.70 26 o
5 -3 -3 656.90 711.50 66.30 26 o
3 1 -3 1291.50 1209.30 86.70 26 o
4 -4 -2 109.14 136.00 54.40 26 <
3 -1 -2 17454.00 18047.60 204.00 26 o
0 2 -1 168.86 369.30 63.60 26 o
-1 3 -1 90.32 240.00 59.50 26 o
-2 4 -1 222.78 108.40 56.20 26 <
2 -4 0 186.75 302.80 59.50 26 o
0 -2 1 142.37 281.00 63.40 26 o
-3 3 1 478.84 325.90 61.20 26 o
-4 4 1 107.96 71.50 55.40 26 <
-1 -3 2 82.31 86.10 56.90 26 <
-3 1 2 16425.00 16699.70 197.40 26 o
-2 -4 3 76.69 103.10 53.80 26 <
-3 -1 3 1715.70 1731.30 92.70 26 o
-6 2 4 532.35 612.20 65.80 26 o
-7 3 4 215.14 218.10 58.90 26 o
-8 4 4 1164.40 616.70 70.30 26 o
-4 -4 5 15.69 1.80 53.10 26 <
-6 0 5 9210.70 7427.00 143.10 26 o
-10 4 6 23.26 25.60 54.40 26 <
-7 -3 7 50.55 49.70 54.40 26 <
-9 1 7 888.55 754.30 70.30 26 o
-10 2 7 130.49 394.10 64.50 26 o
-8 -4 8 272.01 255.10 57.90 26 o
-10 -2 9 243.07 143.30 58.80 26 <
-13 3 9 91.93 33.70 57.70 26 <
-10 -4 10 188.40 92.60 55.30 26 <
-11 -3 10 264.99 108.50 55.90 26 <
-13 1 10 2993.20 2424.30 93.00 26 o
-13 -1 11 587.25 497.10 64.60 26 o
-13 -3 12 1020.10 917.40 67.70 26 o
-16 2 12 696.95 667.00 65.50 26 o
-17 3 12 124.41 75.10 56.90 26 <
-16 0 13 269.28 190.80 57.90 26 o
-16 -2 14 321.09 429.20 60.20 26 o
-17 -1 14 115.33 76.60 55.10 26 <
-19 1 15 147.04 103.30 54.90 26 <
-20 2 15 53.81 44.20 54.40 26 <
-19 -1 16 266.13 276.70 57.90 26 o
-20 0 16 55.12 146.00 54.70 26 <
-20 -2 17 15.14 6.80 53.10 26 <
-22 0 18 109.58 91.90 54.30 26 <
22 0 -19 93.79 18.90 53.20 27 <
21 -1 -18 407.54 345.20 58.70 27 o
19 1 -17 88.14 144.60 54.50 27 <
18 2 -17 72.17 65.80 54.10 27 <
19 -1 -16 277.02 237.10 57.70 27 o
16 2 -15 618.13 597.30 63.70 27 o
15 3 -15 142.49 210.20 56.70 27 o
17 -1 -14 215.05 212.30 58.10 27 o
16 0 -14 590.98 712.10 64.30 27 o
16 -2 -13 153.12 130.70 55.70 27 <
14 2 -13 156.75 100.40 54.30 27 <
13 3 -13 52.80 86.80 54.40 27 <
14 0 -12 176.09 182.60 58.50 27 o
14 -2 -11 107.39 88.80 54.60 27 <
10 4 -11 19.96 -27.80 52.90 27 <
13 -3 -10 948.11 918.10 68.70 27 o
11 1 -10 283.42 294.80 61.00 27 o
11 -1 -9 2145.50 2043.20 86.20 27 o
11 -3 -8 734.06 622.60 63.20 27 o
8 2 -8 2117.20 2186.00 86.90 27 o
7 3 -8 174.32 117.20 55.30 27 <
10 -4 -7 45.89 55.80 54.00 27 <
8 -2 -6 1688.90 1549.60 80.10 27 o
5 3 -6 2868.20 2817.10 92.80 27 o
4 4 -6 9.64 1.20 53.50 27 <
8 -4 -5 62.81 0.30 52.90 27 <
2 4 -4 998.15 642.40 64.20 27 o
5 -3 -3 778.79 698.80 66.50 27 o
2 2 -3 353.85 331.80 63.30 27 o
4 -4 -2 137.04 134.20 55.70 27 <
3 -1 -2 21533.00 21733.70 221.80 27 o
3 -3 -1 379.04 359.70 60.60 27 o
-1 3 -1 177.34 156.10 58.10 27 <
-2 4 -1 132.32 85.30 56.30 27 <
2 -4 0 221.88 217.30 56.60 27 o
0 -2 1 291.04 294.90 64.00 27 o
-4 4 1 100.99 33.60 56.20 27 <
-1 -3 2 29.40 170.40 57.30 27 <
-3 1 2 18591.00 18446.70 207.50 27 o
-3 -1 3 1297.90 1070.70 85.40 27 o
-3 -3 4 205.65 339.80 60.20 27 o
-6 2 4 607.77 482.90 65.00 27 o
-7 3 4 212.69 176.30 57.80 27 o
-8 4 4 981.36 -22.60 54.30 27 <
-4 -4 5 25.38 0.40 52.80 27 <
-6 0 5 8852.50 7698.50 144.70 27 o
-6 -2 6 4398.70 4979.50 116.80 27 o
-10 4 6 23.65 47.10 54.70 27 <
-7 -3 7 22.90 23.10 54.30 27 <
-9 1 7 643.83 703.60 68.80 27 o
-9 -1 8 57.65 281.80 60.80 27 o
-9 -3 9 131.09 195.90 57.70 27 o
-12 2 9 248.19 246.70 60.70 27 o
-13 3 9 93.29 64.00 56.80 27 <
-10 -4 10 66.30 62.90 53.80 27 <
-12 0 10 628.46 461.40 63.20 27 o
-12 -2 11 71.82 50.60 56.40 27 <
-13 -3 12 843.37 611.80 63.80 27 o
-15 1 12 59.28 62.50 55.10 27 <
-16 2 12 792.06 660.90 65.90 27 o
-17 3 12 82.75 97.50 55.60 27 <
-15 -1 13 34.42 84.70 54.90 27 <
-15 -3 14 402.53 351.50 59.70 27 o
-16 -2 14 396.45 330.00 59.30 27 o
-18 2 14 303.67 254.60 57.80 27 o
-18 0 15 453.12 417.30 61.10 27 o
-19 1 15 136.74 121.50 56.10 27 <
-18 -2 16 519.34 537.00 62.40 27 o
-19 -1 16 213.66 172.90 57.30 27 o
-21 1 17 170.74 60.90 55.60 27 <
-21 -1 18 305.78 131.40 56.60 27 <
-22 0 18 46.57 49.10 54.70 27 <
21 -1 -18 290.65 286.50 56.90 28 o
20 0 -18 124.84 82.10 55.00 28 <
20 -2 -17 50.67 -29.00 53.80 28 <
18 2 -17 80.80 -23.50 54.00 28 <
18 0 -16 681.46 615.20 64.20 28 o
18 -2 -15 266.85 238.90 58.10 28 o
15 3 -15 173.78 167.20 56.00 28 <
16 0 -14 668.57 706.00 64.60 28 o
15 1 -14 1159.90 1120.10 72.50 28 o
16 -2 -13 197.68 122.80 54.90 28 <
15 -3 -12 30.91 49.40 53.60 28 <
13 1 -12 2513.30 2299.10 87.80 28 o
12 2 -12 689.57 682.40 64.50 28 o
13 -1 -11 489.83 577.10 65.50 28 o
13 -3 -10 948.75 805.10 67.00 28 o
10 2 -10 237.37 440.50 62.60 28 o
9 3 -10 1200.60 1254.90 73.20 28 o
8 4 -10 106.71 73.90 53.80 28 <
12 -4 -9 129.71 139.40 55.00 28 <
11 -1 -9 1841.60 1658.20 81.00 28 o
11 -3 -8 703.79 657.30 64.50 28 o
7 3 -8 196.80 156.30 55.70 28 <
6 4 -8 74.88 67.80 54.30 28 <
10 -4 -7 20.45 9.80 53.40 28 <
8 0 -7 3356.80 3803.10 107.40 28 o
8 -2 -6 1609.90 1447.50 77.80 28 o
4 4 -6 45.48 -3.80 53.30 28 <
8 -4 -5 64.34 -40.50 53.60 28 <
5 1 -5 619.15 588.90 73.40 28 o
5 -3 -3 633.87 852.20 67.40 28 o
2 2 -3 408.62 300.20 62.90 28 o
1 3 -3 299.61 178.40 57.30 28 o
3 -1 -2 23863.00 23179.10 227.10 28 o
3 -3 -1 329.48 395.00 61.70 28 o
-1 3 -1 218.53 127.40 58.30 28 <
-2 4 -1 97.29 100.20 55.20 28 <
2 -4 0 177.88 225.80 56.60 28 o
0 -2 1 341.49 213.60 63.80 28 o
-4 4 1 83.27 74.70 54.60 28 <
0 -4 2 247.25 200.40 56.10 28 o
-3 1 2 18041.00 18254.10 204.40 28 o
-3 -3 4 264.51 350.60 60.80 28 o
-6 2 4 567.56 471.00 64.30 28 o
-7 3 4 172.60 159.00 56.60 28 <
-8 4 4 1349.00 729.00 70.70 28 o
-4 -4 5 40.24 30.50 52.80 28 <
-6 -2 6 4759.10 4751.30 113.70 28 o
-9 3 6 292.32 313.00 60.80 28 o
-10 4 6 21.43 -3.00 54.10 28 <
-6 -4 7 31.52 41.00 53.10 28 <
-9 1 7 754.06 495.50 66.20 28 o
-8 -2 8 4007.70 3354.30 98.40 28 o
-9 -3 9 148.51 125.10 55.70 28 <
-12 2 9 270.29 352.00 61.30 28 o
-13 3 9 140.15 54.00 56.90 28 <
-10 -4 10 212.07 92.50 53.90 28 <
-11 -1 10 296.52 267.40 60.50 28 o
-11 -3 11 241.22 139.10 55.90 28 <
-12 -2 11 209.91 99.20 55.20 28 <
-15 3 11 27.36 31.60 54.30 28 <
-14 0 12 218.28 170.10 56.60 28 o
-15 1 12 98.34 82.50 55.40 28 <
-14 -2 13 137.44 110.20 55.10 28 <
-15 -1 13 78.25 13.60 55.90 28 <
-15 -3 14 327.35 231.00 57.70 28 o
-17 1 14 385.55 226.80 56.60 28 o
-18 2 14 154.81 135.80 57.10 28 <
-17 -1 15 68.23 35.50 53.10 28 <
-18 0 15 367.07 416.80 61.10 28 o
-18 -2 16 475.66 386.40 60.50 28 o
-20 0 17 41.22 22.40 53.20 28 <
-21 1 17 103.87 14.00 56.20 28 <
-21 -1 18 261.48 176.50 55.30 28 o
20 0 -18 126.46 50.70 54.40 29 <
19 1 -18 52.16 66.50 53.30 29 <
18 2 -18 315.99 298.00 57.00 29 o
20 -2 -17 40.70 7.70 53.80 29 <
19 -1 -17 21.99 47.50 55.00 29 <
17 1 -16 94.58 70.20 54.70 29 <
16 2 -16 33.17 13.70 53.50 29 <
18 -2 -15 342.86 212.20 58.50 29 o
17 -1 -15 31.55 3.50 54.10 29 <
17 -3 -14 71.64 64.90 53.80 29 <
15 1 -14 1538.40 1319.60 73.60 29 o
14 2 -14 101.09 73.70 54.50 29 <
13 3 -14 229.35 239.90 56.50 29 o
15 -1 -13 73.93 182.30 56.00 29 o
15 -3 -12 45.27 -20.00 54.00 29 <
12 2 -12 1082.70 734.30 65.50 29 o
11 3 -12 355.04 419.50 60.70 29 o
13 -1 -11 594.81 634.00 65.10 29 o
12 0 -11 39.60 27.00 56.30 29 <
13 -3 -10 1257.40 1073.20 70.20 29 o
9 3 -10 1169.50 986.40 70.00 29 o
8 4 -10 94.88 75.50 53.60 29 <
12 -4 -9 74.32 57.20 54.40 29 <
10 0 -9 329.94 415.60 63.50 29 o
10 -2 -8 2052.20 1723.10 81.80 29 o
6 4 -8 129.23 127.10 54.20 29 <
10 -4 -7 29.89 19.20 53.60 29 <
7 1 -7 56.63 92.70 60.20 29 <
8 -2 -6 1852.90 1955.10 83.10 29 o
8 -4 -5 69.81 -19.40 53.60 29 <
5 1 -5 592.08 489.80 69.70 29 o
4 2 -5 80.50 127.00 58.00 29 <
5 -1 -4 14053.00 15857.10 189.70 29 o
5 -3 -3 724.85 844.50 67.80 29 o
2 2 -3 177.00 234.80 61.80 29 o
1 3 -3 185.57 181.00 57.10 29 o
0 4 -3 145.88 93.80 54.80 29 <
3 -3 -1 413.35 310.30 59.60 29 o
-1 3 -1 81.35 65.20 56.30 29 <
-2 4 -1 62.31 54.20 54.50 29 <
2 -4 0 283.89 223.20 57.10 29 o
0 -2 1 212.47 202.80 63.00 29 o
-4 4 1 101.49 58.10 54.80 29 <
0 -4 2 105.98 118.40 54.50 29 <
-3 1 2 21369.00 19355.50 211.40 29 o
-3 -3 4 171.74 149.20 57.60 29 <
-6 2 4 509.54 463.40 64.80 29 o
-7 3 4 101.71 147.00 56.70 29 <
-8 4 4 1106.40 1042.40 70.80 29 o
-5 -1 5 539.22 520.90 71.20 29 o
-5 -3 6 2750.10 2753.00 91.30 29 o
-9 3 6 199.86 266.80 58.90 29 o
-10 4 6 34.50 7.00 54.20 29 <
-6 -4 7 22.36 8.40 53.00 29 <
-8 0 7 3689.00 3619.10 105.80 29 o
-8 -2 8 3023.20 2854.00 94.40 29 o
-12 4 8 17.55 14.30 55.20 29 <
-8 -4 9 49.03 48.90 53.60 29 <
-11 1 9 2303.30 1873.10 83.40 29 o
-12 2 9 531.50 332.90 61.40 29 o
-10 -2 10 856.27 866.50 68.30 29 o
-11 -1 10 426.25 281.70 61.30 29 o
-11 -3 11 148.50 82.10 55.10 29 <
-14 2 11 105.72 186.20 56.50 29 o
-15 3 11 47.92 76.00 55.50 29 <
-13 -1 12 2763.10 2646.40 91.70 29 o
-14 0 12 268.95 151.40 56.80 29 <
-13 -3 13 171.59 121.80 55.00 29 <
-14 -2 13 152.61 128.80 55.40 29 <
-17 3 13 11.24 -18.70 54.80 29 <
-16 0 14 793.99 803.60 67.00 29 o
-17 1 14 261.32 181.10 56.70 29 o
-16 -2 15 467.72 589.90 63.40 29 o
-17 -1 15 65.66 47.50 52.90 29 <
-19 1 16 328.82 281.00 58.50 29 o
-20 2 16 90.48 76.50 55.50 29 <
-19 -1 17 76.59 63.80 54.00 29 <
-20 0 17 57.51 26.30 53.50 29 <
-22 0 19 57.27 44.00 53.30 29 <
20 0 -19 60.42 22.80 53.60 30 <
18 2 -18 315.79 197.70 56.60 30 o
19 -1 -17 42.52 39.00 54.70 30 <
18 0 -17 135.09 96.30 54.60 30 <
16 2 -16 81.80 -102.90 55.80 30 <
17 -1 -15 29.89 -16.20 53.00 30 <
16 0 -15 1214.90 1442.60 76.30 30 o
17 -3 -14 63.99 -8.40 53.50 30 <
16 -2 -14 715.77 608.40 65.10 30 o
13 3 -14 289.21 226.90 56.40 30 o
14 0 -13 68.23 121.00 56.00 30 <
15 -3 -12 80.02 -64.40 54.80 30 <
14 -2 -12 121.07 65.40 55.80 30 <
12 0 -11 63.65 43.90 57.00 30 <
11 1 -11 441.83 453.60 64.00 30 o
12 -2 -10 336.41 442.60 60.60 30 o
12 -4 -9 108.42 124.10 54.00 30 <
9 1 -9 1304.00 1285.60 77.00 30 o
10 -2 -8 2326.40 1905.60 85.00 30 o
10 -4 -7 37.15 21.30 53.30 30 <
7 1 -7 187.29 152.80 62.20 30 <
6 2 -7 166.20 302.20 61.40 30 o
8 -2 -6 3514.80 3148.50 97.20 30 o
8 -4 -5 69.54 81.90 54.20 30 <
7 -3 -5 452.46 390.90 62.10 30 o
4 2 -5 110.66 143.30 58.80 30 <
3 3 -5 727.63 953.90 69.60 30 o
2 4 -5 6.46 -24.80 53.20 30 <
5 -1 -4 11058.00 13233.20 177.00 30 o
5 -3 -3 983.78 933.60 70.20 30 o
1 3 -3 207.67 164.80 57.50 30 <
0 4 -3 63.40 57.70 54.50 30 <
3 -3 -1 167.03 237.00 59.50 30 o
-2 4 -1 103.97 46.80 55.70 30 <
2 -4 0 271.09 273.70 57.90 30 o
0 -2 1 580.76 227.00 62.80 30 o
0 -4 2 200.22 178.20 56.30 30 o
-3 1 2 25276.00 23179.30 227.70 30 o
-2 -2 3 310.36 263.00 63.00 30 o
-2 -4 4 1042.10 992.40 68.80 30 o
-6 2 4 497.07 534.40 65.70 30 o
-7 3 4 179.97 201.20 56.80 30 o
-8 4 4 1187.30 854.60 69.30 30 o
-5 -1 5 488.00 496.00 72.00 30 o
-5 -3 6 3439.50 2965.70 93.90 30 o
-8 2 6 2797.50 2724.30 93.70 30 o
-9 3 6 269.91 251.90 60.00 30 o
-10 4 6 43.36 12.60 54.20 30 <
-7 -1 7 84.72 158.60 59.80 30 <
-7 -3 8 192.45 209.10 57.10 30 o
-12 4 8 11.42 12.30 53.30 30 <
-8 -4 9 96.01 51.40 53.60 30 <
-10 0 9 508.51 484.30 65.40 30 o
-11 1 9 3288.50 1943.00 86.70 30 o
-10 -2 10 759.31 763.50 66.90 30 o
-10 -4 11 21.99 20.40 52.90 30 <
-13 1 11 517.90 469.20 63.80 30 o
-14 2 11 211.18 127.80 57.00 30 <
-15 3 11 68.19 15.60 55.70 30 <
-12 -2 12 1129.70 1038.20 69.70 30 o
-13 -1 12 3135.50 2444.40 89.70 30 o
-13 -3 13 78.97 55.60 54.90 30 <
-16 2 13 65.19 41.20 55.80 30 <
-17 3 13 9.18 -28.10 54.00 30 <
-15 -1 14 1125.20 1103.10 72.30 30 o
-16 0 14 958.79 689.30 66.40 30 o
-15 -3 15 154.40 203.90 56.20 30 o
-16 -2 15 608.72 574.80 63.40 30 o
-18 0 16 1070.80 1117.70 72.10 30 o
-19 1 16 310.75 277.40 59.00 30 o
-20 2 16 136.32 84.70 56.50 30 <
-18 -2 17 100.52 60.20 54.50 30 <
-21 1 18 329.38 214.30 58.10 30 o
-22 0 19 114.65 8.10 53.80 30 <
20 0 -19 84.50 -12.60 52.70 31 <
19 1 -19 7.38 9.90 52.90 31 <
18 0 -17 137.53 117.10 53.80 31 <
17 1 -17 53.48 28.30 53.50 31 <
16 2 -17 78.54 -43.70 54.30 31 <
18 -2 -16 732.79 720.20 65.70 31 o
16 0 -15 1400.70 1343.70 76.20 31 o
15 1 -15 585.03 548.80 63.20 31 o
14 2 -15 18.95 60.70 52.50 31 <
13 3 -15 125.36 41.10 54.50 31 <
17 -3 -14 52.27 32.80 53.80 31 <
16 -2 -14 608.51 438.30 61.40 31 o
13 1 -13 321.87 367.00 59.80 31 o
12 2 -13 29.10 55.40 53.50 31 <
11 3 -13 107.69 59.60 54.70 31 <
14 -2 -12 136.55 120.60 55.60 31 <
11 1 -11 539.61 397.90 62.10 31 o
10 2 -11 50.09 104.40 56.10 31 <
9 3 -11 15.94 10.50 52.50 31 <
8 4 -11 151.87 112.70 55.40 31 <
12 -2 -10 312.97 377.80 60.70 31 o
12 -4 -9 38.02 28.30 53.50 31 <
8 2 -9 535.51 336.00 61.00 31 o
7 3 -9 28.76 2.20 53.50 31 <
6 4 -9 19.20 41.00 52.90 31 <
10 -2 -8 3294.10 2878.70 93.20 31 o
10 -4 -7 19.14 57.30 54.20 31 <
6 2 -7 315.01 202.50 59.00 31 o
5 3 -7 136.56 105.20 55.20 31 <
4 4 -7 10.37 -19.80 53.10 31 <
7 -1 -6 20488.00 19926.70 208.90 31 o
8 -4 -5 33.05 -18.00 54.10 31 <
7 -3 -5 430.21 375.70 61.00 31 o
3 3 -5 766.03 668.80 66.30 31 o
2 4 -5 24.11 19.80 53.30 31 <
5 -1 -4 11627.00 12843.20 174.50 31 o
5 -3 -3 763.16 876.60 69.40 31 o
1 3 -3 238.22 88.70 56.70 31 <
0 4 -3 85.07 71.80 54.40 31 <
3 -3 -1 278.24 276.10 59.70 31 o
1 -3 1 97.63 151.90 56.80 31 <
0 -4 2 99.97 83.80 54.50 31 <
-3 1 2 25935.00 24974.60 234.70 31 o
-2 -2 3 416.32 283.20 63.00 31 o
-2 -4 4 779.89 780.20 65.10 31 o
-5 1 4 15050.00 14660.00 185.20 31 o
-6 2 4 722.34 731.80 68.50 31 o
-7 3 4 85.77 107.80 56.80 31 <
-8 4 4 853.90 553.90 64.50 31 o
-4 -2 5 187.59 170.90 58.80 31 <
-4 -4 6 112.13 57.30 53.90 31 <
-8 2 6 1878.50 1870.50 83.70 31 o
-9 3 6 300.90 291.50 60.40 31 o
-10 4 6 80.76 31.40 55.10 31 <
-7 -1 7 159.41 106.50 61.00 31 <
-6 -4 8 117.84 64.30 54.00 31 <
-7 -3 8 229.94 92.40 55.90 31 <
-11 3 8 519.62 248.10 59.40 31 o
-12 4 8 43.64 -15.20 54.50 31 <
-9 -1 9 1513.50 1209.30 75.60 31 o
-10 0 9 483.96 339.20 61.90 31 o
-9 -3 10 1380.30 1306.00 73.50 31 o
-10 -4 11 6.85 -20.80 52.90 31 <
-12 0 11 87.02 39.00 56.40 31 <
-13 1 11 570.13 585.80 65.30 31 o
-11 -3 12 573.42 584.00 63.00 31 o
-12 -2 12 1107.50 716.80 65.50 31 o
-15 1 13 124.25 83.40 56.00 31 <
-16 2 13 58.70 -3.20 55.00 31 <
-17 3 13 2.63 13.50 54.40 31 <
-14 -2 14 55.72 78.10 53.30 31 <
-15 -1 14 1543.80 1257.30 73.60 31 o
-15 -3 15 220.89 138.70 55.70 31 <
-18 2 15 208.61 262.40 58.70 31 o
-16 -2 16 56.91 49.40 53.70 31 <
-17 -1 16 101.75 60.70 54.50 31 <
-18 0 16 1647.50 1293.30 74.00 31 o
-19 -1 18 94.88 61.50 53.50 31 <
-20 0 18 64.54 1.70 53.50 31 <
-21 1 18 361.31 260.50 58.10 31 o
19 1 -19 12.17 -35.20 52.50 32 <
19 -1 -18 231.73 251.20 57.50 32 o
17 1 -17 95.73 19.80 53.60 32 <
16 2 -17 72.84 -24.30 53.20 32 <
18 -2 -16 824.91 682.70 65.10 32 o
17 -1 -16 98.48 81.70 54.80 32 <
14 2 -15 25.01 16.50 52.80 32 <
13 3 -15 86.55 -21.40 53.50 32 <
16 -2 -14 922.02 685.60 64.00 32 o
15 -1 -14 1267.70 1422.80 75.60 32 o
15 -3 -13 62.85 42.10 54.60 32 <
12 2 -13 48.80 25.30 53.50 32 <
11 3 -13 69.67 61.80 54.10 32 <
14 -2 -12 168.50 108.70 55.10 32 <
13 -1 -12 3793.30 3818.90 103.10 32 o
13 -3 -11 263.68 171.70 56.20 32 o
10 2 -11 68.26 106.80 54.90 32 <
9 3 -11 7.26 30.40 53.30 32 <
8 4 -11 138.14 108.70 55.20 32 <
11 -1 -10 746.62 744.80 68.50 32 o
12 -4 -9 87.37 -25.70 54.50 32 <
11 -3 -9 761.82 602.10 62.70 32 o
7 3 -9 14.10 20.90 53.10 32 <
6 4 -9 13.54 24.00 52.60 32 <
9 -1 -8 318.89 388.80 64.10 32 o
10 -4 -7 85.65 30.40 53.30 32 <
9 -3 -7 168.74 107.40 56.30 32 <
5 3 -7 99.33 35.40 55.10 32 <
4 4 -7 14.48 14.40 53.10 32 <
7 -1 -6 16595.00 16163.40 190.90 32 o
8 -4 -5 25.13 12.70 53.70 32 <
7 -3 -5 480.04 395.70 61.30 32 o
3 3 -5 1208.40 683.10 65.40 32 o
2 4 -5 10.59 14.60 52.10 32 <
5 -1 -4 15193.00 15349.50 187.50 32 o
5 -3 -3 716.69 741.80 67.10 32 o
0 4 -3 98.40 54.60 54.70 32 <
3 -3 -1 238.54 262.80 58.90 32 o
1 -3 1 196.24 97.20 56.80 32 <
-1 -3 3 223.11 145.20 57.70 32 <
-2 -4 4 916.57 761.90 65.70 32 o
-5 1 4 10782.00 11863.00 169.80 32 o
-6 2 4 691.35 688.70 68.20 32 o
-7 3 4 83.25 77.60 56.90 32 <
-8 4 4 748.06 462.10 62.40 32 o
-4 -2 5 99.28 153.00 58.20 32 <
-4 -4 6 92.15 73.30 54.30 32 <
-8 2 6 1493.10 1383.60 78.10 32 o
-9 3 6 185.09 286.80 59.30 32 o
-10 4 6 108.29 40.60 54.50 32 <
-6 -2 7 135.29 128.40 58.20 32 <
-6 -4 8 89.20 61.90 53.80 32 <
-10 2 8 3000.40 2707.50 94.10 32 o
-11 3 8 409.97 259.10 59.50 32 o
-12 4 8 98.41 124.50 56.20 32 <
-9 -1 9 1418.90 1143.50 74.30 32 o
-8 -4 10 68.53 100.50 54.10 32 <
-9 -3 10 1685.50 1212.70 73.40 32 o
-13 3 10 942.33 620.50 64.90 32 o
-11 -1 11 508.12 351.60 62.40 32 o
-12 0 11 112.32 35.10 56.10 32 <
-11 -3 12 394.94 382.50 59.90 32 o
-14 0 13 162.36 127.70 57.40 32 <
-15 1 13 109.74 136.40 56.90 32 <
-13 -3 14 139.26 180.10 56.80 32 o
-14 -2 14 33.36 21.30 53.40 32 <
-16 0 15 1245.90 1197.00 73.60 32 o
-17 1 15 19.84 41.30 53.70 32 <
-18 2 15 189.45 231.70 58.70 32 o
-16 -2 16 83.36 43.20 54.20 32 <
-19 1 17 125.82 121.70 55.40 32 <
-20 2 17 29.05 33.20 54.20 32 <
-18 -2 18 241.03 141.00 56.30 32 <
-19 -1 18 74.09 100.10 53.70 32 <
20 0 -20 260.71 261.50 58.20 33 o
19 -1 -18 463.90 409.10 60.20 33 o
18 0 -18 506.41 629.70 63.10 33 o
17 1 -18 193.26 151.60 56.10 33 <
16 2 -18 44.99 40.40 53.40 33 <
17 -1 -16 148.49 116.90 54.50 33 <
16 0 -16 60.88 131.60 56.10 33 <
15 1 -16 1348.80 1379.00 73.20 33 o
15 -1 -14 1237.30 1311.10 74.70 33 o
14 0 -14 454.76 489.30 62.40 33 o
15 -3 -13 39.71 -10.10 54.30 33 <
13 -1 -12 4162.60 4027.30 105.10 33 o
12 0 -12 2318.10 2693.90 92.00 33 o
13 -3 -11 168.31 222.90 56.30 33 o
8 4 -11 193.96 -11.20 54.60 33 <
11 -1 -10 971.92 1157.40 73.40 33 o
10 0 -10 2115.60 2538.90 90.60 33 o
12 -4 -9 61.55 68.70 54.50 33 <
11 -3 -9 426.39 401.80 60.90 33 o
9 -1 -8 534.09 379.00 64.80 33 o
8 0 -8 7437.30 6333.00 129.60 33 o
9 -3 -7 79.43 123.40 54.60 33 <
6 0 -6 33948.00 33179.40 266.70 33 o
7 -3 -5 405.38 496.60 63.00 33 o
5 -3 -3 606.92 602.00 64.70 33 o
3 -3 -1 329.12 469.40 61.70 33 o
1 -3 1 94.18 128.90 56.80 33 <
-1 -3 3 126.52 135.80 57.10 33 <
-5 1 4 12156.00 11172.40 164.50 33 o
-8 4 4 477.62 250.60 59.50 33 o
-3 -3 5 708.00 731.00 66.60 33 o
-4 -4 6 32.47 41.00 53.20 33 <
-7 1 6 14268.00 14681.20 183.50 33 o
-8 2 6 998.77 971.40 72.70 33 o
-9 3 6 226.10 274.10 59.80 33 o
-10 4 6 147.22 66.50 55.30 33 <
-6 -2 7 48.42 91.40 56.20 33 <
-6 -4 8 77.70 48.50 53.30 33 <
-9 1 8 591.33 648.80 68.90 33 o
-10 2 8 1943.10 1712.60 82.90 33 o
-11 3 8 315.16 183.70 59.80 33 o
-12 4 8 67.02 27.10 54.20 33 <
-8 -2 9 71.24 143.10 57.90 33 <
-8 -4 10 85.41 74.00 53.70 33 <
-12 2 10 272.61 297.60 60.00 33 o
-13 3 10 535.78 440.40 62.80 33 o
-10 -2 11 74.16 61.70 54.60 33 <
-11 -1 11 387.46 262.80 60.50 33 o
-14 2 12 364.49 139.40 56.80 33 <
-15 3 12 78.25 61.40 55.60 33 <
-12 -2 13 17.25 17.70 53.80 33 <
-13 -1 13 257.42 269.00 58.40 33 o
-13 -3 14 305.56 243.10 57.50 33 o
-17 3 14 51.26 -24.90 55.20 33 <
-15 -1 15 528.06 489.50 63.00 33 o
-16 0 15 1039.30 892.80 70.70 33 o
-17 -1 17 58.42 63.60 53.00 33 <
-18 0 17 45.54 47.70 54.30 33 <
-19 1 17 90.13 106.20 55.30 33 <
-20 2 17 18.75 22.20 53.80 33 <
-18 -2 18 245.73 157.70 55.90 33 <
-20 0 19 67.67 20.90 53.20 33 <
19 -1 -19 26.30 33.50 53.10 34 <
17 1 -18 263.45 173.30 56.00 34 o
16 2 -18 37.39 -20.20 52.80 34 <
18 -2 -17 124.46 86.20 54.90 34 <
15 1 -16 1158.20 1167.30 71.20 34 o
14 2 -16 227.16 188.90 59.20 34 o
13 3 -16 36.61 11.40 53.00 34 <
16 -2 -15 678.72 656.40 64.20 34 o
14 0 -14 627.13 510.90 62.20 34 o
13 1 -14 873.94 757.30 65.90 34 o
12 2 -14 89.77 70.50 55.40 34 <
11 3 -14 325.57 409.90 59.30 34 o
15 -3 -13 26.91 1.30 53.30 34 <
14 -2 -13 102.48 79.90 54.10 34 <
12 0 -12 3006.90 3230.40 97.10 34 o
11 1 -12 2561.20 2481.60 90.70 34 o
10 2 -12 199.98 255.80 58.80 34 o
9 3 -12 208.07 58.10 54.80 34 <
13 -3 -11 181.65 135.20 55.80 34 <
10 0 -10 2235.70 2123.00 86.30 34 o
9 1 -10 4706.10 4521.30 110.90 34 o
8 2 -10 635.15 737.80 67.00 34 o
7 3 -10 491.24 742.10 64.80 34 o
6 4 -10 96.33 49.60 54.70 34 <
11 -3 -9 518.67 525.60 63.30 34 o
8 0 -8 5943.00 5388.40 120.00 34 o
7 1 -8 1678.20 2275.60 89.80 34 o
4 4 -8 752.30 808.50 66.00 34 o
9 -3 -7 74.11 129.00 54.50 34 <
6 0 -6 26310.00 26319.20 238.40 34 o
2 4 -6 219.62 183.20 56.20 34 o
7 -3 -5 366.19 451.20 61.90 34 o
4 0 -4 4285.00 4242.80 122.50 34 o
6 -4 -3 30.97 34.90 53.30 34 <
5 -3 -3 553.28 633.80 64.30 34 o
2 0 -2 18719.00 20005.60 229.70 34 o
4 -4 -1 106.56 122.00 54.40 34 <
3 -3 -1 207.23 311.60 60.20 34 o
2 -4 1 143.19 95.70 55.20 34 <
1 -3 1 175.20 115.40 56.30 34 <
-2 0 2 19778.00 20430.40 231.00 34 o
-6 4 2 266.88 162.10 56.40 34 <
-1 -3 3 169.49 162.10 56.50 34 <
-4 0 4 4244.40 4372.00 125.40 34 o
-8 4 4 437.02 267.80 59.10 34 o
-3 -3 5 609.74 597.30 63.70 34 o
-6 0 6 32801.00 29825.60 254.10 34 o
-7 1 6 13199.00 11736.90 167.50 34 o
-8 2 6 888.60 719.30 69.60 34 o
-9 3 6 349.52 284.80 59.30 34 o
-10 4 6 113.66 95.50 55.70 34 <
-5 -3 7 101.51 112.20 55.10 34 <
-9 1 8 488.58 645.80 68.90 34 o
-10 2 8 1500.90 1493.80 80.00 34 o
-11 3 8 537.26 599.10 65.90 34 o
-12 4 8 106.13 105.80 56.50 34 <
-7 -3 9 37.05 77.10 53.30 34 <
-11 1 10 1061.60 1306.70 75.80 34 o
-12 2 10 188.67 175.90 58.90 34 <
-13 3 10 403.02 235.70 60.70 34 o
-9 -3 11 77.32 62.40 53.90 34 <
-10 -2 11 36.52 88.80 54.40 34 <
-13 1 12 3435.30 3054.00 95.20 34 o
-14 2 12 171.55 127.50 56.30 34 <
-15 3 12 75.75 133.90 56.70 34 <
-11 -3 13 35.00 18.90 53.00 34 <
-12 -2 13 19.85 16.70 53.70 34 <
-15 1 14 1330.40 1097.40 71.40 34 o
-16 2 14 539.95 297.20 59.80 34 o
-17 3 14 52.05 52.00 54.90 34 <
-13 -3 15 97.31 73.90 53.80 34 <
-14 -2 15 9.32 25.30 53.40 34 <
-15 -1 15 800.61 465.00 61.40 34 o
-18 2 16 584.12 381.30 60.80 34 o
-16 -2 17 36.69 15.20 53.70 34 <
-17 -1 17 51.46 31.30 53.60 34 <
-19 -1 19 3.78 0.80 53.10 34 <
-20 0 19 63.73 49.80 53.90 34 <
19 -1 -19 12.54 -6.20 53.10 35 <
18 0 -19 45.31 -14.40 53.60 35 <
17 1 -19 103.14 8.10 53.90 35 <
18 -2 -17 171.97 10.20 55.30 35 <
17 -1 -17 95.96 32.30 53.60 35 <
16 0 -17 79.24 48.30 55.60 35 <
16 -2 -15 849.61 767.50 65.40 35 o
15 -1 -15 720.43 750.80 65.80 35 o
11 3 -14 581.05 420.80 59.70 35 o
14 -2 -13 53.90 110.20 55.10 35 <
13 -1 -13 376.77 410.40 60.90 35 o
10 2 -12 191.65 258.70 57.70 35 o
9 3 -12 202.47 101.90 54.40 35 <
13 -3 -11 141.43 144.00 56.30 35 <
12 -2 -11 50.43 69.20 54.60 35 <
8 2 -10 561.95 526.70 64.70 35 o
7 3 -10 867.82 729.60 66.20 35 o
6 4 -10 92.14 6.20 53.60 35 <
11 -3 -9 403.46 455.10 60.60 35 o
10 -2 -9 192.49 204.60 58.60 35 o
7 1 -8 2698.80 2543.90 92.70 35 o
6 2 -8 282.49 375.20 62.60 35 o
5 3 -8 96.47 326.40 59.50 35 o
4 4 -8 821.86 731.10 66.20 35 o
9 -3 -7 83.10 111.60 55.60 35 <
5 1 -6 23683.00 23379.30 227.20 35 o
4 2 -6 388.95 733.80 68.60 35 o
3 3 -6 166.10 163.80 57.40 35 <
2 4 -6 195.32 134.20 55.70 35 <
8 -4 -5 62.36 28.80 53.60 35 <
7 -3 -5 463.63 532.50 62.10 35 o
3 1 -4 1950.50 1797.80 90.20 35 o
2 2 -4 5846.20 6368.80 128.60 35 o
1 3 -4 173.38 424.20 61.70 35 o
0 4 -4 101.75 67.40 55.60 35 <
6 -4 -3 58.09 65.30 54.10 35 <
5 -3 -3 729.26 730.80 66.90 35 o
-1 3 -2 1125.40 1106.40 72.80 35 o
-2 4 -2 297.10 200.90 57.60 35 o
4 -4 -1 87.75 108.00 54.00 35 <
3 -3 -1 537.24 472.30 61.90 35 o
-3 3 0 749.97 827.60 68.80 35 o
-4 4 0 456.94 184.70 58.20 35 o
2 -4 1 110.60 144.30 55.30 35 <
1 -3 1 294.04 221.90 58.10 35 o
-2 0 2 14715.00 16439.20 215.10 35 o
-6 4 2 224.75 125.70 57.20 35 <
0 -4 3 45.03 50.30 54.00 35 <
-4 0 4 3871.80 4233.90 123.00 35 o
-8 4 4 356.80 200.60 58.70 35 o
-2 -4 5 34.47 38.00 53.00 35 <
-5 -1 6 32767.00 32229.80 261.70 35 o
-6 0 6 30464.00 25148.80 235.30 35 o
-10 4 6 139.61 117.20 55.50 35 <
-4 -4 7 12.58 2.20 53.50 35 <
-7 -1 8 2149.00 2604.40 93.50 35 o
-8 0 8 5153.50 4901.40 117.20 35 o
-11 3 8 565.04 553.30 64.70 35 o
-12 4 8 61.74 101.20 55.00 35 <
-6 -4 9 10.02 4.90 52.80 35 <
-7 -3 9 35.88 -15.00 53.90 35 <
-9 -1 10 5515.80 5078.20 116.20 35 o
-10 0 10 1809.00 2485.90 91.10 35 o
-11 1 10 1206.10 1067.50 73.50 35 o
-12 2 10 238.49 301.70 60.00 35 o
-13 3 10 473.68 298.90 60.80 35 o
-8 -4 11 133.24 75.70 56.30 35 <
-9 -3 11 66.63 64.10 54.90 35 <
-11 -1 12 3984.90 3792.40 104.00 35 o
-12 0 12 2203.10 2678.10 93.60 35 o
-13 1 12 2595.00 2355.80 89.20 35 o
-14 2 12 208.72 150.80 57.30 35 <
-15 3 12 92.15 89.60 57.00 35 <
-11 -3 13 64.61 7.40 52.90 35 <
-13 -1 14 1163.80 992.50 69.70 35 o
-14 0 14 430.45 442.80 63.00 35 o
-15 1 14 664.39 719.40 66.60 35 o
-16 2 14 585.95 436.00 62.30 35 o
-17 3 14 56.28 23.80 55.40 35 <
-13 -3 15 95.33 103.90 54.40 35 <
-15 -1 16 1117.00 1287.30 73.90 35 o
-16 0 16 97.80 45.40 55.30 35 <
-17 1 16 56.37 35.40 55.00 35 <
-18 2 16 415.84 173.60 58.20 35 <
-17 -1 18 321.50 219.20 56.90 35 o
-18 0 18 327.46 290.30 57.80 35 o
-19 1 18 185.81 209.00 55.80 35 o
-20 0 20 219.60 231.30 58.60 35 o
17 1 -19 104.77 81.80 54.40 36 <
18 -2 -18 303.85 205.90 57.80 36 o
16 0 -17 84.83 39.10 54.50 36 <
15 1 -17 32.76 43.80 53.80 36 <
14 2 -17 18.93 37.60 54.50 36 <
15 -1 -15 620.09 764.40 65.60 36 o
14 0 -15 12.96 48.10 54.70 36 <
13 1 -15 264.08 198.80 58.00 36 o
12 2 -15 62.84 51.10 54.60 36 <
11 3 -15 84.12 -30.50 53.60 36 <
14 -2 -13 99.17 14.70 53.70 36 <
13 -1 -13 233.93 293.00 58.90 36 o
12 0 -13 28.83 35.40 55.20 36 <
12 -2 -11 43.33 52.70 54.30 36 <
11 -1 -11 547.30 535.10 65.00 36 o
12 -4 -10 51.81 2.10 53.80 36 <
11 -3 -9 757.86 583.30 63.60 36 o
10 -2 -9 201.91 170.80 57.50 36 <
5 3 -8 63.98 47.60 54.50 36 <
4 4 -8 1496.80 1269.20 72.60 36 o
9 -3 -7 69.56 77.40 54.10 36 <
4 2 -6 142.39 218.20 60.30 36 o
3 3 -6 50.43 54.10 56.40 36 <
2 4 -6 38.23 53.10 54.50 36 <
8 -4 -5 72.26 21.70 53.70 36 <
7 -3 -5 361.88 445.70 61.80 36 o
3 1 -4 586.11 637.00 75.20 36 o
2 2 -4 6125.50 6257.20 126.40 36 o
1 3 -4 47.41 92.30 56.30 36 <
0 4 -4 153.49 120.70 55.50 36 <
6 -4 -3 17.18 33.30 53.70 36 <
5 -3 -3 811.02 884.00 68.60 36 o
1 1 -2 196.22 411.00 82.60 36 o
0 2 -2 803.33 889.10 72.40 36 o
-1 3 -2 1430.10 1296.30 75.30 36 o
-2 4 -2 163.59 166.00 56.80 36 <
4 -4 -1 156.06 126.40 54.70 36 <
-3 3 0 427.17 445.20 63.60 36 o
-4 4 0 434.18 325.60 60.40 36 o
2 -4 1 151.00 171.30 55.70 36 o
-5 3 2 2473.90 2448.30 90.10 36 o
-6 4 2 154.14 102.60 55.40 36 <
0 -4 3 118.16 99.20 55.20 36 <
-3 -1 4 457.97 662.10 80.20 36 o
-8 4 4 442.99 285.90 59.10 36 o
-2 -4 5 33.58 58.60 53.10 36 <
-5 -1 6 24966.00 25536.00 236.10 36 o
-10 4 6 126.58 138.10 56.00 36 <
-4 -4 7 32.58 -7.80 53.20 36 <
-6 -2 8 441.03 489.40 63.60 36 o
-7 -1 8 1873.40 2091.90 87.30 36 o
-12 4 8 110.02 145.90 57.00 36 <
-6 -4 9 57.05 32.00 53.00 36 <
-8 -2 10 555.26 597.90 65.00 36 o
-9 -1 10 4810.00 4346.40 110.30 36 o
-8 -4 11 172.03 107.60 55.40 36 <
-10 -2 12 283.58 275.70 59.60 36 o
-11 -1 12 2790.70 2370.40 89.10 36 o
-12 -2 14 67.46 33.80 53.70 36 <
-13 -1 14 807.10 741.30 65.80 36 o
-14 0 14 583.45 417.00 62.30 36 o
-14 -2 16 334.44 367.70 59.20 36 o
-15 -1 16 857.95 962.00 68.10 36 o
-16 0 16 66.88 88.00 55.50 36 <
-16 -2 18 47.98 82.00 53.60 36 <
-17 -1 18 170.02 123.30 55.20 36 <
-18 0 18 380.82 182.80 55.90 36 o
-19 1 18 119.32 125.80 55.00 36 <
-20 0 20 226.11 135.10 56.00 36 <
18 0 -20 21.13 29.30 53.40 37 <
17 1 -20 235.54 146.80 55.60 37 <
18 -2 -18 212.72 -52.80 54.30 37 <
17 -1 -18 235.48 259.30 57.30 37 o
16 -2 -16 8.76 0.80 53.30 37 <
13 1 -15 271.28 198.50 57.20 37 o
12 2 -15 59.01 70.50 53.30 37 <
11 3 -15 58.18 39.90 53.30 37 <
15 -3 -14 301.62 313.10 58.60 37 o
13 -1 -13 281.66 246.80 58.60 37 o
12 0 -13 28.45 -15.60 56.00 37 <
11 1 -13 375.20 343.10 60.80 37 o
10 2 -13 386.83 390.70 59.60 37 o
9 3 -13 36.83 59.90 53.90 37 <
12 -2 -11 18.64 -17.30 53.10 37 <
11 -1 -11 450.91 436.60 63.60 37 o
10 0 -11 109.59 174.50 58.50 37 <
7 3 -11 119.03 153.60 54.40 37 <
6 4 -11 41.98 50.30 53.70 37 <
12 -4 -10 41.32 -5.60 54.60 37 <
10 -2 -9 100.07 194.10 58.60 37 o
9 -1 -9 1746.30 1522.20 79.40 37 o
9 -3 -7 125.07 134.80 55.30 37 <
8 -2 -7 919.42 1025.30 72.20 37 o
7 -3 -5 417.69 473.90 61.80 37 o
2 2 -4 8926.50 8449.30 142.00 37 o
1 3 -4 34.25 -12.50 55.90 37 <
0 4 -4 173.71 67.90 55.70 37 <
6 -4 -3 42.57 51.40 53.70 37 <
5 -3 -3 894.45 863.00 69.50 37 o
1 1 -2 168.76 114.80 81.10 37 <
0 2 -2 761.65 844.70 71.50 37 o
-1 3 -2 1461.70 1301.00 76.20 37 o
-2 4 -2 188.38 184.30 56.20 37 o
4 -4 -1 84.89 123.50 54.40 37 <
-2 2 0 3760.10 3609.40 104.40 37 o
-3 3 0 208.79 182.50 58.70 37 o
-4 4 0 492.01 400.80 60.90 37 o
2 -4 1 133.90 105.60 55.40 37 <
-1 -1 2 191.83 195.90 80.60 37 <
-5 3 2 3325.40 3333.50 99.70 37 o
-6 4 2 118.02 43.50 54.80 37 <
0 -4 3 82.94 28.70 54.00 37 <
-2 -2 4 9594.90 9038.70 145.10 37 o
-3 -1 4 427.99 325.80 73.40 37 o
-8 4 4 547.91 417.30 61.30 37 o
-2 -4 5 28.33 40.70 52.20 37 <
-4 -2 6 106.61 105.80 58.30 37 <
-10 4 6 201.19 143.10 56.10 37 <
-5 -3 8 16.41 41.80 53.70 37 <
-6 -2 8 351.51 341.30 61.80 37 o
-7 -3 10 860.50 802.80 66.40 37 o
-8 -2 10 481.15 386.90 62.20 37 o
-9 -3 12 205.87 115.60 55.50 37 <
-10 -2 12 267.06 249.20 59.00 37 o
-11 -3 14 428.44 449.00 61.10 37 o
-12 -2 14 77.35 68.10 52.90 37 <
-16 2 15 942.63 531.10 64.90 37 o
-13 -3 16 33.69 75.10 53.30 37 <
-14 -2 16 325.50 304.20 58.20 37 o
-17 1 17 63.05 82.30 54.30 37 <
-18 2 17 93.25 64.70 54.70 37 <
-16 -2 18 59.81 71.10 53.20 37 <
-19 1 19 16.89 -12.40 53.80 37 <
17 1 -20 293.87 180.60 56.80 38 o
17 -1 -18 354.12 266.10 58.00 38 o
16 0 -18 10.29 27.00 52.80 38 <
15 1 -18 30.71 12.80 53.50 38 <
14 2 -18 236.80 229.20 56.90 38 o
16 -2 -16 9.99 -3.20 53.10 38 <
15 -1 -16 719.11 592.40 63.30 38 o
14 0 -16 1743.30 1631.20 78.10 38 o
13 1 -16 29.23 59.20 54.60 38 <
12 2 -16 468.14 466.90 60.00 38 o
11 3 -16 79.82 -7.80 53.20 38 <
15 -3 -14 391.43 345.00 59.40 38 o
14 -2 -14 15.70 17.30 53.40 38 <
13 -3 -12 780.66 793.90 66.20 38 o
10 0 -11 76.80 163.00 58.30 38 <
9 1 -11 38.94 78.70 56.60 38 <
8 2 -11 1031.00 1382.20 75.40 38 o
7 3 -11 129.80 132.80 55.40 38 <
6 4 -11 41.23 50.30 53.80 38 <
12 -4 -10 31.28 -4.10 54.40 38 <
9 -1 -9 1853.30 1721.90 81.10 38 o
8 0 -9 1066.00 894.10 71.00 38 o
7 1 -9 39.83 2.70 57.10 38 <
6 2 -9 99.20 88.50 57.30 38 <
5 3 -9 70.76 117.40 56.30 38 <
4 4 -9 9.27 11.30 53.40 38 <
10 -4 -8 531.89 480.20 60.70 38 o
9 -3 -7 223.08 89.80 54.50 38 <
8 -2 -7 1041.20 1117.20 73.40 38 o
2 4 -7 7.65 -21.50 53.70 38 <
7 -3 -5 436.59 486.50 61.60 38 o
6 -4 -3 15.04 28.70 53.90 38 <
5 -3 -3 855.74 962.30 71.30 38 o
0 2 -2 1112.90 1185.70 75.60 38 o
-1 3 -2 2332.20 1659.60 79.90 38 o
-2 4 -2 281.43 174.50 56.90 38 o
4 -4 -1 116.02 98.00 54.00 38 <
-1 1 0 1305.30 1876.20 100.50 38 o
-2 2 0 3078.70 3139.30 99.40 38 o
-3 3 0 306.46 247.30 58.80 38 o
-4 4 0 769.36 559.90 63.00 38 o
2 -4 1 162.28 180.20 54.70 38 o
0 -2 2 1420.60 1458.90 79.50 38 o
-1 -1 2 94.95 119.80 81.20 38 <
-5 3 2 3865.20 3743.70 103.00 38 o
-6 4 2 143.49 103.10 53.80 38 <
-1 -3 4 38.93 -6.10 54.60 38 <
-2 -2 4 7908.20 7470.40 137.20 38 o
-8 4 4 835.86 555.50 64.10 38 o
-3 -3 6 15.12 21.00 54.40 38 <
-4 -2 6 75.90 40.10 57.90 38 <
-4 -4 8 1588.10 1414.20 74.40 38 o
-5 -3 8 15.51 13.20 53.70 38 <
-6 -4 10 54.69 62.70 52.70 38 <
-7 -3 10 1106.20 895.20 67.90 38 o
-11 1 11 681.65 575.20 65.30 38 o
-12 2 11 15.33 0.30 54.80 38 <
-13 3 11 151.31 75.60 56.80 38 <
-9 -3 12 313.48 155.50 56.50 38 <
-12 0 13 35.89 73.80 55.90 38 <
-13 1 13 305.89 289.40 60.70 38 o
-14 2 13 95.26 83.70 54.80 38 <
-15 3 13 28.43 13.90 54.80 38 <
-13 -1 15 271.19 198.70 56.70 38 o
-14 0 15 9.50 -19.30 53.20 38 <
-15 1 15 506.59 568.10 64.00 38 o
-16 2 15 630.22 585.10 64.20 38 o
-14 -2 17 48.03 53.50 53.20 38 <
-15 -1 17 29.30 41.80 53.80 38 <
-16 0 17 96.54 63.20 54.60 38 <
-17 1 17 52.10 50.50 53.00 38 <
-18 2 17 78.58 42.20 54.30 38 <
-17 -1 19 89.68 45.30 53.90 38 <
-18 0 19 62.85 29.90 55.20 38 <
-19 1 19 9.79 12.40 52.80 38 <
17 -1 -19 88.72 36.80 53.70 39 <
15 -1 -16 819.01 761.00 65.40 39 o
14 0 -16 1599.20 1602.30 77.60 39 o
13 1 -16 26.77 29.50 54.60 39 <
12 2 -16 326.86 278.30 59.20 39 o
11 3 -16 55.47 -6.30 53.40 39 <
14 -2 -14 14.83 14.30 53.40 39 <
13 -1 -14 948.03 976.90 69.80 39 o
12 0 -14 184.51 94.80 56.20 39 <
11 1 -14 2023.90 1908.30 80.90 39 o
10 2 -14 201.21 138.70 55.80 39 <
9 3 -14 851.07 821.20 66.90 39 o
13 -3 -12 950.59 797.80 67.90 39 o
12 -2 -12 1182.20 863.60 67.80 39 o
12 -4 -10 11.70 29.80 53.60 39 <
11 -3 -10 141.23 60.30 55.80 39 <
8 0 -9 909.43 632.00 68.20 39 o
7 1 -9 20.51 39.60 57.90 39 <
6 2 -9 111.41 90.50 57.40 39 <
5 3 -9 133.86 174.40 55.70 39 o
4 4 -9 4.99 31.90 53.40 39 <
10 -4 -8 598.50 464.90 61.60 39 o
8 -2 -7 1271.30 1215.40 74.20 39 o
7 -1 -7 67.04 34.70 60.90 39 <
3 3 -7 217.39 268.00 58.20 39 o
2 4 -7 2.50 -28.00 53.90 39 <
7 -3 -5 548.62 493.70 62.50 39 o
6 -2 -5 1856.60 1821.20 84.00 39 o
0 4 -5 111.48 80.10 55.20 39 <
6 -4 -3 26.11 4.30 53.20 39 <
5 -3 -3 927.51 1109.30 71.90 39 o
4 -4 -1 88.03 125.00 54.20 39 <
-1 1 0 1058.90 1414.20 97.40 39 o
-2 2 0 2475.50 3056.30 98.70 39 o
-3 3 0 273.16 228.20 58.90 39 o
-4 4 0 755.80 660.00 64.10 39 o
2 -4 1 168.88 129.30 55.30 39 <
0 -2 2 1296.60 1142.20 76.40 39 o
-5 3 2 3867.00 3793.50 103.70 39 o
-6 4 2 140.92 59.50 55.20 39 <
-1 -3 4 23.00 7.20 55.30 39 <
-2 -2 4 10845.00 9300.50 149.60 39 o
-8 4 4 1201.80 792.50 68.80 39 o
-2 -4 6 49.71 24.50 53.00 39 <
-3 -3 6 11.16 63.70 54.50 39 <
-4 -4 8 1053.60 1105.10 71.00 39 o
-8 0 9 867.38 714.80 69.70 39 o
-9 1 9 1411.50 1652.10 81.20 39 o
-10 2 9 165.15 139.60 59.50 39 <
-11 3 9 643.96 553.20 65.10 39 o
-12 4 9 63.76 -0.60 54.70 39 <
-6 -4 10 40.22 39.00 52.80 39 <
-8 -2 11 1410.70 1321.20 75.90 39 o
-9 -1 11 31.52 -0.60 56.30 39 <
-10 0 11 84.31 114.20 58.70 39 <
-11 1 11 523.47 517.30 64.30 39 o
-12 2 11 13.66 36.40 55.10 39 <
-13 3 11 102.44 38.40 56.90 39 <
-9 -3 13 51.36 -33.50 53.50 39 <
-10 -2 13 377.45 397.60 59.80 39 o
-11 -1 13 348.44 327.40 59.70 39 o
-12 0 13 61.04 20.20 55.70 39 <
-13 1 13 372.48 320.60 60.30 39 o
-14 2 13 83.41 70.00 55.50 39 <
-15 3 13 37.58 -26.00 55.50 39 <
-11 -3 15 62.02 71.50 53.50 39 <
-12 -2 15 55.59 1.80 53.20 39 <
-13 -1 15 220.51 181.00 57.10 39 o
-16 2 15 975.87 506.40 63.80 39 o
-14 -2 17 58.42 50.80 54.00 39 <
17 -1 -19 67.30 30.70 54.00 40 <
16 0 -19 9.49 -24.00 53.70 40 <
15 1 -19 61.73 2.90 52.90 40 <
14 2 -19 21.92 -8.70 53.10 40 <
16 -2 -17 39.40 22.20 53.70 40 <
15 -1 -17 17.63 5.30 53.20 40 <
14 0 -17 181.16 144.70 55.80 40 <
13 1 -17 221.65 110.70 55.30 40 <
12 2 -17 390.33 331.00 59.30 40 o
15 -3 -15 181.44 221.60 57.30 40 o
12 0 -14 178.03 102.50 55.90 40 <
11 1 -14 1815.80 1467.10 76.50 40 o
10 2 -14 259.81 147.90 55.20 40 <
9 3 -14 1008.30 879.80 67.40 40 o
13 -3 -12 997.87 1042.00 70.50 40 o
12 -2 -12 717.26 562.80 63.40 40 o
11 -1 -12 2148.90 2633.50 91.30 40 o
10 0 -12 570.22 441.10 63.70 40 o
9 1 -12 1345.10 1157.50 73.10 40 o
8 2 -12 814.07 871.40 68.60 40 o
7 3 -12 120.43 81.30 54.20 40 <
12 -4 -10 30.81 -21.20 54.60 40 <
11 -3 -10 105.64 97.70 54.90 40 <
4 4 -10 100.39 17.10 54.20 40 <
10 -4 -8 609.13 401.00 60.30 40 o
7 -1 -7 37.75 40.70 59.30 40 <
6 0 -7 175.17 306.60 69.30 40 o
5 1 -7 599.17 509.40 68.40 40 o
4 2 -7 8.93 53.00 56.80 40 <
3 3 -7 242.45 213.50 57.50 40 o
2 4 -7 3.14 -3.10 52.80 40 <
7 -3 -5 470.51 437.60 62.10 40 o
6 -2 -5 1800.30 1862.20 81.90 40 o
1 3 -5 427.24 363.00 60.00 40 o
0 4 -5 112.10 103.30 54.70 40 <
6 -4 -3 18.47 40.50 53.20 40 <
5 -3 -3 978.33 1025.40 70.50 40 o
-2 4 -3 117.31 68.60 55.00 40 <
4 -4 -1 114.42 90.80 54.80 40 <
1 -1 0 765.24 1085.30 94.20 40 o
-1 1 0 1075.40 1062.30 91.80 40 o
-2 2 0 2700.00 3185.10 98.20 40 o
-3 3 0 359.50 201.80 58.00 40 o
-4 4 0 841.85 675.50 64.10 40 o
1 -3 2 1882.80 1793.10 80.20 40 o
0 -2 2 1177.00 1145.80 74.90 40 o
-5 3 2 3146.40 3071.00 95.50 40 o
-6 4 2 120.32 58.20 54.30 40 <
0 -4 4 168.46 119.50 54.40 40 <
-1 -3 4 20.32 51.70 54.30 40 <
-8 4 4 1179.70 853.70 69.00 40 o
-2 -4 6 36.74 12.80 53.40 40 <
-7 1 7 34.14 50.20 61.20 40 <
-8 2 7 1282.90 1252.60 75.30 40 o
-9 3 7 125.67 69.20 56.40 40 <
-4 -4 8 1852.90 1302.30 72.90 40 o
-6 -2 9 63.81 75.70 56.50 40 <
-7 -1 9 15.43 25.40 56.90 40 <
-8 0 9 580.40 609.60 67.60 40 o
-9 1 9 1434.40 1350.80 77.20 40 o
-10 2 9 156.56 176.90 59.20 40 <
-11 3 9 482.47 469.90 63.20 40 o
-12 4 9 96.78 79.00 55.30 40 <
-6 -4 11 61.80 55.60 54.60 40 <
-7 -3 11 92.01 97.20 54.90 40 <
-8 -2 11 1209.30 1160.60 72.90 40 o
-12 2 11 40.69 15.10 55.90 40 <
-13 3 11 140.21 117.50 56.00 40 <
-9 -3 13 40.47 33.00 53.10 40 <
-15 3 13 41.67 -32.50 55.40 40 <
-11 -3 15 76.91 11.80 53.40 40 <
-14 0 16 1820.70 1661.60 78.90 40 o
-15 1 16 660.49 530.00 63.80 40 o
-16 2 16 20.88 -14.30 55.00 40 <
-14 -2 18 288.65 278.70 57.90 40 o
-15 -1 18 30.58 12.20 53.50 40 <
-16 0 18 4.79 38.40 53.30 40 <
-17 1 18 268.05 179.60 58.30 40 o
-18 2 18 292.78 132.30 57.00 40 <
-17 -1 20 189.84 142.30 55.50 40 <
-18 0 20 17.24 34.50 52.80 40 <
17 -1 -20 276.79 195.80 56.30 41 o
16 0 -20 615.57 502.50 61.60 41 o
15 1 -20 83.52 86.80 52.70 41 <
16 -2 -17 80.06 11.40 52.90 41 <
15 -1 -17 25.52 22.70 53.80 41 <
14 0 -17 103.62 111.70 55.40 41 <
13 1 -17 140.06 165.40 55.30 41 <
12 2 -17 374.59 315.30 58.00 41 o
15 -3 -15 208.36 173.90 57.30 41 o
14 -2 -15 14.68 41.70 54.30 41 <
10 2 -15 233.19 203.00 57.30 41 o
9 3 -15 16.79 -18.40 53.70 41 <
12 -2 -12 1428.60 988.10 69.40 41 o
11 -1 -12 2953.90 3250.70 97.60 41 o
10 0 -12 615.89 475.70 64.00 41 o
9 1 -12 1124.00 1029.20 72.60 41 o
8 2 -12 915.14 801.80 68.00 41 o
7 3 -12 126.86 126.40 54.80 41 <
12 -4 -10 35.29 12.20 53.60 41 <
11 -3 -10 137.56 123.30 55.10 41 <
10 -2 -10 452.10 337.00 60.90 41 o
6 2 -10 1158.90 444.10 62.10 41 o
5 3 -10 24.40 4.70 53.60 41 <
4 4 -10 120.19 -1.90 53.90 41 <
10 -4 -8 579.55 481.20 60.90 41 o
2 4 -8 103.84 77.10 54.90 41 <
7 -3 -5 480.19 627.60 63.30 41 o
6 -2 -5 1486.70 2106.90 86.30 41 o
2 2 -5 35.03 16.30 58.60 41 <
1 3 -5 339.02 346.20 60.60 41 o
0 4 -5 98.99 72.50 55.40 41 <
6 -4 -3 13.81 13.30 53.40 41 <
5 -3 -3 1174.30 1111.60 71.10 41 o
-2 4 -3 111.48 118.30 54.80 41 <
4 -4 -1 252.67 132.10 54.30 41 <
2 -2 0 4702.30 5365.00 119.70 41 o
1 -1 0 679.27 1304.80 96.30 41 o
-1 1 0 922.19 1111.50 94.00 41 o
-2 2 0 3228.70 3283.50 100.20 41 o
-3 3 0 436.36 302.20 60.00 41 o
2 -4 2 129.87 167.00 54.90 41 o
1 -3 2 1883.50 1632.50 80.00 41 o
0 -2 2 2029.70 1640.80 81.70 41 o
-5 3 2 2883.90 2927.10 95.00 41 o
-6 4 2 122.45 56.80 54.10 41 <
0 -4 4 206.97 118.00 56.00 41 <
-8 4 4 1497.70 1171.10 73.00 41 o
-4 -2 7 41.61 48.80 57.30 41 <
-5 -1 7 568.09 463.80 68.00 41 o
-6 0 7 171.02 320.20 69.20 41 o
-7 1 7 47.79 50.80 60.90 41 <
-8 2 7 1106.70 1303.10 77.30 41 o
-9 3 7 87.47 61.80 55.90 41 <
-4 -4 9 4.93 27.50 53.00 41 <
-5 -3 9 95.50 153.10 56.10 41 <
-6 -2 9 58.16 121.20 57.20 41 <
-10 2 9 264.46 194.20 59.90 41 o
-11 3 9 582.98 475.20 63.90 41 o
-12 4 9 74.57 53.70 56.00 41 <
-6 -4 11 58.75 55.70 54.50 41 <
-7 -3 11 194.80 121.10 55.80 41 <
-13 3 11 148.87 113.30 56.70 41 <
-10 -2 14 283.89 60.00 55.00 41 <
-11 -1 14 1942.60 1625.80 80.20 41 o
-12 0 14 182.95 89.40 56.10 41 <
-13 1 14 1028.60 962.80 70.00 41 o
-14 2 14 17.36 -11.90 53.60 41 <
-11 -3 16 72.14 -7.80 53.20 41 <
-12 -2 16 362.43 304.00 59.00 41 o
-13 -1 16 26.44 47.70 54.20 41 <
-14 0 16 1537.90 1501.70 76.60 41 o
-15 1 16 672.78 424.70 61.60 41 o
-16 2 16 15.99 -7.10 54.30 41 <
-14 -2 18 314.34 270.20 57.60 41 o
-15 -1 18 62.00 5.30 53.20 41 <
-16 0 18 13.51 2.70 53.40 41 <
-17 1 18 371.17 324.80 59.80 41 o
-18 2 18 316.84 137.20 57.50 41 <
17 -1 -20 208.75 -3.80 53.50 42 <
16 0 -20 476.80 406.80 59.50 42 o
15 1 -20 62.13 102.10 53.80 42 <
16 -2 -18 24.21 4.70 53.70 42 <
15 -1 -18 51.15 37.90 53.40 42 <
14 0 -18 706.29 558.70 61.80 42 o
13 1 -18 1066.70 1020.20 69.60 42 o
12 2 -18 438.13 480.70 60.80 42 o
15 -3 -15 152.15 -57.90 54.90 42 <
14 -2 -15 9.26 14.80 53.30 42 <
13 -1 -15 256.79 245.60 57.50 42 o
12 0 -15 280.58 282.60 58.20 42 o
11 1 -15 305.39 247.90 58.30 42 o
10 2 -15 114.82 92.60 55.50 42 <
9 3 -15 16.81 50.10 52.70 42 <
13 -3 -13 67.39 79.50 55.40 42 <
12 -2 -13 15.39 1.60 53.90 42 <
7 3 -13 271.69 331.10 58.80 42 o
11 -3 -10 270.44 244.50 57.90 42 o
10 -2 -10 407.96 318.10 60.50 42 o
9 -1 -10 6298.30 7184.20 132.00 42 o
8 0 -10 1043.10 966.90 72.50 42 o
7 1 -10 1637.60 1817.40 82.10 42 o
6 2 -10 430.68 301.40 60.90 42 o
5 3 -10 52.26 -17.00 53.90 42 <
10 -4 -8 744.44 450.50 61.20 42 o
9 -3 -8 50.69 -10.40 53.70 42 <
3 3 -8 54.77 131.80 55.20 42 <
2 4 -8 153.35 64.00 55.10 42 <
7 -3 -5 601.09 588.10 62.80 42 o
6 -2 -5 2232.60 1964.70 84.10 42 o
5 -1 -5 313.85 385.90 71.10 42 o
4 0 -5 358.30 434.70 81.20 42 o
3 1 -5 14125.00 12836.70 171.70 42 o
2 2 -5 58.84 64.20 58.10 42 <
1 3 -5 374.27 246.60 59.40 42 o
6 -4 -3 17.15 31.90 53.40 42 <
5 -3 -3 893.05 1056.10 70.40 42 o
-1 3 -3 564.37 670.30 66.20 42 o
-2 4 -3 136.47 126.50 56.00 42 <
2 -2 0 4296.40 4287.60 109.50 42 o
1 -1 0 632.98 1113.80 93.50 42 o
-1 1 0 786.99 994.60 92.60 42 o
-2 2 0 3643.10 3513.20 101.80 42 o
2 -4 2 124.31 54.60 54.80 42 <
1 -3 2 1700.70 1472.20 76.20 42 o
-5 3 2 2688.60 2711.20 92.70 42 o
-6 4 2 107.54 35.50 55.00 42 <
0 -4 4 160.22 73.20 54.70 42 <
-8 4 4 1360.30 946.50 69.30 42 o
-2 -4 7 38.38 61.90 53.60 42 <
-3 -3 7 252.20 240.20 59.10 42 o
-4 -2 7 29.67 -14.50 57.40 42 <
-8 2 7 1092.20 1087.50 73.60 42 o
-9 3 7 101.85 91.10 57.20 42 <
-10 4 7 87.21 3.00 54.50 42 <
-4 -4 9 9.00 -18.30 53.30 42 <
-5 -3 9 125.25 89.20 55.00 42 <
-11 3 9 713.11 543.90 65.70 42 o
-12 4 9 98.28 100.70 55.10 42 <
-6 -4 11 80.25 40.20 54.30 42 <
-7 -3 12 167.52 108.40 54.40 42 <
-8 -2 12 1067.30 1041.30 71.00 42 o
-9 -1 12 926.21 993.20 70.50 42 o
-10 0 12 523.77 426.70 63.40 42 o
-11 1 12 2355.80 2588.20 91.50 42 o
-12 2 12 808.00 555.50 64.30 42 o
-9 -3 14 706.19 748.80 64.40 42 o
-10 -2 14 132.25 112.70 53.60 42 <
-11 -1 14 1869.30 1411.00 76.30 42 o
-12 0 14 207.23 113.40 56.20 42 <
-13 1 14 985.52 984.90 69.90 42 o
-14 2 14 54.74 -25.60 54.20 42 <
-15 3 14 383.05 262.40 58.60 42 o
-11 -3 16 73.52 4.00 52.30 42 <
-14 -2 19 42.95 0.80 53.10 42 <
-15 -1 19 73.35 37.60 54.50 42 <
-16 0 19 19.41 -2.10 52.80 42 <
-17 1 19 82.21 33.10 54.30 42 <
16 0 -21 59.22 -2.40 53.80 43 <
16 -2 -18 13.72 50.60 52.90 43 <
15 -1 -18 53.01 29.10 54.20 43 <
14 0 -18 462.71 391.60 59.80 43 o
13 1 -18 613.33 738.30 65.50 43 o
12 2 -18 399.69 448.80 60.00 43 o
14 -2 -16 1141.50 1077.00 70.80 43 o
10 2 -16 197.99 159.80 55.80 43 <
9 3 -16 22.86 4.00 52.30 43 <
13 -3 -13 61.49 60.90 55.70 43 <
12 -2 -13 6.81 17.60 54.20 43 <
11 -1 -13 462.55 408.50 62.20 43 o
10 0 -13 1107.10 1031.10 72.90 43 o
9 1 -13 174.89 283.80 59.30 43 o
8 2 -13 193.81 186.80 56.20 43 o
7 3 -13 243.58 310.40 57.80 43 o
4 4 -11 211.71 232.70 57.20 43 o
9 -1 -10 8403.20 8887.70 144.20 43 o
8 0 -10 1181.80 1172.20 74.10 43 o
7 1 -10 2542.50 2227.80 86.70 43 o
10 -4 -8 366.48 375.30 59.00 43 o
9 -3 -8 18.04 -23.10 54.10 43 <
8 -2 -8 4172.30 4522.00 109.80 43 o
4 2 -8 13540.00 13174.90 172.10 43 o
3 3 -8 26.12 85.80 54.60 43 <
2 4 -8 58.44 84.80 54.60 43 <
8 -4 -6 280.74 209.80 56.50 43 o
0 4 -6 390.66 412.70 61.40 43 o
6 -2 -5 1732.50 2061.60 85.50 43 o
5 -1 -5 568.57 429.00 71.10 43 o
4 0 -5 423.87 447.80 81.00 43 o
3 1 -5 14313.00 11461.00 163.60 43 o
2 2 -5 85.26 114.60 59.20 43 <
6 -4 -3 15.41 3.40 52.70 43 <
5 -3 -3 859.77 942.30 69.60 43 o
-1 3 -3 418.97 679.50 65.70 43 o
-2 4 -3 42.40 141.20 55.70 43 <
-4 4 -1 115.06 100.40 56.00 43 <
2 -2 0 2782.20 3308.90 99.80 43 o
1 -1 0 613.03 1069.40 92.70 43 o
-1 1 0 676.69 1261.20 95.00 43 o
-2 2 0 3851.60 4066.00 107.90 43 o
2 -4 2 120.11 125.10 55.80 43 <
1 -3 2 1908.80 1885.10 82.40 43 o
-5 3 2 3056.90 2866.60 94.50 43 o
-6 4 2 71.72 4.00 54.20 43 <
-8 4 4 1304.10 1063.80 71.20 43 o
-2 -2 5 70.93 91.80 58.00 43 <
-3 -1 5 13271.00 12631.30 171.10 43 o
-4 0 5 323.67 492.70 81.70 43 o
-5 1 5 566.05 471.50 71.70 43 o
-6 2 5 2250.80 2077.20 86.40 43 o
-2 -4 7 53.50 36.70 54.00 43 <
-3 -3 7 197.25 208.00 57.50 43 o
-8 2 7 1148.60 1104.30 74.60 43 o
-9 3 7 89.68 70.20 56.40 43 <
-10 4 7 72.25 32.90 55.20 43 <
-4 -4 9 7.81 12.40 52.90 43 <
-12 4 9 66.99 75.60 55.00 43 <
-7 -1 10 2231.40 2091.50 84.80 43 o
-8 0 10 1182.10 972.50 72.50 43 o
-9 1 10 9283.90 9145.90 146.80 43 o
-7 -3 12 105.55 45.70 54.30 43 <
-8 -2 12 786.12 796.40 67.60 43 o
-9 -1 12 1116.70 1060.80 72.60 43 o
-10 0 12 566.96 432.50 62.50 43 o
-11 1 12 2010.40 2228.80 88.90 43 o
-12 2 12 777.44 634.30 65.70 43 o
-13 3 12 717.05 668.70 65.10 43 o
-9 -3 14 1126.30 933.40 67.90 43 o
-15 3 14 516.75 373.10 61.30 43 o
-12 -2 17 175.49 254.30 57.10 43 o
-13 -1 17 92.37 109.30 54.90 43 <
-14 0 17 83.78 61.20 54.50 43 <
-15 1 17 79.78 -19.90 53.50 43 <
-16 2 17 68.45 67.50 55.30 43 <
-14 -2 19 24.63 -12.50 54.00 43 <
-15 -1 19 86.44 56.20 54.20 43 <
-16 0 19 19.81 2.80 53.20 43 <
-17 1 19 54.30 7.10 54.10 43 <
15 -1 -19 64.07 87.50 53.90 44 <
14 0 -19 16.94 -3.90 53.80 44 <
13 1 -19 84.45 136.90 54.80 44 <
12 2 -19 119.37 138.00 54.50 44 <
14 -2 -16 724.30 715.90 65.10 44 o
13 -1 -16 16.62 35.80 53.80 44 <
12 0 -16 591.83 620.70 64.50 44 o
11 1 -16 124.02 95.80 54.70 44 <
10 2 -16 138.56 193.90 55.90 44 o
7 3 -14 9.31 -28.90 53.20 44 <
13 -3 -13 116.37 -77.80 55.80 44 <
12 -2 -13 10.39 30.40 53.10 44 <
11 -1 -13 320.16 326.50 61.00 44 o
10 0 -13 1155.70 1172.00 73.50 44 o
11 -3 -11 167.35 205.70 56.60 44 o
6 2 -11 326.18 513.70 63.00 44 o
5 3 -11 375.45 350.70 59.00 44 o
4 4 -11 164.67 227.00 57.90 44 o
2 4 -9 38.78 46.70 54.30 44 <
10 -4 -8 699.13 564.40 61.50 44 o
9 -3 -8 75.48 48.30 54.00 44 <
8 -2 -8 3672.40 3557.60 100.60 44 o
7 -1 -8 1869.40 1545.50 80.20 44 o
6 0 -8 698.06 805.90 73.30 44 o
5 1 -8 245.07 543.40 68.60 44 o
4 2 -8 12357.00 11558.20 162.00 44 o
8 -4 -6 409.80 221.80 56.70 44 o
1 3 -6 4402.10 4656.90 111.00 44 o
0 4 -6 423.41 479.30 62.00 44 o
6 -4 -3 20.21 39.30 53.80 44 <
5 -3 -3 1185.70 1106.30 71.60 44 o
0 2 -3 1354.80 1466.80 78.70 44 o
-1 3 -3 279.03 476.50 63.10 44 o
-4 4 -1 59.91 91.70 55.00 44 <
4 -4 0 882.80 890.50 66.90 44 o
3 -3 0 621.53 353.20 60.50 44 o
2 -2 0 3233.20 3264.50 99.20 44 o
1 -1 0 696.95 1095.80 94.20 44 o
-1 1 0 684.41 1278.10 96.40 44 o
2 -4 2 122.20 112.60 55.60 44 <
-5 3 2 2759.30 2892.00 94.80 44 o
-6 4 2 171.58 54.60 54.80 44 <
-8 4 4 1144.20 811.70 68.30 44 o
0 -4 5 172.48 131.80 55.40 44 <
-1 -3 5 329.14 352.20 60.40 44 o
-2 -2 5 45.81 72.80 59.50 44 <
-3 -1 5 18053.00 11816.90 166.80 44 o
-5 1 5 367.48 341.90 70.60 44 o
-6 2 5 1921.60 1866.50 83.60 44 o
-2 -4 7 59.72 13.90 53.00 44 <
-9 3 7 113.83 157.20 57.80 44 <
-10 4 7 21.58 14.90 54.90 44 <
-12 4 9 138.42 120.40 56.30 44 <
-4 -4 10 91.67 49.40 53.50 44 <
-5 -3 10 40.37 31.90 53.40 44 <
-6 -2 10 701.09 374.50 61.70 44 o
-7 -1 10 2081.00 1813.90 83.30 44 o
-8 0 10 868.35 886.50 71.40 44 o
-9 1 10 8605.50 8005.10 139.50 44 o
-10 2 10 357.10 321.40 61.10 44 o
-13 3 12 683.65 552.20 65.10 44 o
-9 -3 15 6.18 -17.30 53.20 44 <
-10 -2 15 124.73 115.00 54.30 44 <
-11 -1 15 341.20 280.50 58.40 44 o
-12 0 15 185.41 342.40 59.90 44 o
-13 1 15 263.95 244.50 58.10 44 o
-14 2 15 34.70 36.20 53.90 44 <
-16 2 17 142.35 71.70 54.70 44 <
-15 -1 20 88.28 69.90 53.90 44 <
-16 0 20 543.93 430.50 60.80 44 o
-17 1 20 291.56 176.50 57.10 44 o
15 -1 -19 99.06 93.10 53.50 45 <
14 0 -19 5.25 19.50 52.90 45 <
13 1 -19 108.38 90.90 54.20 45 <
10 2 -17 10.06 1.80 53.30 45 <
14 -2 -16 925.78 896.60 66.80 45 o
13 -1 -16 24.61 23.90 53.20 45 <
12 0 -16 1122.80 936.80 68.30 45 o
13 -3 -14 590.68 487.40 60.20 45 o
9 1 -14 3121.60 3225.50 96.80 45 o
8 2 -14 200.88 187.80 56.00 45 o
7 3 -14 10.18 -9.60 52.60 45 <
11 -3 -11 82.53 131.10 55.90 45 <
10 -2 -11 22.19 54.00 55.10 45 <
9 -1 -11 100.06 117.30 58.40 45 <
8 0 -11 3947.90 3602.30 100.60 45 o
7 1 -11 408.90 520.60 64.70 45 o
6 2 -11 367.75 441.00 62.50 45 o
3 3 -9 99.97 136.70 55.60 45 <
2 4 -9 46.65 41.00 53.20 45 <
10 -4 -8 494.19 368.70 59.30 45 o
9 -3 -8 28.70 3.50 54.30 45 <
8 -2 -8 3329.00 3180.10 97.30 45 o
7 -1 -8 1451.30 1365.40 77.20 45 o
6 0 -8 517.07 647.80 71.80 45 o
5 1 -8 497.94 870.80 71.70 45 o
1 3 -6 3763.20 3622.00 100.40 45 o
0 4 -6 736.03 638.80 64.40 45 o
-2 4 -4 199.13 40.70 54.30 45 <
6 -4 -3 18.04 33.00 52.90 45 <
5 -3 -3 1542.10 1054.30 71.20 45 o
0 2 -3 1172.60 1311.20 77.00 45 o
-4 4 -1 59.53 47.40 55.30 45 <
4 -4 0 883.79 661.90 64.40 45 o
3 -3 0 201.20 198.10 58.50 45 o
2 -2 0 2859.40 2868.90 96.80 45 o
1 -1 0 679.34 1120.70 94.80 45 o
-5 3 2 3133.00 3232.50 96.90 45 o
-8 4 4 1173.30 901.00 68.50 45 o
0 -4 5 101.03 89.00 53.80 45 <
-1 -3 5 447.17 344.10 60.70 45 o
-5 1 5 377.48 300.20 70.60 45 o
-6 2 5 2173.40 2050.20 85.10 45 o
-9 3 7 118.13 160.00 56.90 45 <
-10 4 7 41.69 32.00 54.90 45 <
-2 -4 8 102.57 52.20 54.30 45 <
-3 -3 8 27.48 50.30 53.90 45 <
-4 -2 8 11517.00 11479.70 161.60 45 o
-5 -1 8 274.72 659.80 68.90 45 o
-12 4 9 92.93 103.00 55.90 45 <
-4 -4 10 79.66 5.20 53.70 45 <
-9 1 10 9563.20 9481.20 149.10 45 o
-10 2 10 475.34 208.90 59.50 45 o
-11 3 10 168.60 113.80 56.70 45 <
-13 3 12 789.74 547.80 64.50 45 o
-7 -3 13 240.92 114.00 56.00 45 <
-8 -2 13 111.01 109.20 55.10 45 <
-9 -1 13 197.47 222.10 59.00 45 o
-10 0 13 865.44 939.80 71.20 45 o
-11 1 13 438.89 447.70 62.10 45 o
-13 1 15 253.43 232.60 57.70 45 o
-14 2 15 20.78 17.10 54.00 45 <
-15 3 15 192.30 168.00 56.90 45 <
-12 -2 18 378.93 319.90 59.70 45 o
-13 -1 18 753.05 746.50 65.20 45 o
-14 0 18 537.60 472.10 61.10 45 o
-15 1 18 62.80 28.00 54.80 45 <
-16 0 20 630.54 483.10 61.30 45 o
-17 1 20 159.31 120.80 55.20 45 <
15 -1 -20 216.57 211.40 56.20 46 o
14 0 -20 479.34 430.20 60.10 46 o
13 1 -20 201.10 146.00 56.40 46 <
14 -2 -17 74.39 118.80 55.00 46 <
13 -1 -17 130.11 229.80 56.70 46 o
12 0 -17 404.13 479.00 61.40 46 o
11 1 -17 20.10 59.30 54.20 46 <
10 2 -17 8.34 7.80 53.20 46 <
7 3 -15 31.59 -26.90 53.50 46 <
13 -3 -14 329.89 361.00 59.80 46 o
12 -2 -14 159.27 64.00 55.30 46 <
11 -1 -14 1317.90 1458.10 76.50 46 o
10 0 -14 221.97 232.00 59.50 46 o
9 1 -14 2940.80 2977.50 93.50 46 o
5 3 -12 148.41 145.40 55.00 46 <
11 -3 -11 160.49 179.70 56.50 46 o
10 -2 -11 37.37 73.90 55.60 46 <
9 -1 -11 40.50 114.50 57.80 46 <
8 0 -11 3540.00 3771.80 103.00 46 o
2 4 -10 109.72 60.80 54.00 46 <
4 2 -9 41.34 71.60 58.50 46 <
3 3 -9 38.45 83.60 55.30 46 <
9 -3 -8 90.69 42.50 55.10 46 <
8 -2 -8 4388.10 4260.90 106.90 46 o
0 4 -7 36.30 30.50 54.90 46 <
8 -4 -6 368.85 209.50 55.60 46 o
2 2 -6 104.51 97.00 57.60 46 <
1 3 -6 4230.80 3708.10 101.80 46 o
-2 4 -4 207.49 132.40 56.50 46 <
6 -4 -3 37.90 25.20 53.80 46 <
5 -3 -3 1227.10 1070.30 72.80 46 o
1 1 -3 2772.80 1922.40 96.40 46 o
0 2 -3 1445.00 1345.10 76.40 46 o
-3 3 -1 201.74 210.10 60.40 46 o
-4 4 -1 19.10 52.00 55.20 46 <
4 -4 0 581.72 605.00 63.30 46 o
3 -3 0 360.67 254.40 58.60 46 o
2 -2 0 2794.60 3270.20 99.90 46 o
1 -1 0 731.89 1244.70 98.90 46 o
-5 3 2 3144.10 3128.90 97.30 46 o
2 -4 3 113.20 157.90 55.30 46 <
1 -3 3 267.01 364.70 62.30 46 o
0 -2 3 1459.70 1086.40 75.30 46 o
-8 4 4 1268.10 943.70 70.20 46 o
0 -4 5 86.34 97.70 55.20 46 <
-6 2 5 1643.10 1950.30 84.90 46 o
-7 3 5 688.73 449.70 63.60 46 o
-9 3 7 168.34 61.40 55.60 46 <
-10 4 7 15.03 55.10 54.60 46 <
-2 -4 8 55.70 29.00 54.50 46 <
-3 -3 8 37.47 117.80 54.90 46 <
-4 -2 8 11028.00 10397.40 155.40 46 o
-5 -1 8 632.19 746.20 70.50 46 o
-6 0 8 579.26 670.30 70.60 46 o
-7 1 8 1489.40 1451.20 78.80 46 o
-10 2 10 418.30 266.00 61.60 46 o
-11 3 10 117.19 63.90 57.20 46 <
-12 4 10 30.24 7.50 54.50 46 <
-4 -4 11 279.91 261.30 59.00 46 o
-5 -3 11 328.63 440.40 61.10 46 o
-6 -2 11 400.59 478.80 63.70 46 o
-7 -1 11 560.70 464.40 64.80 46 o
-7 -3 13 290.90 119.10 55.70 46 <
-11 1 13 470.28 407.20 61.40 46 o
-12 2 13 8.12 41.90 55.30 46 <
-13 3 13 158.26 127.60 57.50 46 <
-15 3 15 158.58 166.30 57.60 46 <
-9 -3 16 9.16 29.50 52.60 46 <
-10 -2 16 159.77 121.00 56.10 46 <
-11 -1 16 120.21 73.70 54.50 46 <
-12 0 16 856.72 775.10 66.70 46 o
-13 1 16 13.72 31.00 54.70 46 <
-15 1 18 71.75 20.50 54.40 46 <
-16 2 18 19.82 -32.10 54.10 46 <
-12 -2 19 152.54 203.90 55.90 46 o
-16 0 21 43.28 26.20 54.00 46 <
14 0 -21 95.92 60.30 54.00 47 <
13 1 -21 39.74 12.40 53.10 47 <
15 -1 -20 184.14 106.80 55.00 47 <
14 0 -20 568.22 516.40 62.20 47 o
11 1 -18 1344.20 1385.40 74.70 47 o
10 2 -18 49.74 27.70 53.80 47 <
14 -2 -17 71.12 81.10 55.10 47 <
13 -1 -17 215.96 182.10 56.70 47 o
9 1 -15 85.01 156.80 55.70 47 <
8 2 -15 46.15 10.70 53.70 47 <
7 3 -15 18.53 55.00 53.30 47 <
13 -3 -14 577.41 471.10 61.00 47 o
12 -2 -14 158.74 56.20 54.30 47 <
11 -1 -14 2213.00 1952.70 83.00 47 o
6 2 -12 5115.80 5227.70 116.50 47 o
5 3 -12 137.91 122.40 54.60 47 <
11 -3 -11 167.29 146.00 56.50 47 <
10 -2 -11 32.31 86.40 56.00 47 <
2 4 -10 31.81 31.60 52.60 47 <
10 -4 -9 34.82 82.80 54.30 47 <
5 1 -9 2097.40 1486.10 79.40 47 o
4 2 -9 28.82 51.50 56.80 47 <
0 4 -7 89.61 67.80 54.20 47 <
8 -4 -6 284.78 186.40 55.80 47 o
3 1 -6 157.47 198.30 67.40 47 <
2 2 -6 80.24 126.30 58.70 47 <
-2 4 -4 126.21 58.50 55.10 47 <
6 -4 -3 11.42 66.30 54.00 47 <
5 -3 -3 950.41 1151.40 73.30 47 o
1 1 -3 2212.90 1711.30 93.70 47 o
-3 3 -1 324.09 270.00 60.20 47 o
-4 4 -1 54.24 63.90 55.70 47 <
4 -4 0 819.37 605.10 62.90 47 o
3 -3 0 215.03 185.20 58.00 47 o
2 -2 0 3025.30 3204.80 99.00 47 o
-5 3 2 3151.70 3093.00 96.60 47 o
2 -4 3 77.19 110.90 54.70 47 <
1 -3 3 268.37 457.80 61.80 47 o
0 -2 3 1226.60 1163.80 75.30 47 o
-1 -1 3 2509.00 1704.80 95.80 47 o
-8 4 4 1203.40 899.20 69.40 47 o
-6 2 5 1941.60 1811.80 84.80 47 o
-7 3 5 709.37 513.40 63.80 47 o
-10 4 7 24.10 15.90 54.90 47 <
-2 -4 8 180.76 147.50 54.80 47 <
-7 1 8 1633.50 1391.30 79.00 47 o
-8 2 8 3548.20 3491.20 101.70 47 o
-11 3 10 151.04 73.70 56.50 47 <
-12 4 10 34.13 -7.70 54.80 47 <
-4 -4 11 162.61 258.90 57.00 47 o
-5 -3 11 418.70 382.90 58.80 47 o
-6 -2 11 362.63 390.10 61.50 47 o
-7 -1 11 570.91 492.10 64.40 47 o
-8 0 11 2937.10 3400.40 100.60 47 o
-9 1 11 50.83 35.20 57.40 47 <
-12 2 13 69.69 61.90 55.70 47 <
-13 3 13 145.04 164.00 56.90 47 <
-7 -3 14 45.59 38.90 53.50 47 <
-8 -2 14 195.94 179.80 56.10 47 o
-9 -1 14 2972.20 3025.70 94.60 47 o
-9 -3 16 4.18 26.10 52.50 47 <
-12 0 16 924.19 713.20 65.80 47 o
-13 1 16 14.63 64.30 54.10 47 <
-14 2 16 742.74 719.30 66.80 47 o
-12 -2 19 67.19 78.80 54.20 47 <
-13 -1 19 70.30 110.90 54.50 47 <
-14 0 19 3.15 -10.60 52.50 47 <
-15 1 19 91.90 75.30 54.30 47 <
14 0 -21 75.95 67.20 54.60 48 <
13 1 -21 48.46 29.90 53.20 48 <
10 2 -19 21.14 -9.30 53.20 48 <
14 -2 -18 179.70 198.50 55.60 48 o
13 -1 -18 1272.40 1198.70 73.20 48 o
12 0 -18 759.09 943.90 68.10 48 o
11 1 -18 1242.20 1279.90 73.60 48 o
7 3 -16 16.52 56.70 52.60 48 <
13 -3 -15 75.80 58.20 54.50 48 <
12 -2 -15 59.33 134.00 54.70 48 <
11 -1 -15 265.22 346.20 58.80 48 o
10 0 -15 136.63 134.40 56.50 48 <
9 1 -15 56.90 114.50 55.90 48 <
5 3 -13 40.88 62.30 54.10 48 <
11 -3 -12 172.98 301.50 58.70 48 o
10 -2 -12 317.17 409.90 60.90 48 o
9 -1 -12 1341.40 1079.70 71.80 48 o
8 0 -12 2233.60 2492.00 88.80 48 o
7 1 -12 483.33 482.10 64.20 48 o
3 3 -10 509.41 505.40 62.10 48 o
2 4 -10 75.33 -4.90 53.60 48 <
10 -4 -9 20.11 28.10 54.10 48 <
9 -3 -9 111.06 202.50 57.30 48 o
6 0 -9 169.94 323.60 63.80 48 o
5 1 -9 1450.10 1834.00 82.20 48 o
1 3 -7 30.72 45.10 54.50 48 <
0 4 -7 28.31 -3.40 53.90 48 <
8 -4 -6 265.62 148.60 56.10 48 <
7 -3 -6 2313.60 2293.10 86.70 48 o
4 0 -6 189.13 367.00 75.80 48 o
3 1 -6 153.51 507.50 70.90 48 o
-1 3 -4 834.56 733.90 66.80 48 o
-2 4 -4 254.88 140.00 56.50 48 <
6 -4 -3 38.00 56.60 54.60 48 <
5 -3 -3 908.51 1025.90 70.40 48 o
-3 3 -1 207.38 239.00 59.80 48 o
-4 4 -1 80.82 33.10 54.30 48 <
4 -4 0 546.22 477.20 60.80 48 o
3 -3 0 339.19 229.60 59.10 48 o
2 -2 0 5174.60 4973.60 114.80 48 o
-6 4 1 25.49 28.40 53.30 48 <
-5 3 2 2903.30 2883.90 93.90 48 o
2 -4 3 52.63 55.90 53.60 48 <
1 -3 3 251.02 457.90 63.00 48 o
0 -2 3 1619.20 1449.00 79.10 48 o
-1 -1 3 2309.10 1552.50 92.80 48 o
-8 4 4 1262.50 917.40 67.70 48 o
-6 2 5 2204.20 1925.90 84.40 48 o
-7 3 5 386.23 444.20 61.90 48 o
0 -4 6 672.37 803.10 65.50 48 o
-1 -3 6 3259.10 3688.70 101.40 48 o
-2 -2 6 126.45 127.70 58.90 48 <
-3 -1 6 249.09 439.10 71.10 48 o
-10 4 7 36.51 7.20 55.50 48 <
-8 2 8 3198.70 3144.50 99.10 48 o
-2 -4 9 59.63 14.50 54.50 48 <
-3 -3 9 38.56 86.80 54.60 48 <
-4 -2 9 47.33 90.80 57.90 48 <
-11 3 10 179.25 28.50 56.30 48 <
-12 4 10 37.72 -31.40 55.10 48 <
-4 -4 11 345.62 358.70 59.00 48 o
-9 1 11 39.01 68.50 57.20 48 <
-10 2 11 48.88 70.20 56.30 48 <
-13 3 13 87.19 72.70 56.40 48 <
-7 -3 14 21.48 45.00 53.20 48 <
-8 -2 14 271.86 226.50 55.90 48 o
-9 -1 14 3041.90 2721.90 91.30 48 o
-10 0 14 211.97 147.70 57.60 48 <
-11 1 14 1731.70 1306.40 76.50 48 o
-14 2 16 1059.40 809.30 68.20 48 o
-10 -2 17 16.64 41.00 53.10 48 <
-11 -1 17 16.87 50.00 53.10 48 <
-12 0 17 655.68 421.60 60.30 48 o
-15 1 19 110.46 70.80 54.10 48 <
-13 -1 20 357.41 185.20 56.20 48 o
12 0 -19 142.92 131.20 55.40 49 <
11 1 -19 71.16 61.70 54.40 49 <
10 2 -19 17.56 -47.10 53.80 49 <
14 -2 -18 185.26 126.30 55.10 49 <
13 -1 -18 1210.90 1094.30 70.30 49 o
9 1 -16 20.12 5.90 54.60 49 <
8 2 -16 1387.90 1178.00 72.10 49 o
7 3 -16 53.78 82.90 54.10 49 <
13 -3 -15 58.00 63.40 55.50 49 <
12 -2 -15 50.86 75.00 55.40 49 <
11 -1 -15 174.19 208.40 57.70 49 o
6 2 -13 62.58 49.30 53.90 49 <
5 3 -13 41.79 85.50 53.60 49 <
11 -3 -12 259.48 356.20 58.90 49 o
10 -2 -12 230.51 337.50 61.00 49 o
9 -1 -12 887.61 891.80 70.60 49 o
8 0 -12 1741.90 1863.50 82.40 49 o
2 4 -11 37.13 61.50 53.20 49 <
4 2 -10 382.77 251.60 59.40 49 o
3 3 -10 1172.30 885.80 67.60 49 o
10 -4 -9 18.60 11.50 54.50 49 <
9 -3 -9 139.63 263.20 57.50 49 o
8 -2 -9 476.00 304.30 62.80 49 o
7 -1 -9 168.66 162.30 60.80 49 <
6 0 -9 147.65 252.40 63.30 49 o
0 4 -8 407.47 404.30 59.30 49 o
1 3 -7 19.66 30.00 54.70 49 <
8 -4 -6 160.27 155.40 55.40 49 <
7 -3 -6 2129.20 2143.10 85.20 49 o
6 -2 -6 7907.30 9047.50 144.80 49 o
5 -1 -6 39224.00 39538.20 285.90 49 o
4 0 -6 175.69 312.10 75.00 49 o
-2 4 -5 159.93 147.60 56.10 49 <
-1 3 -4 781.78 692.00 66.00 49 o
6 -4 -3 15.86 13.20 53.70 49 <
5 -3 -3 845.13 1062.30 71.30 49 o
2 0 -3 4152.90 2126.50 120.70 49 o
-4 4 -2 107.78 4.60 54.00 49 <
-3 3 -1 343.61 313.00 59.20 49 o
4 -4 0 779.85 649.40 62.70 49 o
3 -3 0 257.15 180.50 58.60 49 o
-6 4 1 20.63 10.70 53.80 49 <
-5 3 2 3151.40 3201.30 97.10 49 o
2 -4 3 39.89 61.20 54.40 49 <
1 -3 3 327.50 517.80 62.50 49 o
0 -2 3 2155.80 993.20 73.30 49 o
-2 0 3 3938.30 2537.60 120.20 49 o
-8 4 4 880.12 822.10 67.30 49 o
-7 3 5 498.28 463.20 63.80 49 o
0 -4 6 601.00 722.20 64.30 49 o
-1 -3 6 4243.00 4182.60 105.90 49 o
-2 -2 6 81.14 107.70 58.70 49 <
-3 -1 6 238.82 313.20 70.60 49 o
-4 0 6 165.57 371.60 73.00 49 o
-10 4 7 37.28 50.60 54.50 49 <
-8 2 8 3062.80 3045.50 97.20 49 o
-9 3 8 46.59 27.00 54.40 49 <
-2 -4 9 25.00 21.20 53.90 49 <
-3 -3 9 19.69 70.80 54.10 49 <
-4 -2 9 57.29 65.30 57.60 49 <
-5 -1 9 1294.70 1886.20 83.30 49 o
-6 0 9 129.02 231.40 61.40 49 o
-12 4 10 30.23 -13.90 55.40 49 <
-10 2 11 19.68 60.20 56.20 49 <
-11 3 11 242.61 146.30 58.90 49 <
-5 -3 12 309.31 314.70 58.20 49 o
-6 -2 12 6357.10 6196.70 123.70 49 o
-7 -1 12 445.88 583.20 65.30 49 o
-13 3 13 150.97 96.00 55.80 49 <
-11 1 14 1412.80 1436.60 76.30 49 o
-12 2 14 136.34 81.50 55.40 49 <
-7 -3 15 19.93 46.20 52.30 49 <
-8 -2 15 26.48 37.80 53.90 49 <
-9 -1 15 72.48 122.50 56.00 49 <
-12 0 17 544.18 373.90 60.30 49 o
-13 1 17 144.38 111.70 55.10 49 <
-14 2 17 75.41 73.60 55.00 49 <
-10 -2 18 45.44 47.80 52.10 49 <
-13 -1 20 215.48 124.60 55.80 49 <
-14 0 20 387.11 286.30 59.30 49 o
-15 1 20 104.21 61.40 53.80 49 <
11 1 -20 43.88 64.20 54.40 50 <
14 -2 -19 19.41 0.70 53.40 50 <
13 -1 -19 105.53 85.30 54.50 50 <
12 0 -19 124.73 64.70 54.60 50 <
8 2 -17 20.44 28.40 53.30 50 <
13 -3 -16 40.20 55.80 54.10 50 <
12 -2 -16 519.04 524.00 62.20 50 o
11 -1 -16 227.46 144.80 55.60 50 <
10 0 -16 337.53 364.40 60.00 50 o
9 1 -16 39.87 58.80 54.00 50 <
5 3 -14 553.96 750.20 64.70 50 o
8 0 -13 275.59 312.90 62.50 50 o
7 1 -13 95.93 60.10 56.70 50 <
11 -3 -12 325.81 337.80 60.10 50 o
10 -2 -12 222.67 292.60 59.90 50 o
3 3 -11 27.05 49.10 54.60 50 <
2 4 -11 55.72 -32.60 54.00 50 <
5 1 -10 96.13 211.90 59.60 50 o
4 2 -10 213.00 170.70 57.80 50 <
10 -4 -9 29.41 3.80 53.00 50 <
9 -3 -9 163.01 191.30 56.20 50 o
8 -2 -9 309.51 327.30 63.30 50 o
7 -1 -9 216.79 187.50 60.50 50 o
0 4 -8 428.41 405.00 60.30 50 o
2 2 -7 52.26 54.80 57.40 50 <
8 -4 -6 305.48 184.10 56.70 50 o
7 -3 -6 2239.50 1953.00 82.10 50 o
6 -2 -6 5974.00 7105.10 131.60 50 o
5 -1 -6 32921.00 32893.50 263.10 50 o
-2 4 -5 126.79 88.90 56.00 50 <
0 2 -4 1481.30 1247.80 76.20 50 o
-1 3 -4 1323.60 866.90 68.50 50 o
6 -4 -3 26.92 49.40 53.60 50 <
5 -3 -3 980.15 1098.90 71.30 50 o
4 -2 -3 1610.70 1093.70 73.20 50 o
3 -1 -3 1314.20 1039.60 86.60 50 o
-4 4 -2 116.61 37.20 54.20 50 <
-3 3 -1 283.41 267.50 60.10 50 o
4 -4 0 599.15 556.80 61.80 50 o
-6 4 1 17.63 -0.50 54.10 50 <
-5 3 2 2849.20 2516.40 90.50 50 o
2 -4 3 96.16 47.00 53.20 50 <
-8 4 4 1322.70 971.70 70.40 50 o
-7 3 5 434.28 410.50 62.20 50 o
-4 0 6 226.83 325.30 73.30 50 o
-5 1 6 46419.00 46862.00 310.20 50 o
0 -4 7 52.35 47.20 54.00 50 <
-10 4 7 50.74 19.90 55.10 50 <
-9 3 8 55.72 15.10 56.00 50 <
-6 0 9 69.66 171.00 62.00 50 <
-7 1 9 261.79 141.00 59.70 50 <
-2 -4 10 121.92 65.90 53.90 50 <
-12 4 10 44.63 7.70 55.30 50 <
-11 3 11 262.88 185.00 58.70 50 o
-8 0 12 1482.60 1656.60 81.10 50 o
-9 1 12 1124.10 1124.30 73.40 50 o
-12 2 14 238.33 75.40 55.70 50 <
-13 3 14 373.66 349.70 60.70 50 o
-7 -3 15 16.17 0.90 52.80 50 <
-8 -2 15 41.18 -48.20 54.20 50 <
-9 -1 15 54.77 131.20 55.60 50 <
-10 0 15 140.90 142.20 55.70 50 <
-11 1 15 325.42 224.90 58.10 50 o
-14 2 17 32.90 45.20 54.30 50 <
-10 -2 18 21.62 -27.50 53.60 50 <
-11 -1 18 1062.40 1102.90 70.20 50 o
-12 0 18 614.82 756.90 65.70 50 o
-13 1 18 1369.50 1259.10 72.80 50 o
-15 1 20 149.07 43.60 54.70 50 <
-13 -1 21 36.90 42.00 53.10 50 <
-14 0 21 54.10 39.90 53.50 50 <
11 1 -21 87.76 145.60 54.20 51 <
13 -1 -20 189.99 180.90 55.70 51 o
12 0 -20 93.91 -3.40 53.80 51 <
11 1 -20 110.94 70.10 53.30 51 <
14 -2 -19 57.83 27.00 52.70 51 <
8 2 -18 43.67 14.40 52.90 51 <
10 0 -17 32.93 40.90 53.60 51 <
9 1 -17 162.76 212.90 56.30 51 o
8 2 -17 13.14 -4.20 53.00 51 <
13 -3 -16 21.89 5.20 53.70 51 <
12 -2 -16 491.21 430.60 60.30 51 o
11 -1 -16 216.96 104.20 55.10 51 <
5 3 -15 84.86 100.50 54.10 51 <
6 2 -14 151.98 151.10 56.10 51 <
11 -3 -13 84.42 104.30 54.80 51 <
10 -2 -13 481.53 468.80 62.00 51 o
9 -1 -13 262.35 221.40 59.80 51 o
8 0 -13 253.60 233.90 61.30 51 o
11 -3 -12 715.48 696.90 64.80 51 o
4 2 -11 1777.40 1670.20 79.90 51 o
3 3 -11 16.36 -15.40 53.50 51 <
6 0 -10 697.83 821.10 70.20 51 o
5 1 -10 110.86 178.40 59.10 51 o
10 -4 -9 34.64 36.20 54.00 51 <
9 -3 -9 256.64 207.10 57.20 51 o
8 -2 -9 437.01 388.10 63.00 51 o
0 4 -9 28.21 49.90 53.60 51 <
1 3 -8 183.83 139.60 56.20 51 <
3 1 -7 2238.50 2071.30 88.50 51 o
8 -4 -6 295.35 133.20 55.40 51 <
7 -3 -6 2559.30 2425.40 87.30 51 o
6 -2 -6 5568.30 6478.20 126.40 51 o
5 -1 -6 43019.00 41656.90 292.90 51 o
-1 3 -5 405.13 422.40 61.00 51 o
-2 4 -5 146.99 191.80 56.30 51 o
0 2 -4 675.53 771.20 69.20 51 o
6 -4 -3 26.75 48.00 53.20 51 <
3 -1 -3 1294.60 850.30 85.40 51 o
-4 4 -2 162.10 46.60 54.60 51 <
-2 2 -1 1531.30 1497.60 79.50 51 o
4 -4 1 77.31 46.40 53.50 51 <
-6 4 1 44.43 58.70 54.40 51 <
-5 3 2 3611.00 3315.10 98.40 51 o
2 -4 4 146.55 98.30 54.50 51 <
1 -3 4 746.88 859.40 68.40 51 o
-8 4 4 856.47 787.90 67.40 51 o
-7 3 5 365.12 362.80 62.00 51 o
-5 1 6 36144.00 36168.10 275.80 51 o
0 -4 7 19.52 26.90 53.30 51 <
-1 -3 7 15.35 28.80 53.70 51 <
-2 -2 7 56.30 84.30 58.10 51 <
-10 4 7 34.63 -2.20 54.80 51 <
-9 3 8 66.68 74.40 55.90 51 <
-7 1 9 96.22 143.90 60.40 51 <
-2 -4 10 40.08 28.10 54.20 51 <
-3 -3 10 316.47 347.00 59.70 51 o
-4 -2 10 174.87 145.40 58.70 51 <
-12 4 10 10.43 49.30 54.00 51 <
-11 3 11 261.58 162.40 57.00 51 <
-9 1 12 797.65 881.30 70.30 51 o
-5 -3 13 18.51 6.60 54.00 51 <
-6 -2 13 18.34 36.20 54.20 51 <
-7 -1 13 122.76 76.50 57.10 51 <
-13 3 14 508.44 442.20 62.00 51 o
-11 1 15 292.90 220.00 57.80 51 o
-12 2 15 105.89 88.00 55.50 51 <
-7 -3 16 27.68 12.40 53.10 51 <
-8 -2 16 1297.10 1325.20 74.50 51 o
-9 -1 16 30.25 78.70 54.80 51 <
-12 0 18 921.15 914.20 68.20 51 o
-13 1 18 938.58 692.60 65.60 51 o
-14 2 18 261.72 163.60 58.20 51 <
-10 -2 19 14.12 29.00 52.70 51 <
-11 -1 19 74.02 90.50 54.00 51 <
-14 0 21 68.88 53.30 53.80 51 <
13 -1 -21 18.89 -28.20 52.60 52 <
12 0 -21 38.86 54.70 52.50 52 <
11 1 -21 41.83 -44.70 54.20 52 <
13 -1 -20 252.02 193.40 55.70 52 o
9 1 -18 11.39 17.50 52.60 52 <
8 2 -18 34.63 34.40 53.30 52 <
12 -2 -17 254.11 313.40 59.30 52 o
11 -1 -17 30.17 75.30 54.20 52 <
10 0 -17 27.89 18.20 53.90 52 <
13 -3 -16 28.27 -57.50 55.10 52 <
6 2 -15 17.92 24.80 53.40 52 <
5 3 -15 60.53 80.30 54.40 52 <
8 0 -14 379.07 372.20 60.90 52 o
7 1 -14 10.80 51.10 54.80 52 <
11 -3 -13 49.71 39.50 55.00 52 <
10 -2 -13 378.84 487.80 62.10 52 o
9 -1 -13 290.01 256.50 59.90 52 o
3 3 -12 341.17 231.00 56.20 52 o
4 2 -11 1470.00 1740.10 79.60 52 o
10 -4 -10 134.12 75.80 54.40 52 <
7 -1 -10 2036.00 2064.50 85.70 52 o
6 0 -10 576.56 696.30 68.00 52 o
10 -4 -9 64.29 -30.40 55.00 52 <
0 4 -9 21.56 24.30 53.30 52 <
1 3 -8 379.80 209.20 56.60 52 o
3 1 -7 2549.20 2034.80 89.30 52 o
8 -4 -6 324.98 185.00 57.20 52 o
7 -3 -6 2259.70 2563.40 89.80 52 o
6 -2 -6 5913.70 6940.30 129.30 52 o
-2 4 -6 274.47 162.20 56.10 52 <
-1 3 -5 270.59 301.20 59.70 52 o
-2 4 -5 200.95 116.40 56.40 52 <
0 2 -4 1533.90 1422.50 77.70 52 o
6 -4 -3 36.15 27.70 53.90 52 <
5 -3 -3 906.63 1176.20 74.10 52 o
4 -2 -3 1158.80 1083.50 73.60 52 o
3 -1 -3 918.18 814.80 83.70 52 o
-4 4 -2 151.90 52.00 55.00 52 <
-2 2 -1 1515.30 1379.80 78.90 52 o
4 -4 1 63.51 96.90 54.40 52 <
-6 4 1 14.45 19.00 54.40 52 <
-5 3 2 2567.00 2833.70 93.80 52 o
-3 1 3 1212.70 977.00 85.00 52 o
2 -4 4 123.44 56.50 54.90 52 <
1 -3 4 787.38 714.60 67.50 52 o
0 -2 4 1939.30 1372.10 78.20 52 o
-8 4 4 1082.60 779.20 66.50 52 o
-7 3 5 484.52 371.70 62.60 52 o
-5 1 6 35841.00 34517.00 269.90 52 o
0 -4 7 33.90 28.30 53.50 52 <
-1 -3 7 18.04 15.30 53.40 52 <
-2 -2 7 60.82 119.30 58.60 52 <
-3 -1 7 2771.40 1990.40 87.40 52 o
-9 3 8 77.45 63.20 56.30 52 <
-10 4 8 402.95 479.00 63.00 52 o
-8 2 9 285.41 334.10 63.80 52 o
-2 -4 10 92.76 113.50 54.00 52 <
-3 -3 10 1180.10 797.10 67.00 52 o
-4 -2 10 365.18 185.00 58.80 52 o
-5 -1 10 103.56 121.50 59.50 52 <
-11 3 11 392.82 230.10 57.60 52 o
-10 2 12 190.00 370.00 61.50 52 o
-5 -3 13 48.05 10.40 54.70 52 <
-6 -2 13 45.37 18.50 54.30 52 <
-7 -1 13 96.18 56.20 56.20 52 <
-8 0 13 257.03 377.10 61.20 52 o
-13 3 14 613.43 502.30 62.50 52 o
-12 2 15 48.27 72.50 55.20 52 <
-13 3 15 73.09 75.00 55.50 52 <
-7 -3 16 33.41 49.10 52.80 52 <
-8 -2 16 1925.20 1808.40 79.70 52 o
-9 -1 16 33.89 50.20 54.40 52 <
-10 0 16 356.46 297.50 58.70 52 o
-14 2 18 226.50 169.90 57.10 52 <
-10 -2 19 24.19 -14.10 52.50 52 <
-11 -1 19 73.53 69.70 54.50 52 <
-12 0 19 100.41 89.70 55.10 52 <
-13 1 19 64.87 59.00 55.00 52 <
10 0 -19 114.13 64.90 54.00 54 <
9 1 -19 239.77 247.40 56.70 54 o
12 -2 -18 406.63 428.50 60.80 54 o
11 -1 -18 1083.90 947.50 67.60 54 o
6 2 -16 171.36 171.40 55.40 54 o
8 0 -15 30.03 74.00 55.40 54 <
7 1 -15 57.88 117.90 54.70 54 <
11 -3 -14 672.84 734.00 64.80 54 o
10 -2 -14 134.82 122.30 54.90 54 <
9 -1 -14 3102.10 2735.30 91.70 54 o
3 3 -13 3.06 -2.10 52.80 54 <
4 2 -12 833.33 676.20 65.10 54 o
6 0 -11 804.76 1222.30 75.80 54 o
10 -4 -10 102.17 42.80 53.90 54 <
9 -3 -10 1378.30 1371.90 74.60 54 o
8 -2 -10 502.66 399.70 63.00 54 o
0 4 -10 60.84 -26.40 53.50 54 <
1 3 -9 24.68 48.50 53.00 54 <
3 1 -8 715.38 932.20 72.60 54 o
5 -1 -7 618.42 375.40 67.90 54 o
8 -4 -6 210.47 115.10 55.70 54 <
7 -3 -6 2470.70 2421.30 87.50 54 o
-2 4 -6 295.92 181.30 56.10 54 o
0 2 -5 721.43 598.90 66.50 54 o
1 1 -4 123.53 170.50 72.20 54 <
6 -4 -3 21.63 -20.00 54.00 54 <
5 -3 -3 1349.80 1233.00 74.20 54 o
4 -2 -3 1054.60 1137.30 74.80 54 o
3 -1 -3 1276.00 696.90 82.30 54 o
-4 4 -3 45.50 28.00 54.60 54 <
6 -4 -2 149.59 12.80 53.20 54 <
-3 3 -2 2909.60 2958.10 95.20 54 o
-2 2 -1 1569.40 1223.80 77.30 54 o
4 -4 1 40.43 33.20 54.20 54 <
3 -3 1 249.76 281.00 60.20 54 o
2 -2 1 1870.20 1216.00 76.40 54 o
-6 4 1 23.48 35.00 54.80 54 <
-5 3 2 3775.30 4066.90 106.20 54 o
-3 1 3 1200.10 951.40 85.00 54 o
0 -2 4 1472.00 1212.80 75.70 54 o
-1 -1 4 102.90 182.20 71.90 54 <
-8 4 4 828.17 529.30 62.90 54 o
2 -4 5 203.70 241.00 56.10 54 o
-7 3 5 495.06 445.00 62.70 54 o
-6 2 6 6391.90 7479.20 136.00 54 o
-4 0 7 110.63 75.90 68.60 54 <
0 -4 8 489.10 430.90 59.60 54 o
-1 -3 8 227.23 156.00 56.50 54 <
-2 -2 8 435.78 251.80 62.00 54 o
-10 4 8 696.28 536.10 63.50 54 o
-8 2 9 231.87 318.00 62.50 54 o
-9 3 9 183.53 260.10 59.60 54 o
-7 1 10 2379.70 1987.20 86.70 54 o
-2 -4 11 67.56 2.10 53.80 54 <
-3 -3 11 28.35 15.70 53.80 54 <
-4 -2 11 1489.70 1589.90 78.40 54 o
-5 -1 11 1530.50 1448.20 78.50 54 o
-11 3 12 885.48 851.30 68.70 54 o
-9 1 13 329.93 237.70 59.00 54 o
-10 2 13 442.34 361.00 61.30 54 o
-6 -2 14 371.97 183.10 56.90 54 o
-7 -1 14 29.53 18.50 54.40 54 <
-8 0 14 434.34 371.70 60.80 54 o
-5 -3 15 65.75 49.70 54.20 54 <
-13 3 15 65.92 45.00 55.10 54 <
-12 2 16 565.72 429.30 61.40 54 o
-9 -1 17 361.62 303.20 59.80 54 o
-10 0 17 38.54 25.30 55.30 54 <
-11 1 17 79.52 27.10 54.10 54 <
-8 -2 18 42.54 13.90 52.80 54 <
-14 2 19 58.24 -30.60 54.20 54 <
-12 0 20 60.88 49.30 53.80 54 <
-13 1 20 273.47 177.60 56.60 54 o
-11 -1 21 63.86 90.30 54.60 54 <
9 1 -20 83.23 130.50 54.40 55 <
12 -2 -19 56.54 56.20 54.30 55 <
11 -1 -19 57.95 51.30 54.00 55 <
10 0 -19 119.71 -0.50 54.30 55 <
12 -2 -18 420.08 391.20 59.40 55 o
6 2 -17 64.50 92.00 54.00 55 <
7 1 -16 63.22 100.90 56.10 55 <
9 -1 -15 227.56 319.20 60.00 55 o
8 0 -15 57.38 113.50 55.90 55 <
11 -3 -14 512.06 511.00 62.00 55 o
10 -2 -14 292.06 224.80 56.60 55 o
3 3 -14 624.06 542.20 61.80 55 o
4 2 -13 283.14 176.30 57.60 55 o
5 1 -12 445.25 443.40 64.30 55 o
7 -1 -11 375.96 295.90 60.90 55 o
6 0 -11 1233.20 700.90 70.60 55 o
10 -4 -10 130.56 30.90 55.10 55 <
9 -3 -10 1440.10 1387.10 75.60 55 o
8 -2 -10 669.74 560.30 64.60 55 o
1 3 -10 1341.70 1389.00 74.50 55 o
2 2 -9 279.08 244.50 61.30 55 o
3 1 -8 607.82 853.30 71.60 55 o
5 -1 -7 335.80 322.00 66.90 55 o
-2 4 -7 95.56 102.20 55.20 55 <
8 -4 -6 201.08 110.40 54.40 55 <
7 -3 -6 2233.80 2180.80 85.00 55 o
-1 3 -6 1719.90 1761.50 81.40 55 o
0 2 -5 676.54 472.80 65.10 55 o
4 -2 -3 1051.10 1056.10 73.00 55 o
-4 4 -3 78.65 87.20 55.00 55 <
6 -4 -2 101.32 38.00 52.80 55 <
-3 3 -2 2239.30 2109.90 86.40 55 o
-6 4 0 315.12 315.50 59.10 55 o
4 -4 1 47.09 64.50 53.40 55 <
3 -3 1 313.57 410.20 61.50 55 o
2 -2 1 1202.50 1196.80 76.90 55 o
-6 4 1 53.00 5.90 54.70 55 <
-3 1 3 1326.00 1015.50 85.50 55 o
-1 -1 4 106.00 116.30 72.10 55 <
-8 4 4 1036.90 842.50 68.00 55 o
2 -4 5 158.92 160.80 55.90 55 <
1 -3 5 197.64 304.30 59.70 55 o
-7 3 5 327.13 393.20 62.80 55 o
-6 2 6 5690.90 6417.80 127.40 55 o
0 -4 8 693.33 512.20 61.40 55 o
-1 -3 8 314.66 180.10 56.50 55 o
-2 -2 8 265.33 200.60 60.30 55 o
-10 4 8 679.05 496.00 63.20 55 o
0 -4 9 10.12 -3.80 53.30 55 <
-9 3 9 124.54 217.70 58.60 55 o
-7 1 10 2103.50 1511.40 80.20 55 o
-5 -1 11 1557.20 1339.20 76.10 55 o
-6 0 11 1171.00 1171.60 75.80 55 o
-3 -3 12 283.84 178.60 56.80 55 o
-4 -2 12 760.13 838.80 68.60 55 o
-11 3 12 837.89 637.30 67.40 55 o
-10 2 13 518.16 357.30 60.40 55 o
-8 0 14 434.40 319.80 61.60 55 o
-9 1 14 2859.00 3114.60 97.70 55 o
-5 -3 15 73.00 95.60 53.70 55 <
-6 -2 15 15.70 -10.20 53.00 55 <
-7 -1 15 59.96 12.90 54.60 55 <
-13 3 15 109.08 49.50 54.90 55 <
-12 2 16 714.22 517.90 62.30 55 o
-13 3 16 44.35 0.70 55.30 55 <
-11 1 17 29.26 47.80 53.90 55 <
-8 -2 18 61.43 34.50 52.70 55 <
-9 -1 18 23.41 12.90 52.80 55 <
-10 0 18 80.55 47.40 53.50 55 <
-8 -2 19 95.90 86.40 54.30 55 <
-13 1 20 254.44 116.10 55.90 55 <
-11 -1 21 92.86 90.30 54.60 55 <
-12 0 21 25.77 44.00 53.10 55 <
10 0 -21 23.36 36.40 53.50 56 <
9 1 -21 52.19 7.70 53.50 56 <
11 -1 -20 98.14 217.70 56.90 56 o
10 0 -20 282.02 228.50 57.80 56 o
12 -2 -19 28.75 9.20 53.50 56 <
6 2 -18 233.52 256.60 57.80 56 o
7 1 -17 63.51 86.80 54.60 56 <
6 2 -17 100.27 95.60 55.30 56 <
9 -1 -16 209.20 333.20 58.60 56 o
8 0 -16 463.20 759.80 67.60 56 o
11 -3 -15 60.62 77.40 54.20 56 <
10 -2 -15 206.24 451.70 60.40 56 o
9 -1 -15 288.37 368.00 59.90 56 o
3 3 -15 80.11 115.50 54.30 56 <
4 2 -14 487.21 567.70 62.20 56 o
3 3 -14 733.29 533.10 63.30 56 o
5 1 -13 259.45 224.30 60.10 56 o
4 2 -13 158.09 199.00 57.20 56 o
6 0 -12 3901.10 4324.30 110.40 56 o
10 -4 -11 48.65 86.50 55.50 56 <
9 -3 -11 74.26 74.50 55.50 56 <
8 -2 -11 772.38 824.50 67.60 56 o
7 -1 -11 268.49 238.00 61.10 56 o
10 -4 -10 71.06 26.50 54.70 56 <
9 -3 -10 1134.10 1074.70 70.30 56 o
1 3 -10 1064.20 989.90 70.00 56 o
2 2 -9 387.34 364.50 63.20 56 o
4 0 -8 26502.00 24583.60 230.70 56 o
7 -3 -7 132.38 190.90 57.60 56 o
6 -2 -7 352.28 790.30 69.20 56 o
-2 4 -7 70.73 153.20 56.00 56 <
8 -4 -6 205.35 53.10 54.60 56 <
-1 3 -6 2842.60 2202.80 85.20 56 o
2 0 -4 80170.00 83978.70 416.60 56 o
5 -3 -3 774.93 755.40 67.00 56 o
4 -2 -3 890.49 897.50 71.40 56 o
-4 4 -3 183.88 70.90 55.60 56 <
6 -4 -2 337.66 113.50 54.20 56 <
-3 3 -2 4974.00 3830.60 105.80 56 o
-6 4 0 1210.80 1324.80 74.40 56 o
4 -4 1 94.90 17.60 54.10 56 <
3 -3 1 649.61 730.60 67.60 56 o
2 -2 1 1452.10 1223.50 77.80 56 o
-6 4 1 65.06 18.60 54.20 56 <
4 -4 2 356.74 135.80 55.30 56 <
-3 1 3 1643.80 1273.10 89.00 56 o
-8 4 4 712.20 513.10 64.80 56 o
2 -4 5 87.01 114.30 55.00 56 <
1 -3 5 170.75 319.20 60.10 56 o
0 -2 5 904.75 532.70 64.60 56 o
-7 3 5 229.68 416.00 62.20 56 o
-6 2 6 4570.60 5005.00 117.70 56 o
-5 1 7 307.87 288.00 66.70 56 o
-3 -1 8 471.32 763.30 70.20 56 o
-10 4 8 396.64 480.10 62.70 56 o
0 -4 9 46.24 22.90 54.90 56 <
-1 -3 9 19.95 -1.00 54.10 56 <
-9 3 9 139.83 232.80 60.30 56 o
-8 2 10 695.97 894.50 70.10 56 o
-6 0 11 910.84 1005.10 72.50 56 o
-3 -3 12 240.79 145.30 55.60 56 <
-4 -2 12 669.50 574.90 64.70 56 o
-5 -1 12 432.21 489.00 64.90 56 o
-3 -3 13 12.32 -15.50 53.90 56 <
-11 3 13 67.45 -1.50 56.00 56 <
-9 1 14 1966.10 2371.80 88.00 56 o
-10 2 14 800.18 538.00 63.80 56 o
-7 -1 15 47.16 86.50 55.70 56 <
-8 0 15 55.61 134.20 55.50 56 <
-5 -3 16 61.12 4.80 53.10 56 <
-6 -2 16 241.32 222.00 57.70 56 o
-13 3 16 26.62 0.30 55.00 56 <
-12 2 17 205.61 161.90 58.90 56 <
-10 0 18 65.81 31.10 54.20 56 <
-11 1 18 1105.60 1105.80 71.70 56 o
-8 -2 19 64.39 72.90 54.00 56 <
-9 -1 19 190.97 229.80 56.80 56 o
-13 1 21 18.57 42.80 53.80 56 <
11 -1 -21 29.83 90.50 55.50 57 <
10 0 -21 16.76 16.40 53.00 57 <
11 -1 -20 160.16 206.20 56.60 57 o
6 2 -19 19.07 48.50 53.20 57 <
7 1 -18 921.29 1057.10 70.30 57 o
6 2 -18 375.79 328.80 58.30 57 o
8 0 -17 9.49 76.90 54.00 57 <
7 1 -17 116.27 66.60 55.00 57 <
10 -2 -16 224.62 269.70 57.60 57 o
9 -1 -16 62.85 156.20 56.00 57 <
3 3 -16 191.74 310.40 57.60 57 o
11 -3 -15 40.90 109.50 54.20 57 <
10 -2 -15 305.50 375.10 59.60 57 o
3 3 -15 68.25 55.20 54.20 57 <
4 2 -14 240.96 245.10 57.60 57 o
5 1 -13 267.69 251.40 60.00 57 o
7 -1 -12 384.19 473.70 63.80 57 o
6 0 -12 4307.70 4154.50 109.50 57 o
10 -4 -11 22.64 60.90 53.90 57 <
9 -3 -11 51.35 28.60 54.40 57 <
8 -2 -11 436.91 730.60 66.00 57 o
1 3 -11 149.97 118.90 54.60 57 <
10 -4 -10 70.23 41.20 54.20 57 <
2 2 -10 1004.80 1001.50 71.40 57 o
3 1 -9 1614.60 1755.40 82.70 57 o
4 0 -8 24034.00 20899.80 213.80 57 o
-2 4 -8 286.00 482.10 61.20 57 o
7 -3 -7 137.23 96.20 56.80 57 <
6 -2 -7 541.93 770.10 68.10 57 o
-1 3 -7 249.91 294.40 59.00 57 o
8 -4 -6 118.19 106.30 55.00 57 <
7 -3 -6 2339.50 2543.00 89.30 57 o
0 2 -6 3500.60 4593.20 111.60 57 o
1 1 -5 3050.50 2780.30 101.30 57 o
2 0 -4 60168.00 62035.40 359.90 57 o
-4 4 -4 298.98 569.70 63.70 57 o
4 -2 -3 432.17 663.20 67.80 57 o
-3 3 -3 534.77 656.50 67.00 57 o
6 -4 -2 49.12 17.90 53.00 57 <
5 -3 -2 1769.80 2358.10 89.40 57 o
-6 4 0 57.16 128.20 57.30 57 <
2 -2 1 596.95 892.70 70.90 57 o
-5 3 1 236.77 456.90 64.50 57 o
4 -4 2 52.31 29.90 53.40 57 <
3 -3 2 2162.70 2372.40 87.80 57 o
-2 0 4 61271.00 62083.70 362.00 57 o
-8 4 4 339.02 541.50 63.90 57 o
0 -2 5 523.34 620.60 67.60 57 o
-7 3 5 217.11 208.60 60.30 57 o
2 -4 6 138.96 124.20 53.80 57 <
-6 2 6 3574.40 4040.10 106.40 57 o
-5 1 7 395.66 356.40 66.40 57 o
-4 0 8 26514.00 20350.60 212.70 57 o
-10 4 8 345.88 408.40 62.40 57 o
0 -4 9 54.24 71.50 53.60 57 <
-1 -3 9 30.11 30.90 53.20 57 <
-2 -2 9 347.23 412.00 63.60 57 o
-9 3 9 151.87 195.90 59.40 57 o
0 -4 10 74.16 32.90 53.10 57 <
-8 2 10 1040.10 1136.60 74.10 57 o
-7 1 11 215.95 253.00 61.30 57 o
-5 -1 12 371.29 394.70 64.40 57 o
-3 -3 13 19.47 -9.30 53.40 57 <
-4 -2 13 141.18 171.00 56.80 57 o
-11 3 13 71.09 64.30 56.10 57 <
-10 2 14 225.86 201.00 59.20 57 o
-8 0 15 18.29 59.50 55.30 57 <
-9 1 15 267.03 309.40 59.40 57 o
-6 -2 16 229.04 217.30 56.70 57 o
-7 -1 16 61.85 119.20 55.40 57 <
-13 3 16 200.49 217.20 58.60 57 o
-6 -2 17 104.26 26.40 53.30 57 <
-12 2 17 172.21 177.20 58.00 57 o
-11 1 18 959.76 865.00 68.20 57 o
-12 2 18 453.04 327.90 59.70 57 o
-9 -1 19 246.52 211.70 56.80 57 o
-10 0 19 69.99 63.40 53.80 57 <
-9 -1 20 148.30 133.40 54.70 57 <
11 -1 -21 27.30 157.40 55.30 58 <
7 1 -19 38.12 29.60 54.30 58 <
6 2 -19 16.83 12.90 52.90 58 <
8 0 -18 99.56 46.60 54.50 58 <
7 1 -18 894.62 1104.40 70.10 58 o
9 -1 -17 156.52 189.30 56.00 58 o
8 0 -17 12.44 53.40 53.70 58 <
11 -3 -16 71.10 -51.60 53.70 58 <
10 -2 -16 170.97 150.90 57.00 58 <
3 3 -16 152.84 127.80 55.00 58 <
11 -3 -15 83.97 -24.80 54.80 58 <
4 2 -15 33.26 148.50 54.90 58 <
5 1 -14 2017.00 2427.30 88.70 58 o
6 0 -13 34.87 45.80 57.40 58 <
8 -2 -12 668.15 899.10 68.30 58 o
7 -1 -12 378.59 583.10 65.60 58 o
1 3 -12 488.16 646.10 63.50 58 o
10 -4 -11 28.89 78.00 53.70 58 <
9 -3 -11 37.88 57.90 53.70 58 <
1 3 -11 121.48 87.80 56.30 58 <
10 -4 -10 155.98 -68.40 54.70 58 <
2 2 -10 617.70 1180.10 73.10 58 o
3 1 -9 1230.80 958.80 72.60 58 o
-2 4 -9 109.60 5.80 55.00 58 <
5 -1 -8 443.75 901.30 72.10 58 o
-2 4 -8 427.04 576.60 62.50 58 o
8 -4 -7 124.88 126.60 56.00 58 <
7 -3 -7 69.31 22.20 55.80 58 <
6 -2 -7 619.36 388.30 63.90 58 o
-1 3 -7 264.92 169.40 55.40 58 o
8 -4 -6 243.57 106.40 54.60 58 <
0 2 -6 3358.30 4785.70 113.20 58 o
1 1 -5 2619.00 3137.50 104.00 58 o
-4 4 -4 891.72 527.80 64.40 58 o
4 -2 -3 1257.40 971.20 73.20 58 o
-3 3 -3 1191.90 715.60 67.40 58 o
6 -4 -2 290.37 61.20 54.50 58 <
5 -3 -2 4398.40 3731.50 102.20 58 o
-2 2 -2 3014.80 2934.40 96.40 58 o
-6 4 0 805.53 861.70 67.70 58 o
2 -2 1 1456.10 1120.60 75.20 58 o
-5 3 1 552.98 665.40 66.00 58 o
4 -4 2 205.16 72.50 53.70 58 <
3 -3 2 4340.70 3859.30 102.80 58 o
-2 0 4 72491.00 73619.40 389.60 58 o
-8 4 4 441.40 550.30 63.20 58 o
0 -2 5 769.73 583.70 66.90 58 o
-7 3 5 264.96 386.00 61.90 58 o
2 -4 6 114.18 60.10 54.80 58 <
1 -3 6 2507.60 2009.40 83.10 58 o
-4 0 8 23003.00 18848.00 206.50 58 o
-10 4 8 400.31 380.90 62.20 58 o
-2 -2 9 265.14 345.70 62.00 58 o
-3 -1 9 1229.30 1606.40 81.00 58 o
-9 3 9 153.04 263.50 60.00 58 o
0 -4 10 83.90 45.90 53.40 58 <
-1 -3 10 1047.30 1101.90 71.50 58 o
-8 2 10 1355.00 1442.00 77.80 58 o
-7 1 11 202.48 314.10 62.10 58 o
-6 0 12 3686.40 3553.50 105.40 58 o
-3 -3 13 29.84 24.10 54.10 58 <
-4 -2 13 165.91 185.40 57.60 58 o
-5 -1 13 251.98 178.10 58.30 58 o
-11 3 13 64.46 152.10 56.10 58 <
-3 -3 14 843.29 731.10 66.00 58 o
-10 2 14 378.32 384.20 61.10 58 o
-9 1 15 303.54 323.10 58.80 58 o
-7 -1 16 133.24 320.10 58.70 58 o
-8 0 16 444.84 803.30 67.80 58 o
-6 -2 17 56.29 85.80 54.40 58 <
-7 -1 17 69.92 44.70 54.20 58 <
-12 2 18 287.83 196.50 57.40 58 o
-11 1 19 38.81 64.80 54.00 58 <
-9 -1 20 86.96 90.80 54.60 58 <
-10 0 20 299.64 254.20 59.20 58 o
7 1 -20 231.12 210.80 56.50 59 o
8 0 -19 175.87 225.20 57.00 59 o
7 1 -19 34.06 43.50 53.20 59 <
9 -1 -18 31.55 40.80 53.90 59 <
8 0 -18 100.35 59.40 53.70 59 <
10 -2 -17 6.29 19.10 54.10 59 <
9 -1 -17 234.94 197.10 56.90 59 o
11 -3 -16 52.10 9.80 53.40 59 <
4 2 -16 562.81 446.30 60.00 59 o
5 1 -15 156.44 239.10 57.60 59 o
6 0 -14 423.01 382.70 61.00 59 o
7 -1 -13 57.14 39.50 56.60 59 <
1 3 -13 117.61 119.70 55.40 59 <
9 -3 -12 284.48 226.60 57.20 59 o
8 -2 -12 528.30 657.50 65.30 59 o
1 3 -12 629.31 704.40 64.90 59 o
10 -4 -11 4.24 30.20 54.00 59 <
9 -3 -11 16.81 40.30 53.70 59 <
2 2 -11 267.85 213.70 58.60 59 o
3 1 -10 2246.10 2112.40 87.50 59 o
4 0 -9 37.42 98.20 61.80 59 <
-2 4 -9 48.65 55.90 53.60 59 <
5 -1 -8 647.03 794.10 72.70 59 o
-1 3 -8 53.06 97.70 55.20 59 <
8 -4 -7 118.96 114.50 56.00 59 <
7 -3 -7 17.44 20.00 54.50 59 <
8 -4 -6 247.51 163.40 55.50 59 <
-4 4 -5 8.07 14.30 53.30 59 <
-4 4 -4 1072.50 936.10 68.70 59 o
4 -2 -3 788.95 1101.00 73.80 59 o
-3 3 -3 1058.80 1080.30 72.70 59 o
6 -4 -2 67.13 48.60 52.90 59 <
5 -3 -2 2975.00 2701.50 91.90 59 o
-2 2 -2 1187.00 1428.30 79.30 59 o
-1 1 -1 1477.80 1025.40 93.50 59 o
-6 4 0 221.39 283.30 59.20 59 o
-5 3 1 101.08 61.30 57.70 59 <
4 -4 2 143.57 56.80 54.00 59 <
3 -3 2 2150.60 2481.40 90.00 59 o
-8 4 4 589.62 560.70 65.20 59 o
-1 -1 5 4604.40 3645.70 109.50 59 o
-7 3 5 337.75 388.40 62.20 59 o
2 -4 6 265.61 139.40 54.90 59 <
1 -3 6 2049.80 2252.70 86.00 59 o
0 -2 6 7303.70 7413.70 134.10 59 o
-7 3 6 2846.20 2323.10 88.20 59 o
2 -4 7 112.19 155.50 54.80 59 <
-6 2 7 96.24 169.90 62.20 59 <
-10 4 8 565.34 496.50 63.30 59 o
-3 -1 9 1040.00 1429.30 78.20 59 o
-10 4 9 107.18 60.90 55.50 59 <
0 -4 10 166.93 80.40 53.90 59 <
-1 -3 10 1439.20 1380.00 74.60 59 o
-2 -2 10 647.21 784.00 68.70 59 o
-9 3 10 1312.80 1146.90 74.60 59 o
-8 2 11 829.50 883.60 70.90 59 o
-7 1 12 459.17 396.30 64.10 59 o
-5 -1 13 309.05 181.80 59.60 59 o
-6 0 13 78.38 7.80 58.60 59 <
-3 -3 14 636.89 470.10 61.00 59 o
-4 -2 14 392.63 421.30 59.60 59 o
-11 3 14 594.96 510.30 64.20 59 o
-3 -3 15 149.36 78.50 53.60 59 <
-10 2 15 168.03 212.30 60.00 59 o
-9 1 16 283.19 294.30 59.50 59 o
-7 -1 17 72.72 85.00 53.70 59 <
-8 0 17 29.67 45.80 54.00 59 <
-6 -2 18 313.68 301.60 56.70 59 o
-12 2 19 50.68 8.90 54.70 59 <
-10 0 20 517.20 387.60 59.80 59 o
-11 1 20 163.96 68.10 55.00 59 <
-9 -1 21 46.47 2.10 53.80 59 <
-10 0 21 13.46 21.50 52.80 59 <
8 0 -20 76.00 87.30 54.40 60 <
7 1 -20 346.64 218.40 56.20 60 o
9 -1 -19 265.55 301.60 58.40 60 o
8 0 -19 202.20 181.00 57.10 60 o
10 -2 -18 48.96 42.60 54.40 60 <
9 -1 -18 116.20 125.80 55.10 60 <
10 -2 -17 7.71 -10.10 52.80 60 <
4 2 -17 241.28 219.50 57.70 60 o
5 1 -16 82.37 11.80 55.20 60 <
6 0 -15 109.80 176.20 56.40 60 o
5 1 -15 241.30 194.40 57.50 60 o
7 -1 -14 43.56 29.50 54.60 60 <
6 0 -14 431.38 316.50 60.70 60 o
1 3 -14 408.78 300.70 58.20 60 o
8 -2 -13 142.85 122.70 57.40 60 <
7 -1 -13 93.00 51.40 57.10 60 <
1 3 -13 95.47 100.60 55.40 60 <
9 -3 -12 275.80 192.10 56.70 60 o
2 2 -12 245.36 325.10 60.60 60 o
10 -4 -11 8.33 -3.40 53.70 60 <
3 1 -11 75.21 155.80 59.10 60 <
-2 4 -10 20.97 -1.70 53.20 60 <
-1 3 -9 669.13 617.10 64.50 60 o
6 -2 -8 593.86 644.90 67.10 60 o
-1 3 -8 62.11 52.50 55.20 60 <
8 -4 -7 124.68 121.90 56.50 60 <
7 -3 -7 32.07 35.30 53.70 60 <
0 2 -7 188.58 334.80 63.40 60 o
8 -4 -6 286.49 148.60 56.30 60 <
1 1 -6 45298.00 43196.30 299.50 60 o
-4 4 -5 13.67 13.20 53.80 60 <
-3 3 -4 302.29 343.20 60.30 60 o
4 -2 -3 1382.80 1333.50 78.00 60 o
6 -4 -2 122.12 50.70 54.20 60 <
5 -3 -2 3229.60 3350.50 98.90 60 o
-2 2 -2 1714.90 1683.50 82.90 60 o
-1 1 -1 1533.30 1419.70 98.60 60 o
-6 4 -1 12.48 15.90 54.90 60 <
-6 4 0 323.79 264.50 58.40 60 o
1 -1 1 1541.10 1077.20 95.40 60 o
-5 3 1 15.62 38.40 57.00 60 <
3 -3 2 3120.50 2960.30 93.80 60 o
2 -2 2 2170.50 2395.30 90.60 60 o
-4 2 2 2338.50 2163.70 87.30 60 o
4 -4 3 128.12 102.70 55.20 60 <
-8 4 4 843.08 691.20 66.80 60 o
0 -2 6 5866.90 6646.90 128.00 60 o
-7 3 6 2973.90 2519.80 90.60 60 o
2 -4 7 134.50 141.30 55.40 60 <
1 -3 7 58.56 58.00 55.10 60 <
-6 2 7 89.42 104.50 59.50 60 <
-5 1 8 338.00 596.70 68.60 60 o
-10 4 8 621.93 448.00 62.50 60 o
-4 0 9 63.35 85.80 61.20 60 <
-10 4 9 62.03 63.10 54.90 60 <
-3 -1 10 2353.10 2044.90 85.70 60 o
-9 3 10 1556.90 1431.50 77.80 60 o
-1 -3 11 109.31 36.00 54.70 60 <
-2 -2 11 399.87 327.30 60.00 60 o
-8 2 11 949.38 1018.60 71.10 60 o
-7 1 12 457.65 473.60 64.10 60 o
-6 0 13 38.44 37.10 58.00 60 <
-5 -1 14 2310.90 2445.00 89.40 60 o
-11 3 14 551.95 435.90 62.90 60 o
-3 -3 15 78.74 84.90 54.10 60 <
-4 -2 15 43.17 67.30 54.20 60 <
-10 2 15 147.71 188.40 57.70 60 o
-3 -3 16 46.17 60.70 54.30 60 <
-9 1 16 143.87 148.00 56.60 60 <
-10 2 16 218.62 151.60 58.00 60 <
-8 0 17 48.39 26.70 53.80 60 <
-9 1 17 265.40 206.00 57.40 60 o
-7 -1 18 1105.20 875.80 67.30 60 o
-8 0 18 132.48 56.70 54.50 60 <
-6 -2 19 20.78 18.40 53.20 60 <
-12 2 19 89.76 63.60 54.70 60 <
-11 1 20 322.56 104.40 56.20 60 <
-10 0 21 21.86 -0.60 52.90 60 <
-11 1 21 83.58 104.20 55.30 60 <
8 0 -21 79.03 42.20 54.30 61 <
9 -1 -20 85.09 61.20 54.50 61 <
8 0 -20 67.44 91.60 53.60 61 <
10 -2 -19 15.51 -21.40 53.40 61 <
9 -1 -19 293.34 275.10 58.00 61 o
10 -2 -18 55.07 48.90 53.40 61 <
4 2 -18 397.78 316.60 58.60 61 o
5 1 -17 140.33 131.20 55.60 61 <
5 1 -16 91.46 47.70 54.30 61 <
6 0 -15 94.74 113.80 56.60 61 <
1 3 -15 258.96 185.90 55.80 61 o
8 -2 -14 258.68 208.30 56.50 61 o
7 -1 -14 34.54 -4.90 55.50 61 <
1 3 -14 497.87 448.20 60.20 61 o
9 -3 -13 47.50 82.10 55.10 61 <
8 -2 -13 113.70 197.80 56.40 61 o
2 2 -13 118.26 95.50 55.60 61 <
9 -3 -12 250.52 139.90 56.80 61 <
2 2 -12 237.74 271.00 58.50 61 o
3 1 -11 78.68 100.80 58.40 61 <
4 0 -10 664.99 582.20 66.80 61 o
-2 4 -10 39.64 -38.70 54.20 61 <
5 -1 -9 1417.10 1706.60 81.80 61 o
-1 3 -9 511.17 485.90 62.00 61 o
7 -3 -8 490.96 241.30 58.50 61 o
6 -2 -8 281.39 293.60 61.70 61 o
8 -4 -7 139.71 166.10 56.50 61 <
7 -3 -7 22.87 24.60 54.10 61 <
0 2 -7 187.56 254.00 63.10 61 o
1 1 -6 34589.00 35384.70 274.70 61 o
-4 4 -6 37.51 89.00 53.90 61 <
2 0 -5 258.83 175.90 82.60 61 <
-4 4 -5 12.00 -5.90 53.90 61 <
3 -1 -4 328.22 341.40 75.80 61 o
-3 3 -4 210.12 134.20 57.30 61 <
4 -2 -3 1208.70 1279.30 76.50 61 o
6 -4 -2 105.86 74.30 54.20 61 <
5 -3 -2 3405.20 3078.70 96.00 61 o
-2 2 -2 2014.80 2186.00 87.00 61 o
-1 1 -1 1622.10 1030.90 96.70 61 o
-6 4 -1 46.94 33.50 54.50 61 <
-6 4 0 548.38 354.20 60.50 61 o
1 -1 1 1540.90 1430.10 99.70 61 o
-5 3 1 13.51 18.50 56.20 61 <
3 -3 2 3972.20 3715.70 102.70 61 o
2 -2 2 1558.30 1594.60 81.70 61 o
4 -4 3 40.18 64.60 54.80 61 <
-8 4 4 860.54 663.40 65.80 61 o
-8 4 5 72.45 -20.90 55.20 61 <
-7 3 6 1796.20 1758.20 84.30 61 o
2 -4 7 192.77 240.10 55.80 61 o
1 -3 7 44.69 52.70 54.30 61 <
-6 2 7 19.87 -3.40 59.10 61 <
2 -4 8 615.01 557.30 61.50 61 o
-5 1 8 747.19 726.30 71.30 61 o
-10 4 9 32.79 71.30 54.30 61 <
-3 -1 10 2130.70 1775.30 83.10 61 o
-9 3 10 1175.20 1172.70 74.30 61 o
-1 -3 11 115.55 64.10 55.00 61 <
-2 -2 11 259.34 230.40 59.70 61 o
-9 3 11 18.80 26.50 54.80 61 <
-1 -3 12 891.69 1021.90 69.10 61 o
-8 2 12 888.81 773.70 68.00 61 o
-7 1 13 56.67 89.30 56.40 61 <
-6 0 14 357.21 419.20 61.70 61 o
-4 -2 15 65.34 56.20 54.30 61 <
-5 -1 15 141.49 238.60 57.50 61 o
-11 3 15 74.74 -2.90 55.50 61 <
-3 -3 16 37.28 45.90 53.40 61 <
-4 -2 16 745.14 547.90 62.70 61 o
-10 2 16 219.99 120.80 56.80 61 <
-9 1 17 177.47 186.40 57.40 61 o
-8 0 18 117.98 22.70 53.80 61 <
-7 -1 19 26.48 31.70 53.80 61 <
-11 1 21 76.01 52.10 54.80 61 <
9 -1 -21 9.34 9.50 52.50 62 <
9 -1 -20 197.60 139.50 54.80 62 <
10 -2 -19 53.73 11.60 53.80 62 <
4 2 -19 25.32 -3.00 52.20 62 <
5 1 -18 963.51 979.50 69.60 62 o
6 0 -17 129.13 154.80 55.70 62 <
5 1 -17 182.88 149.10 56.20 62 <
6 0 -16 244.21 255.50 58.10 62 o
7 -1 -15 37.86 28.00 54.50 62 <
1 3 -15 196.21 168.90 55.50 62 o
9 -3 -14 1807.00 1607.90 77.40 62 o
8 -2 -14 275.81 182.90 57.50 62 o
2 2 -14 162.53 162.60 56.40 62 <
9 -3 -13 51.76 116.80 55.20 62 <
2 2 -13 132.65 90.00 55.50 62 <
3 1 -12 1062.10 997.60 72.30 62 o
4 0 -11 4918.50 5212.30 118.00 62 o
-1 3 -10 213.55 213.50 57.40 62 o
6 -2 -9 324.88 213.80 60.00 62 o
-1 3 -9 791.45 636.80 64.30 62 o
7 -3 -8 312.44 164.70 57.80 62 <
6 -2 -8 525.01 503.40 65.30 62 o
0 2 -8 3459.60 3340.70 100.40 62 o
8 -4 -7 207.33 186.70 56.60 62 o
7 -3 -7 41.34 17.70 53.90 62 <
-4 4 -7 80.97 -1.50 54.30 62 <
-4 4 -6 7.20 13.80 53.50 62 <
3 -1 -4 455.37 422.20 78.50 62 o
-3 3 -4 301.84 276.60 59.90 62 o
4 -2 -3 1383.10 1378.60 78.20 62 o
-2 2 -3 291.29 294.80 62.50 62 o
6 -4 -2 148.30 81.40 54.20 62 <
5 -3 -2 3132.30 2980.00 94.50 62 o
6 -4 -1 7.00 21.90 53.00 62 <
-6 4 -1 5.17 3.00 54.20 62 <
-6 4 0 678.35 401.80 61.00 62 o
1 -1 1 1578.20 1184.10 97.50 62 o
-5 3 1 9.58 13.50 56.20 62 <
2 -2 2 1493.20 1663.70 82.30 62 o
4 -4 3 80.49 79.40 54.00 62 <
3 -3 3 1386.90 1207.60 74.80 62 o
4 -4 4 1143.00 1364.00 74.40 62 o
-3 1 4 433.54 555.20 78.90 62 o
-8 4 4 1216.00 930.20 69.80 62 o
-2 0 5 188.61 216.50 84.00 62 <
-8 4 5 71.62 54.90 55.40 62 <
-1 -1 6 35031.00 34597.60 270.10 62 o
-7 3 6 2325.60 2033.10 85.20 62 o
0 -2 7 189.88 289.70 63.00 62 o
-6 2 7 24.60 39.20 60.90 62 <
2 -4 8 583.82 378.70 59.30 62 o
1 -3 8 59.13 168.70 56.10 62 o
2 -4 9 24.02 12.10 54.00 62 <
-5 1 9 1520.20 1702.30 82.40 62 o
-10 4 9 23.33 -2.10 54.50 62 <
-4 0 10 586.07 597.80 68.20 62 o
-10 4 10 252.20 82.10 55.30 62 <
-3 -1 11 80.30 93.40 59.30 62 <
-9 3 11 28.34 -4.00 56.00 62 <
-1 -3 12 1083.60 1093.20 70.40 62 o
-2 -2 12 236.52 510.30 62.60 62 o
-8 2 12 623.91 645.70 66.10 62 o
-1 -3 13 88.85 148.10 56.20 62 <
-7 1 13 85.43 83.90 57.70 62 <
-7 1 14 70.40 74.30 56.10 62 <
-5 -1 15 243.72 201.00 57.50 62 o
-6 0 15 101.60 61.70 56.10 62 <
-11 3 15 97.27 20.30 55.10 62 <
-4 -2 16 687.16 531.00 62.30 62 o
-5 -1 16 87.44 113.00 54.20 62 <
-11 3 16 70.17 43.10 54.40 62 <
-4 -2 17 205.91 262.70 57.70 62 o
-10 2 17 10.51 49.30 53.80 62 <
-9 1 18 7.95 20.60 54.00 62 <
-8 0 19 162.40 162.70 55.90 62 <
-7 -1 20 186.61 162.30 55.70 62 <
5 1 -20 108.37 150.00 54.80 63 <
5 1 -19 86.56 83.90 54.00 63 <
6 0 -18 761.20 1002.50 68.60 63 o
6 0 -17 113.38 163.90 55.40 63 <
7 -1 -16 123.29 105.60 55.40 63 <
8 -2 -15 15.65 -30.60 54.00 63 <
2 2 -15 135.67 157.40 55.40 63 <
9 -3 -14 624.65 734.30 65.70 63 o
8 -2 -14 217.02 131.00 56.20 63 <
2 2 -14 129.18 100.20 54.90 63 <
9 -3 -13 67.39 100.60 53.70 63 <
3 1 -13 22.68 74.30 56.00 63 <
4 0 -11 4825.60 5152.90 116.60 63 o
-1 3 -11 212.47 172.50 56.80 63 o
5 -1 -10 27.50 104.60 59.10 63 <
-1 3 -10 261.14 186.00 57.10 63 o
6 -2 -9 64.26 77.40 59.30 63 <
0 2 -9 91.48 145.80 60.50 63 <
7 -3 -8 250.53 140.10 57.70 63 <
8 -4 -7 181.65 208.90 57.80 63 o
1 1 -7 29.06 88.60 65.00 63 <
-4 4 -7 15.43 -9.30 53.40 63 <
-4 4 -6 8.54 -6.40 53.70 63 <
-3 3 -5 103.82 174.70 58.00 63 o
3 -1 -4 160.03 338.30 75.90 63 o
4 -2 -3 1157.70 1252.00 78.20 63 o
-2 2 -3 244.52 304.50 62.30 63 o
6 -4 -2 127.47 70.40 53.90 63 <
5 -3 -2 2823.10 3063.70 96.00 63 o
-6 4 -2 73.07 56.90 55.40 63 <
6 -4 -1 18.83 46.00 53.00 63 <
-6 4 -1 7.83 23.00 54.50 63 <
-5 3 1 20.46 40.60 56.40 63 <
2 -2 2 1998.90 1494.40 81.10 63 o
-4 2 2 2504.20 2173.90 88.20 63 o
3 -3 3 1041.30 936.20 69.90 63 o
4 -4 4 585.78 649.70 64.80 63 o
-3 1 4 292.35 447.80 77.20 63 o
-8 4 4 779.52 615.60 64.70 63 o
-8 4 5 73.23 50.10 54.70 63 <
-7 3 6 1899.90 1782.50 82.80 63 o
1 -3 8 78.05 134.00 54.70 63 <
0 -2 8 4582.10 4268.50 108.50 63 o
-6 2 8 217.45 298.80 64.30 63 o
2 -4 9 91.36 106.00 54.00 63 <
1 -3 9 695.24 486.50 61.70 63 o
-5 1 9 1572.80 1790.60 83.70 63 o
-10 4 9 16.41 24.60 54.20 63 <
-4 0 10 988.15 532.70 67.80 63 o
-10 4 10 106.78 17.70 55.60 63 <
-9 3 11 3.33 -22.00 55.50 63 <
-2 -2 12 262.25 478.40 61.90 63 o
-3 -1 12 1307.10 1191.40 74.00 63 o
-1 -3 13 91.50 133.60 55.80 63 <
-2 -2 13 101.54 92.40 56.00 63 <
-8 2 13 168.26 137.80 57.00 63 <
-1 -3 14 546.03 589.60 62.60 63 o
-7 1 14 33.06 71.30 56.10 63 <
-6 0 15 91.83 117.60 55.60 63 <
-5 -1 16 85.85 71.70 54.70 63 <
-6 0 16 446.40 395.40 60.70 63 o
-11 3 16 40.83 -6.60 54.30 63 <
-4 -2 17 174.38 199.60 57.20 63 o
-5 -1 17 167.11 192.10 56.90 63 o
-10 2 17 11.32 -9.50 54.00 63 <
-4 -2 18 485.01 360.40 60.20 63 o
-10 2 18 38.85 74.30 54.50 63 <
-9 1 19 241.45 221.30 58.50 63 o
-8 0 20 109.14 43.10 54.50 63 <
5 1 -20 80.69 82.80 54.60 64 <
6 0 -19 46.37 82.60 55.00 64 <
7 -1 -18 1032.70 1005.40 68.90 64 o
6 0 -18 843.29 906.90 69.00 64 o
7 -1 -17 159.99 159.90 55.40 64 <
8 -2 -16 1259.00 1338.20 74.80 64 o
2 2 -16 842.19 875.80 67.30 64 o
9 -3 -15 42.77 33.70 54.10 64 <
8 -2 -15 9.19 33.80 53.80 64 <
2 2 -15 177.97 123.80 55.30 64 <
9 -3 -14 1153.40 880.90 67.20 64 o
3 1 -14 1711.60 1422.70 77.00 64 o
4 0 -12 2138.20 2141.60 87.40 64 o
-1 3 -12 835.07 675.40 66.10 64 o
5 -1 -11 1756.20 1550.30 80.60 64 o
-1 3 -11 234.57 203.90 57.70 64 o
5 -1 -10 116.20 83.30 59.60 64 <
0 2 -10 659.41 438.80 61.40 64 o
6 -2 -9 80.22 135.00 58.10 64 <
0 2 -9 146.33 154.10 59.70 64 <
8 -4 -8 453.12 514.20 62.90 64 o
7 -3 -8 212.00 215.30 56.70 64 o
-4 4 -8 16.98 9.70 53.50 64 <
8 -4 -7 192.56 141.80 55.50 64 <
-4 4 -7 55.52 36.60 54.30 64 <
2 0 -6 244.46 214.30 74.60 64 <
-3 3 -6 572.44 507.20 62.70 64 o
-3 3 -5 297.66 253.50 58.20 64 o
4 -2 -3 1471.20 1335.90 78.20 64 o
-2 2 -3 339.88 343.70 63.70 64 o
6 -4 -2 190.68 116.30 54.90 64 <
5 -3 -2 3023.60 2868.20 95.10 64 o
-6 4 -2 87.43 -24.50 53.70 64 <
6 -4 -1 24.26 20.90 53.20 64 <
-6 4 -1 7.66 40.70 54.00 64 <
-5 3 0 657.42 648.70 66.20 64 o
-5 3 1 33.29 44.60 56.30 64 <
3 -3 3 1688.60 1341.20 76.10 64 o
4 -4 4 929.26 1053.60 70.20 64 o
3 -3 4 293.15 292.00 60.20 64 o
-3 1 4 226.14 275.90 75.10 64 o
-8 4 4 989.98 771.30 66.20 64 o
4 -4 5 30.23 21.70 53.70 64 <
-8 4 5 77.60 15.90 55.00 64 <
-7 3 6 2266.10 2041.50 84.30 64 o
-1 -1 7 110.30 141.90 64.90 64 <
0 -2 8 3245.00 3450.60 101.50 64 o
-6 2 8 386.24 425.40 65.70 64 o
2 -4 9 135.27 90.90 54.20 64 <
1 -3 9 403.65 552.00 62.30 64 o
-10 4 9 13.37 14.00 54.50 64 <
2 -4 10 22.94 -7.20 53.20 64 <
-5 1 10 126.79 111.40 59.70 64 <
-10 4 10 118.21 18.40 54.80 64 <
-4 0 11 4476.60 5382.90 120.00 64 o
-9 3 11 24.15 -27.20 56.30 64 <
-3 -1 12 1302.80 998.20 72.20 64 o
-9 3 12 347.42 182.10 58.60 64 o
-2 -2 13 97.60 121.40 56.30 64 <
-8 2 13 132.77 103.90 56.40 64 <
-1 -3 14 601.25 457.70 60.40 64 o
-2 -2 14 159.19 28.50 54.70 64 <
-8 2 14 313.36 197.60 57.10 64 o
-1 -3 15 228.94 159.50 54.80 64 <
-7 1 15 46.48 61.50 55.10 64 <
-6 0 16 379.72 372.20 59.40 64 o
-11 3 16 91.65 11.90 54.90 64 <
-5 -1 17 140.08 190.60 57.00 64 o
-4 -2 18 457.88 308.20 58.20 64 o
-5 -1 18 1159.30 966.00 69.50 64 o
-10 2 18 32.58 1.50 54.20 64 <
-4 -2 19 17.68 32.50 52.80 64 <
-10 2 19 47.91 17.90 54.90 64 <
-9 1 20 152.50 95.00 55.70 64 <
-8 0 21 105.85 83.60 53.20 64 <
6 0 -21 34.66 8.90 53.00 65 <
6 0 -20 328.13 277.70 57.80 65 o
7 -1 -19 16.48 40.30 53.80 65 <
6 0 -19 92.60 5.10 54.10 65 <
8 -2 -18 35.47 10.40 53.00 65 <
7 -1 -18 891.17 985.20 69.20 65 o
2 2 -18 22.36 40.50 53.10 65 <
8 -2 -17 17.09 28.70 53.90 65 <
2 2 -17 23.11 25.50 52.80 65 <
9 -3 -16 7.78 -2.40 53.60 65 <
8 -2 -16 1269.80 1417.70 75.70 65 o
2 2 -16 1114.80 1066.20 70.00 65 o
9 -3 -15 19.59 23.30 53.60 65 <
3 1 -15 185.06 151.90 56.80 65 <
3 1 -14 2407.50 2053.90 83.50 65 o
4 0 -13 828.78 795.90 70.50 65 o
-1 3 -13 59.27 84.80 54.60 65 <
5 -1 -12 618.89 710.70 67.20 65 o
-1 3 -12 619.65 706.70 64.10 65 o
5 -1 -11 1338.70 1445.10 77.50 65 o
6 -2 -10 510.60 366.40 63.30 65 o
0 2 -10 349.05 420.00 62.40 65 o
7 -3 -9 28.44 21.70 53.80 65 <
-4 4 -9 78.75 89.60 55.30 65 <
8 -4 -8 427.07 591.10 62.70 65 o
7 -3 -8 346.59 214.90 58.00 65 o
1 1 -8 1202.00 1224.00 77.80 65 o
-4 4 -8 89.85 56.30 54.10 65 <
8 -4 -7 111.07 109.10 55.70 65 <
-4 4 -7 36.74 36.80 53.70 65 <
2 0 -6 147.80 201.50 74.10 65 <
-3 3 -6 205.39 349.80 60.10 65 o
3 -1 -5 15070.00 12056.10 168.90 65 o
-3 3 -5 177.32 185.80 57.80 65 o
-2 2 -4 737.50 691.70 68.40 65 o
5 -3 -3 1479.50 1329.50 76.60 65 o
4 -2 -3 1482.50 1318.10 77.30 65 o
-2 2 -3 549.89 231.90 63.20 65 o
6 -4 -2 100.15 96.50 54.10 65 <
5 -3 -2 2492.10 2769.70 93.30 65 o
-6 4 -2 55.71 67.60 55.00 65 <
6 -4 -1 31.24 30.00 52.90 65 <
-6 4 -1 5.60 -4.70 54.80 65 <
-5 3 0 421.75 484.70 64.10 65 o
-5 3 1 29.27 124.70 57.10 65 <
2 -2 3 376.91 331.40 65.90 65 o
-4 2 3 1147.30 1113.30 76.00 65 o
4 -4 4 846.98 1082.20 70.30 65 o
3 -3 4 201.42 179.90 57.40 65 o
-8 4 4 665.18 675.80 64.90 65 o
4 -4 5 18.36 37.80 53.50 65 <
-8 4 5 80.36 75.60 55.00 65 <
-2 0 6 169.62 204.40 75.60 65 <
-7 3 6 2601.80 2105.40 86.40 65 o
-1 -1 7 125.98 122.40 64.60 65 <
-7 3 7 21.52 47.70 56.10 65 <
0 -2 8 4098.90 4389.50 109.70 65 o
-6 2 8 631.75 414.00 66.70 65 o
1 -3 9 486.71 495.80 62.40 65 o
0 -2 9 206.97 171.70 59.70 65 <
-6 2 9 155.82 191.60 60.20 65 o
2 -4 10 20.47 32.40 53.30 65 <
1 -3 10 190.47 160.20 56.00 65 <
-5 1 10 113.51 156.60 59.90 65 <
-10 4 10 75.88 35.10 54.50 65 <
-10 4 11 13.86 -25.30 55.00 65 <
-4 0 12 1870.90 2325.70 90.10 65 o
-9 3 12 238.36 169.80 57.70 65 <
-3 -1 13 23.90 88.40 57.60 65 <
-9 3 13 85.36 64.40 55.40 65 <
-2 -2 14 55.30 62.10 54.80 65 <
-8 2 14 211.09 160.00 56.80 65 <
-1 -3 15 173.63 150.40 56.90 65 <
-7 1 15 44.83 17.90 54.90 65 <
-7 1 16 82.09 143.70 55.80 65 <
-6 0 17 106.40 94.60 55.50 65 <
-5 -1 18 850.93 783.10 66.90 65 o
-4 -2 19 21.29 49.00 53.30 65 <
-5 -1 19 68.24 81.00 53.70 65 <
-10 2 19 30.92 25.60 54.20 65 <
-9 1 21 5.73 25.80 53.50 65 <
6 0 -21 47.26 43.20 54.00 66 <
7 -1 -20 179.44 124.30 55.20 66 <
8 -2 -19 211.53 199.50 55.70 66 o
7 -1 -19 27.94 -30.40 53.30 66 <
8 -2 -18 58.27 27.90 53.20 66 <
2 2 -18 30.58 40.00 53.00 66 <
8 -2 -17 7.12 11.40 52.70 66 <
3 1 -17 89.52 66.40 53.90 66 <
9 -3 -16 2.90 10.20 53.80 66 <
3 1 -16 40.23 56.90 55.40 66 <
9 -3 -15 58.89 -33.20 54.50 66 <
-1 3 -15 63.92 29.10 54.30 66 <
4 0 -14 206.76 259.70 59.10 66 o
-1 3 -14 506.61 395.70 59.70 66 o
-1 3 -13 59.46 35.20 54.10 66 <
5 -1 -12 394.08 441.00 65.60 66 o
0 2 -12 1269.20 1051.50 70.60 66 o
6 -2 -11 313.08 350.10 61.00 66 o
0 2 -11 63.99 70.50 55.30 66 <
6 -2 -10 486.03 363.80 62.10 66 o
7 -3 -9 14.80 71.20 54.60 66 <
1 1 -9 213.59 159.70 61.00 66 <
-4 4 -9 74.02 -4.00 54.10 66 <
8 -4 -8 493.08 454.00 61.20 66 o
7 -3 -8 473.47 235.60 57.60 66 o
8 -4 -7 70.77 141.50 56.50 66 <
2 0 -7 1293.20 1321.60 84.80 66 o
-3 3 -7 394.81 180.30 57.60 66 o
-3 3 -6 419.29 387.30 60.80 66 o
3 -1 -5 12986.00 12138.80 169.10 66 o
-2 2 -4 759.44 611.30 68.30 66 o
4 -2 -3 1379.30 1326.20 78.40 66 o
-6 4 -3 160.26 171.50 56.80 66 o
5 -3 -2 2715.50 2646.70 92.00 66 o
-1 1 -2 23570.00 23791.90 230.50 66 o
-6 4 -2 110.92 109.40 54.50 66 <
6 -4 -1 23.70 19.80 53.50 66 <
6 -4 0 727.50 560.60 62.40 66 o
-5 3 0 536.44 597.10 64.40 66 o
-4 2 2 1918.90 1864.90 85.10 66 o
2 -2 3 416.80 470.50 66.20 66 o
-4 2 3 1697.30 1100.80 75.70 66 o
3 -3 4 250.51 232.10 59.00 66 o
-8 4 4 792.37 702.70 67.00 66 o
4 -4 5 48.22 18.60 54.30 66 <
3 -3 5 207.41 213.70 56.90 66 o
-8 4 5 77.99 44.70 55.80 66 <
4 -4 6 13.24 27.40 53.20 66 <
-2 0 6 153.97 311.60 75.00 66 o
-7 3 6 2343.10 2038.70 84.90 66 o
-7 3 7 12.75 41.70 55.80 66 <
-1 -1 8 1391.40 1315.40 77.90 66 o
0 -2 9 122.01 148.90 58.60 66 <
-6 2 9 148.62 142.20 60.80 66 <
1 -3 10 223.36 134.00 56.50 66 <
-10 4 10 79.11 35.60 54.50 66 <
1 -3 11 261.52 220.00 57.50 66 o
-5 1 11 1685.30 1478.60 79.20 66 o
-10 4 11 54.56 -22.40 55.30 66 <
-4 0 12 1874.10 2026.40 86.60 66 o
-9 3 12 225.63 118.80 56.80 66 <
-9 3 13 58.31 41.80 55.70 66 <
-3 -1 14 1720.50 1577.10 79.20 66 o
-8 2 14 163.62 150.10 56.30 66 <
-2 -2 15 104.55 112.40 56.30 66 <
-8 2 15 23.18 -2.20 54.80 66 <
-2 -2 16 1578.50 957.70 68.90 66 o
-7 1 16 113.09 155.40 57.00 66 <
-7 1 17 217.25 139.40 56.80 66 <
-6 0 18 767.82 829.50 67.60 66 o
-5 -1 19 70.10 45.10 54.70 66 <
-5 -1 20 69.00 93.20 55.10 66 <
-9 1 21 10.77 46.80 54.00 66 <
8 -2 -19 117.60 -24.00 55.40 67 <
3 1 -19 202.35 103.20 55.30 67 <
3 1 -18 45.97 42.90 53.30 67 <
3 1 -17 46.26 54.80 53.90 67 <
4 0 -16 713.82 639.30 64.20 67 o
4 0 -15 292.54 234.60 59.10 67 o
-1 3 -15 42.10 50.90 53.70 67 <
5 -1 -14 3391.10 3159.90 97.30 67 o
-1 3 -14 434.51 441.60 60.50 67 o
5 -1 -13 118.14 178.90 59.00 67 o
0 2 -13 236.57 169.20 56.20 67 o
6 -2 -12 6267.40 6789.80 129.90 67 o
0 2 -12 729.60 695.70 65.40 67 o
6 -2 -11 233.20 328.00 62.50 67 o
7 -3 -10 851.87 732.00 64.90 67 o
1 1 -10 7634.90 7569.30 137.30 67 o
8 -4 -9 74.88 75.70 54.60 67 <
7 -3 -9 59.24 37.00 54.70 67 <
1 1 -9 210.70 225.00 62.80 67 o
-4 4 -9 75.50 12.60 54.00 67 <
8 -4 -8 397.29 409.70 59.70 67 o
-3 3 -8 782.37 481.60 61.30 67 o
2 0 -7 1321.50 1264.60 85.30 67 o
-3 3 -7 232.67 282.20 58.00 67 o
3 -1 -5 16214.00 13250.00 175.70 67 o
-2 2 -5 1480.80 1825.40 84.60 67 o
4 -2 -4 1413.70 1493.50 81.00 67 o
-2 2 -4 748.17 861.90 72.50 67 o
5 -3 -3 1092.20 1004.40 71.60 67 o
-6 4 -3 256.41 190.40 57.70 67 o
6 -4 -2 188.77 85.20 54.90 67 <
5 -3 -2 2346.40 2787.60 93.60 67 o
-1 1 -2 24002.00 26328.50 241.40 67 o
-6 4 -2 31.15 89.50 55.70 67 <
6 -4 -1 42.22 47.90 53.50 67 <
6 -4 0 491.28 348.50 59.40 67 o
-5 3 0 551.78 671.40 66.10 67 o
-5 3 1 181.19 131.30 58.80 67 <
1 -1 2 24960.00 24670.90 235.10 67 o
2 -2 3 381.55 343.70 65.20 67 o
-4 2 3 1246.30 1429.40 79.10 67 o
3 -3 4 242.79 265.70 59.30 67 o
-8 4 4 872.18 511.40 65.40 67 o
4 -4 5 26.04 36.60 54.40 67 <
3 -3 5 187.14 190.40 57.40 67 o
-3 1 5 14022.00 11984.40 171.70 67 o
-8 4 5 64.29 9.70 55.50 67 <
4 -4 6 16.05 -30.90 53.40 67 <
-2 0 7 1126.50 1335.90 85.50 67 o
-7 3 7 67.78 91.70 56.80 67 <
-1 -1 8 1455.00 1436.30 80.60 67 o
-7 3 8 645.59 221.00 59.40 67 o
-1 -1 9 195.52 146.00 61.50 67 <
-6 2 9 139.93 17.40 60.20 67 <
0 -2 10 476.35 333.10 60.50 67 o
-6 2 10 669.17 401.50 63.40 67 o
-10 4 10 109.78 0.80 54.80 67 <
1 -3 11 235.38 174.50 56.90 67 o
-5 1 11 1216.00 1210.30 75.70 67 o
-10 4 11 28.84 41.20 56.00 67 <
1 -3 12 1129.50 718.30 66.90 67 o
-5 1 12 665.46 624.10 66.10 67 o
-4 0 13 817.75 807.50 70.30 67 o
-9 3 13 90.61 8.10 55.90 67 <
-3 -1 14 2380.80 2234.80 85.60 67 o
-9 3 14 775.51 707.60 67.40 67 o
-3 -1 15 176.09 173.10 56.50 67 o
-8 2 15 26.09 5.40 54.70 67 <
-2 -2 16 733.13 683.30 64.80 67 o
-8 2 16 1108.60 1075.10 73.30 67 o
-2 -2 17 48.60 11.80 53.30 67 <
-7 1 17 194.33 113.30 56.70 67 <
-7 1 18 859.21 731.10 67.60 67 o
-6 0 19 36.01 59.60 54.80 67 <
-5 -1 20 53.57 51.60 54.70 67 <
-6 0 20 384.86 329.40 59.60 67 o
3 1 -20 334.25 267.30 57.30 68 o
3 1 -19 243.45 62.50 55.00 68 <
4 0 -18 516.85 630.00 63.40 68 o
4 0 -17 637.59 563.70 63.70 68 o
4 0 -16 848.45 572.30 63.30 68 o
5 -1 -15 292.95 327.80 60.00 68 o
0 2 -15 116.66 265.90 58.80 68 o
5 -1 -14 3262.50 3043.10 95.90 68 o
0 2 -14 32.12 48.10 54.70 68 <
6 -2 -13 32.30 18.20 55.60 68 <
0 2 -13 301.11 141.10 56.00 68 <
6 -2 -12 5126.80 5197.20 116.40 68 o
1 1 -12 3100.60 3218.30 98.20 68 o
7 -3 -11 165.11 36.90 56.80 68 <
6 -2 -11 310.99 309.70 61.50 68 o
1 1 -11 234.48 223.80 63.30 68 o
7 -3 -10 683.55 657.50 63.90 68 o
-3 3 -10 1344.10 1537.70 78.50 68 o
8 -4 -9 28.25 1.40 54.70 68 <
7 -3 -9 97.15 126.20 55.30 68 <
-3 3 -9 200.24 344.50 61.00 68 o
8 -4 -8 522.66 436.30 61.40 68 o
2 0 -8 1223.80 1502.90 84.80 68 o
-3 3 -8 717.43 487.10 62.70 68 o
8 -4 -7 204.30 224.60 57.20 68 o
3 -1 -6 133.35 154.40 72.30 68 <
-2 2 -6 1236.90 1497.20 80.40 68 o
-2 2 -5 1684.20 1626.50 81.10 68 o
-6 4 -5 188.21 43.60 56.30 68 <
4 -2 -4 990.28 1052.60 74.40 68 o
-6 4 -4 145.56 164.10 56.30 68 <
4 -2 -3 1207.10 1178.60 77.10 68 o
-6 4 -3 226.76 139.20 57.40 68 <
5 -3 -2 2255.20 2398.60 88.90 68 o
6 -4 -1 62.01 61.90 53.90 68 <
5 -3 -1 171.10 249.90 60.10 68 o
-5 3 -1 292.38 463.40 63.20 68 o
6 -4 0 167.67 259.30 57.20 68 o
-5 3 0 792.58 836.10 69.00 68 o
6 -4 1 38.61 29.80 53.80 68 <
1 -1 2 26156.00 26217.70 242.10 68 o
-4 2 2 1910.90 1721.90 83.60 68 o
-4 2 3 1494.70 1169.30 77.90 68 o
-8 4 3 72.12 105.30 56.70 68 <
2 -2 4 672.03 743.60 70.70 68 o
-8 4 4 926.41 818.70 68.40 68 o
3 -3 5 210.67 184.80 57.80 68 o
-3 1 5 11694.00 11564.30 169.10 68 o
-8 4 5 80.80 90.60 55.40 68 <
4 -4 6 15.24 9.90 53.00 68 <
3 -3 6 478.71 606.20 64.00 68 o
4 -4 7 65.11 51.80 53.90 68 <
-7 3 7 57.79 35.90 56.90 68 <
4 -4 8 42.97 -8.50 54.10 68 <
-7 3 8 486.20 203.50 59.00 68 o
-1 -1 9 222.74 221.70 63.60 68 o
-1 -1 10 8885.20 7965.40 141.70 68 o
-6 2 10 536.79 378.50 63.30 68 o
-10 4 10 115.05 -7.30 55.30 68 <
0 -2 11 51.25 55.10 56.40 68 <
-10 4 11 56.46 9.80 55.30 68 <
1 -3 12 1079.00 765.30 67.40 68 o
0 -2 12 1031.10 930.40 70.70 68 o
-5 1 12 477.39 448.50 64.20 68 o
1 -3 13 76.83 84.70 55.00 68 <
-5 1 13 255.90 201.30 58.00 68 o
-9 3 13 136.27 47.20 56.10 68 <
-4 0 14 245.60 231.10 59.10 68 o
-9 3 14 720.50 571.10 64.10 68 o
-4 0 15 344.49 399.30 61.00 68 o
-9 3 15 25.54 27.00 54.70 68 <
-3 -1 16 39.20 87.50 53.80 68 <
-8 2 16 2015.80 1396.40 76.20 68 o
-2 -2 17 30.49 -41.10 54.00 68 <
-3 -1 17 85.05 68.70 54.50 68 <
-8 2 17 22.54 30.50 54.80 68 <
-2 -2 18 10.81 13.40 52.80 68 <
-7 1 18 1335.90 772.00 67.00 68 o
-7 1 19 21.96 15.10 54.10 68 <
-6 0 20 450.64 318.50 59.10 68 o
-6 0 21 72.65 -2.40 53.60 68 <
4 0 -20 447.76 543.80 62.90 69 o
4 0 -19 83.02 136.80 55.30 69 <
4 0 -18 628.69 571.20 62.10 69 o
0 2 -18 174.84 177.90 55.60 69 o
5 -1 -17 79.70 59.00 55.10 69 <
0 2 -17 103.00 160.30 55.70 69 <
5 -1 -16 126.30 120.30 54.90 69 <
0 2 -16 49.09 69.80 54.40 69 <
5 -1 -15 230.12 375.40 60.30 69 o
0 2 -15 89.76 300.80 59.60 69 o
6 -2 -14 286.93 205.00 57.30 69 o
6 -2 -13 54.88 46.10 56.40 69 <
1 1 -13 380.41 572.70 65.20 69 o
7 -3 -12 210.89 138.70 55.80 69 <
6 -2 -12 6719.70 6252.70 124.10 69 o
1 1 -12 1706.10 2387.20 89.60 69 o
7 -3 -11 124.32 -5.50 57.70 69 <
-3 3 -11 64.92 93.70 54.90 69 <
8 -4 -10 88.08 49.40 55.30 69 <
7 -3 -10 751.70 739.50 65.00 69 o
-3 3 -10 1055.10 1182.50 73.60 69 o
8 -4 -9 72.81 43.20 54.10 69 <
2 0 -9 703.66 694.30 72.30 69 o
-3 3 -9 235.48 294.30 59.40 69 o
8 -4 -8 282.44 400.10 60.00 69 o
-2 2 -7 1911.00 1932.50 84.30 69 o
3 -1 -6 132.53 260.90 71.00 69 o
-2 2 -6 1011.70 1467.90 79.50 69 o
-6 4 -6 228.87 213.60 57.30 69 o
-6 4 -5 114.36 119.60 55.80 69 <
4 -2 -4 1440.40 1322.00 79.00 69 o
-6 4 -4 110.52 158.40 57.00 69 <
4 -2 -3 1276.40 1189.40 77.80 69 o
-1 1 -3 10832.00 10458.70 162.80 69 o
5 -3 -2 3183.60 2799.20 92.50 69 o
6 -4 -1 121.90 113.90 54.60 69 <
5 -3 -1 38.60 181.10 58.50 69 o
-5 3 -1 237.10 291.60 61.70 69 o
6 -4 0 143.17 140.40 56.90 69 <
-5 3 0 1499.50 1006.30 72.00 69 o
6 -4 1 26.16 21.10 54.10 69 <
-4 2 2 2000.30 1835.00 84.60 69 o
-4 2 3 1355.50 1199.40 76.70 69 o
-8 4 3 67.35 82.20 56.50 69 <
-8 4 4 723.00 702.50 66.20 69 o
2 -2 5 1324.00 1791.40 83.20 69 o
-8 4 5 115.96 29.30 55.40 69 <
3 -3 6 222.84 325.40 61.20 69 o
-3 1 6 141.57 197.50 71.10 69 <
4 -4 7 44.05 10.20 53.70 69 <
3 -3 7 170.15 213.80 58.40 69 o
-7 3 7 179.40 84.50 57.30 69 <
4 -4 8 82.56 15.30 53.20 69 <
-2 0 8 1323.70 1551.00 85.00 69 o
-7 3 8 242.35 165.90 57.30 69 <
4 -4 9 49.41 56.30 54.10 69 <
-1 -1 10 7180.50 6525.00 129.40 69 o
-6 2 10 313.25 304.20 61.50 69 o
-1 -1 11 228.43 187.50 62.20 69 o
-6 2 11 337.43 423.40 65.60 69 o
-10 4 11 32.57 66.40 55.70 69 <
0 -2 12 724.19 711.60 67.30 69 o
1 -3 13 80.56 79.90 54.20 69 <
0 -2 13 94.12 126.40 56.70 69 <
-5 1 13 230.99 262.90 60.20 69 o
1 -3 14 286.75 303.90 57.70 69 o
-5 1 14 3004.50 2746.50 97.50 69 o
-9 3 14 933.67 551.20 65.00 69 o
1 -3 15 103.77 51.60 54.70 69 <
-4 0 15 193.98 359.30 60.40 69 o
-9 3 15 12.38 38.50 54.80 69 <
-4 0 16 491.10 512.50 63.50 69 o
-9 3 16 26.06 20.90 54.80 69 <
-3 -1 17 59.78 84.00 53.70 69 <
-8 2 17 38.26 53.10 54.70 69 <
-3 -1 18 32.57 77.60 53.40 69 <
-8 2 18 49.45 -2.90 53.90 69 <
-7 1 20 225.02 155.60 56.40 69 <
5 -1 -20 113.96 96.80 54.80 70 <
4 0 -20 578.35 608.80 63.80 70 o
5 -1 -19 71.57 58.10 54.90 70 <
5 -1 -18 650.01 806.20 66.90 70 o
0 2 -18 131.30 -15.60 54.40 70 <
5 -1 -17 59.06 39.40 53.40 70 <
0 2 -17 133.35 116.00 55.90 70 <
6 -2 -16 251.32 249.80 58.70 70 o
6 -2 -15 16.58 10.50 54.50 70 <
1 1 -15 514.91 584.10 64.20 70 o
6 -2 -14 163.96 158.40 56.90 70 <
1 1 -14 734.39 794.10 68.40 70 o
7 -3 -13 62.37 97.20 53.30 70 <
6 -2 -13 42.22 88.20 55.00 70 <
1 1 -13 459.12 553.30 64.60 70 o
-3 3 -13 30.04 35.50 52.70 70 <
7 -3 -12 87.83 87.10 55.10 70 <
-3 3 -12 41.99 5.60 53.80 70 <
8 -4 -11 153.80 278.90 57.30 70 o
7 -3 -11 102.17 38.80 57.20 70 <
2 0 -11 713.03 533.00 66.90 70 o
-3 3 -11 50.23 -10.90 55.30 70 <
8 -4 -10 35.49 45.00 54.70 70 <
7 -3 -10 844.94 749.10 64.90 70 o
2 0 -10 820.70 933.10 72.90 70 o
-3 3 -10 1286.80 1393.80 75.20 70 o
8 -4 -9 56.15 74.90 54.10 70 <
8 -4 -8 500.58 525.00 62.00 70 o
-2 2 -8 1972.30 2259.10 89.50 70 o
3 -1 -7 2060.70 1987.30 89.80 70 o
-2 2 -7 1503.00 1757.80 83.00 70 o
-6 4 -7 284.13 386.60 59.70 70 o
3 -1 -6 96.85 216.80 71.80 70 o
-6 4 -6 114.36 84.50 55.70 70 <
-6 4 -5 87.28 109.50 56.10 70 <
4 -2 -4 789.74 1009.30 74.60 70 o
-6 4 -4 201.72 225.00 57.80 70 o
-1 1 -3 12643.00 10214.10 163.40 70 o
5 -3 -2 2327.90 2430.50 89.40 70 o
-5 3 -2 607.64 653.10 66.60 70 o
5 -3 -1 50.62 133.40 58.50 70 <
-5 3 -1 283.81 472.20 63.80 70 o
6 -4 0 209.22 265.90 56.80 70 o
6 -4 1 52.57 122.70 53.80 70 <
6 -4 2 52.88 50.20 54.20 70 <
-4 2 2 1774.50 1876.10 85.80 70 o
1 -1 3 12387.00 11456.00 168.90 70 o
-4 2 3 951.82 1130.70 76.30 70 o
-8 4 3 81.90 148.20 55.80 70 <
-8 4 4 701.77 696.60 65.60 70 o
2 -2 5 1243.90 1629.80 81.70 70 o
-8 4 5 83.32 56.20 56.30 70 <
2 -2 6 1683.40 1584.30 81.10 70 o
-3 1 6 181.95 231.90 73.10 70 o
3 -3 7 223.33 183.40 57.30 70 o
-7 3 7 100.72 133.70 57.50 70 <
4 -4 8 47.33 38.40 53.50 70 <
3 -3 8 738.21 586.90 63.20 70 o
-7 3 8 394.58 523.50 63.60 70 o
4 -4 9 65.81 58.90 53.80 70 <
-2 0 9 626.42 611.10 68.90 70 o
-1 -1 11 162.05 189.80 62.90 70 o
-6 2 11 190.13 335.30 63.20 70 o
-10 4 11 51.90 96.90 56.00 70 <
-1 -1 12 2417.30 2599.20 93.70 70 o
-6 2 12 6137.20 6188.20 129.10 70 o
0 -2 13 165.61 117.30 56.60 70 <
1 -3 14 425.84 379.90 58.90 70 o
0 -2 14 42.43 115.00 56.00 70 <
-5 1 14 2078.40 2224.80 88.90 70 o
1 -3 15 91.19 85.80 54.70 70 <
-5 1 15 312.55 309.20 60.00 70 o
-9 3 15 14.41 30.90 55.00 70 <
-4 0 16 514.10 490.30 62.30 70 o
-9 3 16 37.04 31.30 55.50 70 <
-4 0 17 393.92 419.60 62.00 70 o
-3 -1 18 50.81 42.80 54.00 70 <
-8 2 18 37.53 27.20 53.90 70 <
-3 -1 19 137.91 61.40 55.50 70 <
-8 2 19 57.79 51.40 55.40 70 <
-3 -1 20 320.07 237.80 56.90 70 o
5 -1 -20 72.07 -28.30 53.10 71 <
6 -2 -19 28.38 -21.60 54.30 71 <
5 -1 -19 103.11 71.00 55.30 71 <
6 -2 -18 389.70 476.90 61.90 71 o
1 1 -18 291.11 245.80 57.00 71 o
6 -2 -17 73.17 61.20 54.40 71 <
1 1 -17 20.64 -24.50 53.60 71 <
6 -2 -16 155.45 132.40 56.50 71 <
1 1 -16 624.92 575.70 63.80 71 o
7 -3 -15 25.74 48.30 54.00 71 <
6 -2 -15 44.70 17.70 53.80 71 <
1 1 -15 515.30 539.10 63.50 71 o
7 -3 -14 19.99 0.90 54.60 71 <
-3 3 -14 103.69 98.40 54.40 71 <
7 -3 -13 20.32 39.80 53.90 71 <
-3 3 -13 25.31 21.70 53.70 71 <
7 -3 -12 197.58 182.70 56.30 71 o
2 0 -12 561.27 586.70 66.90 71 o
-3 3 -12 41.25 41.30 53.90 71 <
8 -4 -11 139.10 261.70 57.70 71 o
7 -3 -11 178.41 61.20 58.10 71 <
2 0 -11 479.01 411.90 65.60 71 o
8 -4 -10 68.74 46.80 55.80 71 <
8 -4 -9 63.78 -12.10 54.60 71 <
-2 2 -9 513.62 768.30 68.90 71 o
8 -4 -8 618.41 648.70 63.10 71 o
3 -1 -8 518.77 903.60 75.20 71 o
-2 2 -8 1693.10 1923.80 84.80 71 o
-6 4 -8 498.47 372.80 59.10 71 o
3 -1 -7 1818.70 1668.20 87.00 71 o
-6 4 -7 278.18 263.20 59.10 71 o
-6 4 -6 198.32 143.00 56.50 71 <
4 -2 -5 87.68 216.80 61.70 71 o
-6 4 -5 172.35 119.60 55.60 71 <
4 -2 -4 598.67 622.00 69.40 71 o
-1 1 -4 13828.00 14729.00 186.20 71 o
-5 3 -3 745.34 474.10 64.30 71 o
5 -3 -2 2772.50 2911.60 94.80 71 o
-5 3 -2 612.81 688.90 66.20 71 o
5 -3 -1 20.81 73.70 58.30 71 <
-5 3 -1 303.99 386.40 62.20 71 o
6 -4 0 514.53 314.40 59.30 71 o
6 -4 1 39.47 33.60 54.30 71 <
6 -4 2 37.59 16.10 54.10 71 <
-4 2 2 2026.80 1738.80 84.00 71 o
1 -1 3 13700.00 11480.10 170.10 71 o
-4 2 3 926.13 1095.00 76.40 71 o
-8 4 3 119.59 93.70 56.80 71 <
-8 4 4 932.69 734.20 67.40 71 o
-8 4 5 99.27 50.40 55.50 71 <
2 -2 6 1238.20 1420.40 77.70 71 o
-3 1 6 136.94 209.50 71.20 71 <
-3 1 7 2116.20 1548.40 85.20 71 o
3 -3 8 770.31 598.10 62.80 71 o
-7 3 8 123.11 113.20 58.70 71 <
4 -4 9 64.50 47.30 53.90 71 <
3 -3 9 199.11 251.00 59.70 71 o
-2 0 9 623.16 589.20 69.70 71 o
-7 3 9 91.40 74.00 57.30 71 <
-2 0 10 967.73 1082.00 75.00 71 o
-6 2 11 654.74 476.30 65.10 71 o
-1 -1 12 2081.10 2273.80 89.30 71 o
-6 2 12 5291.90 5102.00 120.20 71 o
-1 -1 13 486.27 517.10 64.90 71 o
-6 2 13 68.10 44.60 56.20 71 <
0 -2 14 83.57 178.80 55.90 71 o
0 -2 15 152.99 307.50 59.10 71 o
-5 1 15 167.41 293.70 59.70 71 o
0 -2 16 65.22 57.20 54.20 71 <
-5 1 16 210.32 376.00 59.80 71 o
-9 3 16 24.10 64.70 54.60 71 <
-4 0 17 1001.90 530.00 63.60 71 o
-4 0 18 558.73 551.30 63.20 71 o
-4 0 19 89.58 63.90 53.90 71 <
-8 2 19 53.83 53.80 55.90 71 <
-3 -1 20 286.31 213.80 58.20 71 o
6 -2 -19 17.95 21.20 53.80 72 <
1 1 -19 8.69 -29.00 53.70 72 <
6 -2 -18 427.76 513.80 62.50 72 o
1 1 -18 317.67 181.80 56.20 72 o
6 -2 -17 92.52 80.20 54.70 72 <
1 1 -17 5.92 57.40 53.60 72 <
7 -3 -16 49.14 69.80 54.20 72 <
7 -3 -15 30.84 20.60 54.20 72 <
2 0 -15 338.12 386.50 60.30 72 o
7 -3 -14 23.60 31.10 54.20 72 <
2 0 -14 162.29 158.70 57.60 72 <
7 -3 -13 33.07 51.20 54.30 72 <
2 0 -13 304.32 288.80 60.90 72 o
7 -3 -12 136.06 194.20 56.40 72 o
2 0 -12 962.23 602.50 67.80 72 o
-2 2 -12 113.70 86.40 55.90 72 <
8 -4 -11 140.59 184.70 56.40 72 o
-2 2 -11 110.72 197.30 57.90 72 o
8 -4 -10 43.00 -25.20 54.60 72 <
-2 2 -10 195.36 350.00 61.20 72 o
8 -4 -9 60.13 -13.10 54.50 72 <
3 -1 -9 267.90 408.20 66.20 72 o
-2 2 -9 563.43 721.20 67.10 72 o
3 -1 -8 503.61 735.80 71.30 72 o
-6 4 -8 547.30 353.70 60.60 72 o
-6 4 -7 301.64 280.30 59.20 72 o
4 -2 -5 91.27 166.80 61.00 72 <
-1 1 -5 5213.90 4356.00 119.60 72 o
4 -2 -4 889.69 875.80 73.20 72 o
-1 1 -4 16392.00 17037.70 198.00 72 o
-5 3 -4 1940.10 1615.40 78.80 72 o
-5 3 -3 485.02 374.60 62.80 72 o
5 -3 -2 3064.20 2686.70 91.40 72 o
-5 3 -2 481.14 490.80 64.00 72 o
5 -3 -1 8.21 -17.30 56.90 72 <
5 -3 0 731.23 789.60 68.40 72 o
6 -4 1 42.58 65.20 54.60 72 <
6 -4 2 18.18 31.10 54.20 72 <
-4 2 2 1998.50 2044.70 87.30 72 o
-8 4 2 28.37 18.40 54.80 72 <
6 -4 3 198.29 197.10 56.80 72 o
-4 2 3 1210.50 1119.70 76.30 72 o
-8 4 3 130.89 116.30 56.60 72 <
1 -1 4 13170.00 15137.50 187.60 72 o
-8 4 4 852.75 627.80 65.60 72 o
-8 4 5 38.59 45.90 55.20 72 <
2 -2 7 1484.60 1262.20 77.70 72 o
-3 1 7 1689.20 1578.00 85.20 72 o
2 -2 8 2467.60 2126.60 88.30 72 o
-7 3 8 598.33 503.70 62.80 72 o
3 -3 9 200.92 305.80 59.80 72 o
-7 3 9 20.10 73.20 56.50 72 <
3 -3 10 931.06 1058.50 70.70 72 o
-2 0 10 1335.20 1176.60 75.90 72 o
-7 3 10 697.96 499.60 64.70 72 o
3 -3 11 113.30 55.70 54.20 72 <
-2 0 11 438.22 463.90 64.60 72 o
-6 2 12 6319.20 6052.40 124.70 72 o
-1 -1 13 572.28 625.20 65.90 72 o
-6 2 13 29.07 3.00 56.10 72 <
-1 -1 14 773.65 746.50 68.10 72 o
-6 2 14 178.13 150.00 56.50 72 <
-1 -1 15 626.76 633.80 64.30 72 o
0 -2 16 62.74 26.30 53.70 72 <
-5 1 16 212.38 198.10 56.90 72 o
0 -2 17 165.11 108.70 55.20 72 <
-5 1 17 69.64 34.80 55.50 72 <
0 -2 18 203.30 201.40 55.90 72 o
-5 1 18 1136.70 949.00 72.10 72 o
-4 0 19 44.15 79.40 53.90 72 <
-4 0 20 434.99 383.40 60.50 72 o
2 0 -20 40.23 53.80 54.20 73 <
2 0 -19 50.01 12.30 53.40 73 <
2 0 -18 38.72 85.90 54.20 73 <
2 0 -17 45.50 50.30 53.90 73 <
-2 2 -17 97.22 46.00 54.90 73 <
7 -3 -16 15.71 27.20 53.90 73 <
2 0 -16 1511.60 1482.60 76.80 73 o
-2 2 -16 914.31 867.10 67.80 73 o
7 -3 -15 24.52 21.60 54.00 73 <
2 0 -15 285.23 302.50 58.90 73 o
-2 2 -15 785.86 773.40 67.30 73 o
7 -3 -14 78.00 78.70 54.80 73 <
-2 2 -14 318.20 352.80 60.20 73 o
-2 2 -13 31.16 44.70 54.30 73 <
3 -1 -12 1199.70 1111.40 74.20 73 o
-2 2 -12 82.93 93.60 55.20 73 <
8 -4 -11 183.34 233.40 58.20 73 o
3 -1 -11 65.15 57.80 59.40 73 <
-2 2 -11 133.25 276.70 58.00 73 o
8 -4 -10 124.07 104.80 56.80 73 <
3 -1 -10 1940.20 1810.20 83.70 73 o
3 -1 -9 419.75 481.00 66.20 73 o
4 -2 -6 357.09 430.90 64.30 73 o
-1 1 -6 18934.00 19926.10 211.90 73 o
4 -2 -5 134.22 222.30 61.70 73 o
-1 1 -5 5646.60 3871.80 115.50 73 o
-5 3 -5 56.85 47.00 54.80 73 <
4 -2 -4 1012.90 872.50 72.50 73 o
-5 3 -4 1556.80 1399.70 75.60 73 o
-5 3 -3 550.15 396.30 62.50 73 o
5 -3 -2 3018.30 3317.50 98.70 73 o
-5 3 -2 964.44 1038.10 72.80 73 o
5 -3 -1 17.27 -22.60 57.90 73 <
5 -3 0 833.10 1001.00 71.40 73 o
6 -4 1 73.15 66.00 53.50 73 <
5 -3 1 468.33 393.70 62.70 73 o
6 -4 2 44.82 54.70 54.30 73 <
-4 2 2 1780.00 1720.20 84.10 73 o
-8 4 2 39.79 72.50 55.50 73 <
6 -4 3 157.00 235.40 56.60 73 o
-4 2 3 916.87 1189.40 76.50 73 o
-8 4 3 144.12 119.40 56.60 73 <
6 -4 4 154.96 235.00 58.00 73 o
1 -1 4 14812.00 17132.90 198.70 73 o
-8 4 4 971.15 853.30 68.70 73 o
1 -1 5 5686.90 4637.50 120.80 73 o
-8 4 5 50.06 12.40 54.70 73 <
2 -2 8 1828.90 1752.40 84.90 73 o
-3 1 8 450.28 709.80 71.10 73 o
-7 3 8 397.92 209.30 59.70 73 o
2 -2 9 622.20 673.60 69.80 73 o
-7 3 9 22.19 35.20 57.60 73 <
3 -3 10 1073.90 1179.80 72.70 73 o
-7 3 10 905.17 579.50 66.00 73 o
3 -3 11 54.04 28.10 54.20 73 <
-7 3 11 182.82 137.00 56.40 73 <
3 -3 12 32.35 23.30 53.60 73 <
-2 0 12 599.50 413.20 66.10 73 o
3 -3 13 36.97 38.70 54.20 73 <
-2 0 13 318.23 276.70 62.80 73 o
-6 2 14 292.50 188.00 57.30 73 o
-1 -1 15 557.00 463.60 62.60 73 o
-6 2 15 15.08 53.00 54.90 73 <
-1 -1 16 602.02 522.50 63.70 73 o
-6 2 16 283.84 181.60 58.60 73 o
-1 -1 17 28.75 60.50 53.20 73 <
0 -2 18 191.99 137.60 56.00 73 <
-5 1 18 987.87 913.10 69.80 73 o
-5 1 19 91.96 62.60 54.80 73 <
-5 1 20 84.16 130.30 55.30 73 <
2 0 -20 33.91 64.20 52.60 74 <
2 0 -19 75.81 37.60 54.30 74 <
2 0 -18 49.75 19.10 54.20 74 <
-2 2 -17 67.00 44.10 54.40 74 <
3 -1 -16 55.31 86.30 54.50 74 <
-2 2 -16 790.44 678.10 65.40 74 o
3 -1 -15 212.19 133.90 56.70 74 <
-2 2 -15 815.51 709.60 65.70 74 o
3 -1 -14 1808.20 1821.60 81.80 74 o
-2 2 -14 357.78 445.90 61.40 74 o
3 -1 -13 20.55 124.00 59.70 74 <
3 -1 -12 771.42 781.90 70.30 74 o
8 -4 -11 209.27 254.60 57.70 74 o
3 -1 -11 79.43 150.70 61.00 74 <
-1 1 -9 3692.30 3176.40 101.50 74 o
-1 1 -8 141.57 238.60 65.70 74 o
-5 3 -8 78.97 60.80 54.10 74 <
4 -2 -7 130.36 148.70 62.40 74 <
-1 1 -7 228.00 215.80 69.20 74 o
-5 3 -7 167.87 226.10 57.20 74 o
4 -2 -6 168.32 233.10 62.60 74 o
-1 1 -6 23602.00 23558.20 228.00 74 o
-5 3 -6 295.57 268.80 59.20 74 o
4 -2 -5 88.87 219.80 61.70 74 o
-5 3 -5 58.25 56.50 55.00 74 <
4 -2 -4 1198.00 1142.20 76.50 74 o
-5 3 -4 1002.00 1078.50 72.20 74 o
-5 3 -3 522.25 391.50 61.80 74 o
5 -3 -2 3852.60 3929.10 104.60 74 o
5 -3 -1 18.23 58.80 57.70 74 <
5 -3 0 692.26 700.10 67.20 74 o
5 -3 1 360.06 444.90 62.90 74 o
6 -4 2 124.97 129.80 55.00 74 <
-4 2 2 1767.00 1787.00 85.20 74 o
-8 4 2 48.37 68.10 55.10 74 <
6 -4 3 128.10 126.20 55.70 74 <
-4 2 3 900.97 1182.50 77.50 74 o
-8 4 3 116.47 79.70 54.90 74 <
6 -4 4 90.16 156.70 56.00 74 <
-4 2 4 984.75 967.00 73.80 74 o
-8 4 4 769.78 622.80 65.60 74 o
6 -4 5 82.13 75.50 53.40 74 <
1 -1 5 5035.20 4367.30 118.40 74 o
-8 4 5 26.42 -15.20 56.30 74 <
6 -4 6 459.96 320.10 58.90 74 o
1 -1 6 20104.00 20366.70 215.40 74 o
-8 4 6 238.41 131.00 56.40 74 <
-3 1 8 668.37 825.30 72.60 74 o
2 -2 9 702.27 839.60 70.40 74 o
-3 1 9 462.52 457.30 66.40 74 o
-7 3 9 25.30 48.20 56.00 74 <
2 -2 10 281.68 424.30 61.40 74 o
-3 1 10 2210.20 1764.00 83.80 74 o
-7 3 10 430.41 399.50 62.00 74 o
2 -2 11 157.15 85.20 56.50 74 <
-7 3 11 62.78 17.60 55.90 74 <
3 -3 12 28.05 51.80 53.90 74 <
-7 3 12 87.79 99.00 55.70 74 <
3 -3 13 51.10 -5.90 53.90 74 <
-2 0 13 332.52 236.90 61.70 74 o
3 -3 14 188.86 181.40 55.80 74 o
-2 0 14 135.91 191.70 58.20 74 o
-2 0 15 305.77 262.20 61.00 74 o
-6 2 15 23.93 -19.40 55.20 74 <
-6 2 16 126.50 103.50 55.70 74 <
-1 -1 17 18.30 -22.60 54.30 74 <
-6 2 17 89.74 73.60 54.90 74 <
-1 -1 18 213.78 211.10 57.10 74 o
-6 2 18 517.40 530.10 64.90 74 o
-1 -1 19 14.07 8.20 53.70 74 <
-5 1 20 80.45 92.00 55.70 74 <
3 -1 -20 302.76 265.80 57.20 75 o
3 -1 -19 140.86 131.00 54.60 75 <
3 -1 -18 52.81 68.40 53.80 75 <
3 -1 -17 165.08 78.40 55.70 75 <
3 -1 -16 54.51 46.10 54.40 75 <
-1 1 -16 220.47 178.70 56.20 75 o
3 -1 -15 218.75 125.50 56.30 75 <
-1 1 -15 421.28 335.50 61.00 75 o
3 -1 -14 2112.00 1912.20 83.70 75 o
-1 1 -14 1391.10 1066.40 72.40 75 o
3 -1 -13 17.38 101.00 57.70 75 <
-1 1 -13 196.00 160.80 57.50 75 <
-5 3 -13 54.44 -4.50 54.20 75 <
-1 1 -12 2793.60 3163.60 99.10 75 o
-5 3 -12 94.31 28.10 54.20 75 <
-1 1 -11 779.56 927.30 72.20 75 o
-5 3 -11 46.25 35.20 53.90 75 <
-1 1 -10 319.86 318.60 65.00 75 o
-5 3 -10 181.28 210.00 57.70 75 o
4 -2 -9 108.91 -31.00 60.70 75 <
-1 1 -9 2947.60 3156.90 99.50 75 o
-5 3 -9 38.62 -20.00 54.00 75 <
4 -2 -8 12258.00 12297.10 169.10 75 o
-1 1 -8 125.08 312.20 64.80 75 o
-5 3 -8 60.51 43.20 54.30 75 <
4 -2 -7 96.27 33.00 61.60 75 <
-5 3 -7 80.07 118.80 56.80 75 <
4 -2 -6 70.10 124.00 61.20 75 <
-5 3 -6 342.63 309.80 58.00 75 o
4 -2 -5 78.17 162.40 62.20 75 <
-5 3 -5 30.91 43.50 54.90 75 <
-5 3 -4 2371.90 2101.90 85.20 75 o
5 -3 -2 3948.10 4036.40 105.90 75 o
5 -3 -1 24.89 -12.00 57.40 75 <
5 -3 0 657.92 711.60 67.30 75 o
5 -3 1 706.36 411.20 63.20 75 o
-8 4 1 14.33 -12.10 54.20 75 <
5 -3 2 763.19 809.40 67.90 75 o
-4 2 2 1897.40 1669.10 82.60 75 o
-8 4 2 46.48 65.80 55.80 75 <
6 -4 3 152.82 155.90 57.20 75 <
-4 2 3 1018.90 1158.80 79.10 75 o
-8 4 3 114.02 25.20 55.50 75 <
6 -4 4 124.02 142.30 57.20 75 <
-4 2 4 1021.50 1013.70 74.90 75 o
-8 4 4 961.44 774.30 67.70 75 o
6 -4 5 83.32 17.60 54.00 75 <
-8 4 5 37.18 -3.70 54.80 75 <
6 -4 6 228.54 209.50 57.60 75 o
1 -1 6 23771.00 21802.70 220.70 75 o
-8 4 6 251.85 123.30 56.80 75 <
6 -4 7 329.32 303.20 58.30 75 o
1 -1 7 275.47 275.20 68.70 75 o
-8 4 7 137.69 80.00 57.10 75 <
6 -4 8 649.10 514.00 61.80 75 o
1 -1 8 264.99 235.50 64.20 75 o
2 -2 10 454.29 586.80 65.20 75 o
-3 1 10 1889.20 1650.30 81.70 75 o
-7 3 10 1075.90 572.80 65.00 75 o
2 -2 11 112.67 90.10 55.40 75 <
-3 1 11 106.16 67.70 59.90 75 <
-7 3 11 178.13 50.80 55.80 75 <
2 -2 12 57.26 162.60 56.50 75 <
-3 1 12 1107.20 952.20 71.70 75 o
-7 3 12 105.86 68.30 55.90 75 <
2 -2 13 114.32 69.30 54.20 75 <
-7 3 13 60.53 70.00 53.60 75 <
3 -3 14 225.12 210.50 55.80 75 o
2 -2 14 477.52 487.90 62.00 75 o
-7 3 14 53.58 18.70 53.60 75 <
-2 0 15 277.49 242.70 58.90 75 o
-2 0 16 1547.00 1336.10 75.20 75 o
-2 0 17 52.49 13.60 54.10 75 <
-6 2 17 117.97 64.10 54.90 75 <
-2 0 18 49.87 36.30 53.50 75 <
-6 2 18 379.19 377.40 60.40 75 o
-1 -1 19 24.10 20.40 53.00 75 <
-6 2 19 34.62 18.10 54.10 75 <
4 -2 -19 29.59 22.80 53.30 76 <
-1 1 -19 4.56 6.30 53.30 76 <
4 -2 -18 476.20 398.60 60.00 76 o
-1 1 -18 47.86 -0.20 54.90 76 <
4 -2 -17 455.66 497.90 62.20 76 o
-1 1 -17 128.60 128.80 55.10 76 <
4 -2 -16 625.60 496.90 62.00 76 o
-1 1 -16 127.47 167.30 55.70 76 o
4 -2 -15 27.29 40.30 53.80 76 <
-1 1 -15 387.16 349.60 59.10 76 o
4 -2 -14 456.66 381.50 60.20 76 o
-1 1 -14 1300.60 984.50 71.20 76 o
4 -2 -13 426.37 352.10 60.80 76 o
-1 1 -13 178.43 111.70 57.00 76 <
-5 3 -13 30.04 -4.50 54.20 76 <
4 -2 -12 730.58 712.50 67.80 76 o
-1 1 -12 3802.10 3685.20 103.30 76 o
-5 3 -12 98.28 56.10 54.60 76 <
4 -2 -11 1295.70 1581.30 79.90 76 o
-5 3 -11 100.80 -20.40 53.50 76 <
4 -2 -10 194.41 247.10 60.90 76 o
-5 3 -10 240.77 222.60 57.20 76 o
4 -2 -9 99.20 102.40 61.30 76 <
-5 3 -9 50.84 43.10 54.70 76 <
4 -2 -8 8145.10 8748.50 145.60 76 o
-5 3 -8 44.40 57.80 54.00 76 <
4 -2 -7 74.40 56.30 60.80 76 <
4 -2 -6 114.36 120.90 59.90 76 <
-8 4 -2 770.89 392.90 60.70 76 o
5 -3 -1 60.57 21.10 57.70 76 <
-8 4 -1 57.37 -10.20 54.80 76 <
5 -3 0 751.19 760.20 67.80 76 o
-8 4 0 19.36 19.00 54.60 76 <
5 -3 1 246.76 436.10 63.80 76 o
-8 4 1 7.60 12.00 54.50 76 <
5 -3 2 478.48 565.70 65.10 76 o
-4 2 2 1617.10 1486.70 81.60 76 o
-8 4 2 40.90 11.70 55.50 76 <
5 -3 3 487.58 460.10 62.50 76 o
-4 2 3 909.29 1020.40 75.90 76 o
-8 4 3 65.50 57.20 56.10 76 <
5 -3 4 2022.70 1492.50 78.30 76 o
-4 2 4 976.97 847.70 74.30 76 o
-8 4 4 833.10 673.80 66.20 76 o
6 -4 5 195.23 64.70 54.60 76 <
-4 2 5 51.15 81.20 61.50 76 <
-8 4 5 25.58 -11.30 55.20 76 <
6 -4 6 212.30 148.90 55.30 76 <
-8 4 6 236.59 89.40 55.90 76 <
6 -4 7 112.02 200.30 56.30 76 o
-8 4 7 110.16 123.30 57.00 76 <
6 -4 8 403.47 330.20 58.50 76 o
1 -1 8 94.33 195.50 62.30 76 o
1 -1 9 3047.80 3211.10 99.60 76 o
1 -1 10 272.16 418.10 64.90 76 o
1 -1 11 1212.30 779.40 71.60 76 o
-3 1 11 54.78 78.40 59.20 76 <
-3 1 12 880.47 862.40 69.90 76 o
-7 3 12 132.48 86.40 56.10 76 <
2 -2 13 91.37 73.00 53.70 76 <
-3 1 13 27.49 -15.90 57.10 76 <
-7 3 13 27.83 58.10 54.90 76 <
2 -2 14 312.38 337.50 59.40 76 o
-3 1 14 2048.90 1753.90 80.30 76 o
-7 3 14 56.99 4.80 55.20 76 <
2 -2 15 779.93 861.50 68.10 76 o
-3 1 15 283.88 153.70 55.80 76 <
-7 3 15 19.65 8.00 54.20 76 <
2 -2 16 927.11 858.90 67.00 76 o
-7 3 16 23.70 -7.60 54.40 76 <
2 -2 17 118.76 112.90 54.60 76 <
-2 0 17 50.01 24.20 53.90 76 <
-2 0 18 32.47 -3.50 54.00 76 <
-2 0 19 42.27 48.50 53.30 76 <
-6 2 19 36.90 63.90 53.80 76 <
-2 0 20 43.69 37.80 53.50 76 <
4 -2 -19 23.59 6.80 53.20 77 <
0 0 -19 14.23 18.00 52.70 77 <
4 -2 -18 226.51 199.60 56.90 77 o
0 0 -18 516.31 301.70 58.30 77 o
4 -2 -17 202.73 177.70 56.30 77 o
0 0 -17 139.33 76.60 55.10 77 <
4 -2 -16 365.58 283.90 59.10 77 o
4 -2 -15 45.53 34.70 54.20 77 <
4 -2 -14 279.72 542.50 62.50 77 o
4 -2 -13 339.14 424.50 60.60 77 o
4 -2 -12 661.22 695.20 66.80 77 o
4 -2 -11 1155.60 1292.00 76.20 77 o
4 -2 -10 407.00 530.20 66.20 77 o
4 -2 -9 66.86 3.50 60.90 77 <
4 -2 -8 10224.00 10562.00 156.20 77 o
4 -2 -7 70.40 132.20 60.80 77 <
4 -2 -6 202.67 180.10 61.50 77 <
-8 4 -6 63.74 16.10 54.00 77 <
-8 4 -5 40.34 45.80 53.70 77 <
-8 4 -4 555.99 374.40 61.90 77 o
-8 4 -3 205.24 142.30 57.10 77 <
-8 4 -2 396.55 305.10 60.10 77 o
-8 4 -1 31.98 5.00 54.30 77 <
5 -3 0 850.35 710.40 68.00 77 o
-4 2 0 7392.30 7353.80 135.80 77 o
-8 4 0 12.22 39.50 54.80 77 <
5 -3 1 699.96 525.90 64.00 77 o
-4 2 1 1345.40 925.10 75.50 77 o
-8 4 1 10.81 38.20 54.20 77 <
5 -3 2 481.52 437.00 62.30 77 o
-4 2 2 1498.40 1474.60 81.70 77 o
-8 4 2 42.06 41.00 54.80 77 <
5 -3 3 269.15 390.60 61.50 77 o
-4 2 3 993.85 1290.00 78.60 77 o
-8 4 3 74.06 78.60 55.00 77 <
5 -3 4 1176.10 1110.60 72.50 77 o
-4 2 4 899.20 803.80 73.60 77 o
-8 4 4 902.43 683.90 66.10 77 o
5 -3 5 19.20 23.50 54.40 77 <
-4 2 5 139.49 310.30 64.60 77 o
-8 4 5 32.11 18.40 54.80 77 <
5 -3 6 201.09 268.70 57.80 77 o
-4 2 6 295.91 211.60 63.80 77 o
-8 4 6 231.37 95.30 56.50 77 <
5 -3 7 144.55 191.60 56.80 77 o
-8 4 7 131.14 70.00 57.00 77 <
6 -4 8 642.60 374.30 58.90 77 o
5 -3 8 49.42 26.20 53.70 77 <
1 -1 10 320.05 345.10 63.90 77 o
1 -1 11 932.24 802.60 71.30 77 o
1 -1 12 2453.30 2516.80 92.80 77 o
1 -1 13 167.28 115.80 56.70 77 <
-3 1 13 36.28 50.40 57.20 77 <
-7 3 13 35.97 28.80 55.30 77 <
1 -1 14 1360.70 1079.40 72.60 77 o
-3 1 14 2079.80 1622.30 77.80 77 o
-7 3 14 21.33 -8.60 54.30 77 <
1 -1 15 480.89 372.00 61.60 77 o
-3 1 15 184.93 133.00 56.40 77 <
-7 3 15 29.07 11.90 54.70 77 <
2 -2 16 1037.20 854.50 67.90 77 o
-3 1 16 38.51 46.80 54.00 77 <
-7 3 16 28.73 47.60 54.50 77 <
2 -2 17 130.66 100.70 55.30 77 <
-3 1 17 113.18 97.40 54.20 77 <
-3 1 18 34.56 30.80 53.80 77 <
-3 1 19 86.31 65.40 53.70 77 <
0 0 -19 16.92 14.70 53.80 78 <
0 0 -18 410.67 181.30 57.80 78 o
0 0 -17 153.86 107.10 55.60 78 <
5 -3 -16 54.83 130.50 54.50 78 <
0 0 -16 163.35 123.10 55.80 78 <
-4 2 -16 51.86 7.70 53.70 78 <
5 -3 -15 34.13 -8.60 54.60 78 <
0 0 -15 167.25 475.30 62.10 78 o
-4 2 -15 120.08 52.60 54.80 78 <
5 -3 -14 589.54 625.50 64.90 78 o
0 0 -14 611.76 468.50 62.90 78 o
-4 2 -14 133.27 121.80 55.10 78 <
5 -3 -13 87.28 100.60 55.50 78 <
0 0 -13 233.31 326.20 61.70 78 o
-4 2 -13 83.57 70.30 56.00 78 <
0 0 -12 2783.00 3303.10 100.30 78 o
-4 2 -12 763.84 787.10 66.80 78 o
0 0 -11 314.79 337.90 64.60 78 o
-4 2 -11 15.11 5.30 55.20 78 <
0 0 -10 1519.40 2173.40 88.30 78 o
-4 2 -10 1677.60 1848.30 81.40 78 o
0 0 -9 1511.80 1477.30 83.50 78 o
-4 2 -9 695.19 596.30 65.40 78 o
0 0 -8 10531.00 8086.20 146.10 78 o
-4 2 -8 85.77 201.40 59.30 78 o
0 0 -7 1846.40 1424.30 91.00 78 o
-4 2 -7 102.62 286.50 62.10 78 o
0 0 -6 27904.00 29657.20 259.20 78 o
-4 2 -6 337.60 719.70 70.00 78 o
-8 4 -6 62.00 20.00 54.50 78 <
0 0 -5 3977.80 3069.30 116.40 78 o
-4 2 -5 59.05 258.80 63.80 78 o
-8 4 -5 24.07 -38.70 54.40 78 <
0 0 -4 4663.80 4577.30 135.40 78 o
-4 2 -4 6363.20 6171.70 127.30 78 o
-8 4 -4 343.52 418.20 61.70 78 o
0 0 -3 13019.00 9128.80 175.10 78 o
-4 2 -3 425.82 410.40 67.10 78 o
-8 4 -3 125.76 110.10 55.60 78 <
0 0 -2 17737.00 22998.50 254.80 78 o
-4 2 -2 1307.70 2410.40 92.70 78 o
-8 4 -2 313.30 275.90 58.70 78 o
0 0 -1 4734.40 1454.80 256.30 78 o
-4 2 -1 803.38 554.30 70.50 78 o
-8 4 -1 21.27 -1.00 54.20 78 <
-4 2 0 6930.90 5410.50 121.60 78 o
-8 4 0 13.21 39.00 54.90 78 <
-4 2 1 1330.20 1120.20 77.60 78 o
-8 4 1 7.85 31.70 53.90 78 <
5 -3 2 544.76 637.90 65.50 78 o
-4 2 2 1727.50 2270.80 90.50 78 o
-8 4 2 55.05 44.60 54.60 78 <
5 -3 3 490.85 433.20 63.20 78 o
-4 2 3 1366.40 1003.30 76.00 78 o
-8 4 3 65.77 17.40 55.00 78 <
5 -3 4 1257.50 1228.10 73.90 78 o
-4 2 4 1424.10 1110.20 76.20 78 o
-8 4 4 782.62 526.30 64.40 78 o
5 -3 5 29.82 13.00 54.50 78 <
-4 2 5 521.20 491.80 68.30 78 o
-8 4 5 74.82 46.90 55.40 78 <
5 -3 6 324.80 335.40 59.80 78 o
-4 2 6 1475.50 2692.60 94.80 78 o
-8 4 6 207.29 146.70 57.60 78 <
5 -3 7 170.25 128.30 57.10 78 <
-4 2 7 72.31 119.90 62.90 78 <
-8 4 7 71.66 104.60 57.20 78 <
5 -3 8 25.27 72.50 53.50 78 <
-4 2 8 9133.80 8563.80 146.20 78 o
-8 4 8 443.85 311.60 60.50 78 o
5 -3 9 42.32 26.30 53.60 78 <
-4 2 9 74.03 134.10 62.50 78 <
-8 4 9 60.14 24.80 55.30 78 <
5 -3 10 142.31 142.20 57.30 78 <
-4 2 10 326.15 621.00 68.00 78 o
-8 4 10 94.34 108.20 55.40 78 <
5 -3 11 57.05 37.50 54.60 78 <
-4 2 11 1214.30 1109.30 75.70 78 o
-8 4 11 118.71 97.60 57.00 78 <
5 -3 12 128.21 134.00 54.40 78 <
5 -3 13 49.33 14.60 54.00 78 <
1 -1 14 1198.60 1039.50 70.30 78 o
1 -1 15 313.09 324.80 59.80 78 o
1 -1 16 111.22 155.90 55.40 78 <
1 -1 17 141.06 171.70 56.30 78 o
-3 1 17 132.62 81.80 54.50 78 <
1 -1 18 38.63 67.10 54.90 78 <
-3 1 18 38.23 -16.50 53.90 78 <
1 -1 19 6.60 24.50 52.80 78 <
-3 1 19 68.35 34.20 54.10 78 <
-3 1 20 251.94 107.90 56.30 78 <
1 -1 -19 41.20 19.00 54.40 79 <
1 -1 -18 284.49 261.60 58.10 79 o
-3 1 -18 184.17 142.30 55.50 79 <
1 -1 -17 17.81 29.40 53.10 79 <
5 -3 -16 51.38 3.20 53.50 79 <
1 -1 -16 817.19 694.60 64.30 79 o
5 -3 -15 23.55 -42.20 54.40 79 <
5 -3 -14 547.54 558.80 63.10 79 o
5 -3 -13 37.59 30.70 54.10 79 <
-4 2 -13 164.30 93.00 55.80 79 <
5 -3 -12 193.25 323.90 59.40 79 o
-4 2 -12 950.17 799.00 67.40 79 o
5 -3 -11 131.67 186.80 57.80 79 o
-4 2 -11 30.18 51.90 55.50 79 <
5 -3 -10 47.55 125.20 55.40 79 <
-4 2 -10 1280.30 967.50 70.80 79 o
5 -3 -9 54.17 277.70 57.80 79 o
-4 2 -9 536.20 548.30 64.50 79 o
5 -3 -8 84.62 214.80 58.30 79 o
-4 2 -8 410.22 208.20 60.00 79 o
5 -3 -7 184.58 219.60 59.00 79 o
0 0 -7 1825.40 1335.60 89.40 79 o
-4 2 -7 200.58 384.90 63.80 79 o
5 -3 -6 4343.00 4278.40 107.00 79 o
0 0 -6 29953.00 31226.40 260.90 79 o
-4 2 -6 451.64 351.00 64.50 79 o
-8 4 -6 64.21 43.00 54.90 79 <
0 0 -5 4003.10 3220.10 117.80 79 o
-4 2 -5 80.27 283.10 63.10 79 o
-8 4 -5 17.54 -20.10 54.30 79 <
0 0 -4 4152.50 4271.10 131.60 79 o
-4 2 -4 5778.80 5300.30 119.50 79 o
-8 4 -4 345.80 384.30 60.90 79 o
0 0 -3 12426.00 9912.70 176.90 79 o
-4 2 -3 437.03 449.60 67.00 79 o
-8 4 -3 136.87 171.00 56.80 79 o
0 0 -2 16870.00 20356.20 241.80 79 o
-4 2 -2 1081.20 1044.70 75.30 79 o
-8 4 -2 280.16 219.50 57.50 79 o
0 0 -1 4566.00 1137.30 248.50 79 o
-4 2 -1 517.45 496.80 68.30 79 o
-8 4 -1 20.87 -24.10 54.10 79 <
-4 2 0 4770.60 4463.50 111.80 79 o
-8 4 0 10.61 19.30 55.20 79 <
0 0 1 4549.30 1395.00 254.80 79 o
-4 2 1 1100.90 1068.80 75.30 79 o
-8 4 1 6.80 -0.90 53.90 79 <
0 0 2 16410.00 21105.30 245.20 79 o
-4 2 2 1910.80 1683.50 83.00 79 o
-8 4 2 37.71 28.60 54.20 79 <
0 0 3 13874.00 9210.70 173.40 79 o
-4 2 3 784.39 988.50 75.10 79 o
-8 4 3 53.83 -4.10 54.70 79 <
0 0 4 4405.30 4638.90 133.50 79 o
-4 2 4 636.19 869.60 73.50 79 o
-8 4 4 586.58 622.40 65.30 79 o
5 -3 5 39.12 31.00 54.90 79 <
0 0 5 3569.90 3322.00 116.10 79 o
-4 2 5 173.12 306.30 64.30 79 o
-8 4 5 9.89 -11.20 54.70 79 <
5 -3 6 570.88 437.40 61.20 79 o
0 0 6 24170.00 25630.20 239.20 79 o
-4 2 6 425.72 637.40 71.20 79 o
-8 4 6 112.48 24.20 55.60 79 <
5 -3 7 201.22 166.80 55.90 79 <
0 0 7 1737.90 1392.20 89.80 79 o
-4 2 7 31.12 158.20 62.60 79 <
-8 4 7 60.44 77.40 55.70 79 <
5 -3 8 123.70 55.40 55.50 79 <
0 0 8 10172.00 8847.60 147.50 79 o
-4 2 8 7403.90 6873.80 134.20 79 o
-8 4 8 270.25 210.20 58.60 79 o
5 -3 9 23.43 -34.70 54.50 79 <
0 0 9 1618.80 1392.50 81.10 79 o
-4 2 9 47.09 236.90 63.10 79 o
-8 4 9 20.30 24.30 55.30 79 <
5 -3 10 422.55 392.70 61.10 79 o
0 0 10 1538.40 2960.20 97.10 79 o
-4 2 10 264.41 524.40 65.50 79 o
-8 4 10 58.18 23.50 56.20 79 <
5 -3 11 38.91 29.80 53.70 79 <
0 0 11 286.73 450.80 66.20 79 o
-4 2 11 648.68 857.30 71.60 79 o
-8 4 11 75.35 100.30 56.50 79 <
5 -3 12 71.87 80.70 53.10 79 <
0 0 12 2119.80 3266.00 100.20 79 o
-4 2 12 532.97 514.80 64.10 79 o
5 -3 13 35.40 20.60 54.10 79 <
0 0 13 282.15 209.80 61.60 79 o
-4 2 13 351.09 419.30 62.90 79 o
0 0 14 637.13 599.80 65.40 79 o
-4 2 14 366.58 402.40 62.40 79 o
-4 2 15 57.76 21.80 55.40 79 <
-4 2 16 400.02 338.20 60.50 79 o
-4 2 17 253.12 116.40 56.50 79 <
1 -1 18 84.66 122.80 53.30 79 <
-4 2 18 337.35 208.40 57.70 79 o
1 -1 19 16.15 20.00 52.70 79 <
-4 2 19 25.43 11.00 54.50 79 <
1 -1 -18 331.52 181.90 57.30 80 o
-3 1 -18 163.58 103.10 55.40 80 <
1 -1 -17 13.20 -15.80 53.10 80 <
-3 1 -17 16.52 24.40 53.10 80 <
1 -1 -16 606.97 540.70 63.30 80 o
-3 1 -16 155.54 172.40 57.20 80 o
1 -1 -15 439.71 450.10 60.80 80 o
-3 1 -15 65.95 62.30 54.00 80 <
5 -3 -14 1136.50 798.30 65.00 80 o
1 -1 -14 599.03 725.50 67.90 80 o
-3 1 -14 196.41 220.50 57.70 80 o
5 -3 -13 87.27 49.60 54.70 80 <
1 -1 -13 611.55 561.10 65.30 80 o
-3 1 -13 29.56 54.40 55.40 80 <
5 -3 -12 143.13 123.10 56.00 80 <
1 -1 -12 1565.20 2480.60 92.80 80 o
-7 3 -12 75.61 44.10 54.40 80 <
5 -3 -11 198.82 246.00 58.00 80 o
-7 3 -11 4.90 -4.80 53.20 80 <
5 -3 -10 12.84 77.00 53.50 80 <
-7 3 -10 411.24 382.20 59.50 80 o
5 -3 -9 91.14 184.70 58.20 80 o
5 -3 -8 153.24 242.30 58.70 80 o
5 -3 -7 97.99 95.30 56.50 80 <
5 -3 -6 2691.20 3148.20 96.70 80 o
5 -3 -5 46.14 106.50 57.80 80 <
-4 2 -4 7124.70 6488.60 129.70 80 o
-4 2 -3 532.94 623.20 68.70 80 o
-4 2 -2 582.49 1693.00 83.10 80 o
-8 4 -2 593.16 430.80 61.30 80 o
-4 2 -1 395.35 532.10 69.30 80 o
-8 4 -1 34.09 35.10 54.50 80 <
-4 2 0 4801.40 5024.50 117.00 80 o
-8 4 0 33.97 29.50 54.50 80 <
-4 2 1 1085.00 972.00 76.30 80 o
-8 4 1 11.02 12.00 54.40 80 <
-4 2 2 2203.40 2100.90 88.60 80 o
-8 4 2 29.69 46.50 55.10 80 <
-4 2 3 1425.70 1139.00 78.20 80 o
-8 4 3 64.54 72.90 55.60 80 <
4 -2 4 8700.90 7617.00 137.20 80 o
-4 2 4 1326.30 1092.10 76.10 80 o
-8 4 4 695.25 539.60 63.60 80 o
4 -2 5 74.28 220.80 61.60 80 o
-4 2 5 389.25 508.30 67.00 80 o
-8 4 5 46.21 25.20 55.50 80 <
4 -2 6 418.25 426.80 64.50 80 o
-8 4 6 206.99 140.90 56.80 80 <
4 -2 7 199.10 298.90 62.40 80 o
-8 4 7 69.60 36.30 55.60 80 <
4 -2 8 87.86 164.80 59.20 80 <
-8 4 8 360.16 312.20 60.00 80 o
4 -2 9 692.94 481.80 63.80 80 o
-8 4 9 44.82 24.80 55.40 80 <
4 -2 10 1562.40 1298.50 77.40 80 o
0 0 10 2183.30 2956.30 97.80 80 o
-8 4 10 163.18 52.30 55.80 80 <
4 -2 11 27.43 -4.30 55.30 80 <
0 0 11 401.03 368.50 64.70 80 o
-4 2 11 1080.50 936.00 71.80 80 o
-8 4 11 72.22 74.90 55.80 80 <
4 -2 12 848.04 724.50 67.90 80 o
0 0 12 3351.50 2678.00 92.70 80 o
-4 2 12 683.56 452.20 63.50 80 o
4 -2 13 162.38 138.20 55.80 80 <
0 0 13 313.59 254.50 61.50 80 o
-4 2 13 523.88 329.60 62.30 80 o
4 -2 14 190.34 91.40 56.00 80 <
0 0 14 747.20 558.20 65.10 80 o
-4 2 14 490.48 742.60 66.20 80 o
4 -2 15 208.05 155.00 55.00 80 <
0 0 15 195.83 430.20 61.80 80 o
-4 2 15 78.71 -7.30 55.20 80 <
4 -2 16 52.51 84.70 54.80 80 <
0 0 16 171.76 232.60 57.40 80 o
-4 2 16 427.79 385.20 61.20 80 o
0 0 17 158.09 86.00 55.70 80 <
-4 2 17 99.44 115.00 55.90 80 <
0 0 18 383.85 219.30 58.30 80 o
-4 2 18 104.45 84.00 55.60 80 <
0 0 19 11.86 35.00 53.10 80 <
-4 2 19 16.65 25.80 53.60 80 <
-2 0 -19 33.55 -29.60 54.10 81 <
2 -2 -18 48.37 82.30 54.60 81 <
-2 0 -18 56.07 3.60 53.90 81 <
2 -2 -17 13.40 23.10 54.10 81 <
2 -2 -16 2347.20 2172.80 85.00 81 o
1 -1 -14 1067.40 894.70 69.40 81 o
-3 1 -14 274.93 193.60 57.10 81 o
1 -1 -13 648.12 600.50 66.30 81 o
-3 1 -13 30.69 23.90 54.80 81 <
1 -1 -12 1316.20 1919.30 85.80 81 o
-3 1 -12 39.11 50.10 56.50 81 <
-7 3 -12 105.94 51.80 53.80 81 <
5 -3 -11 329.68 263.40 58.60 81 o
1 -1 -11 232.05 211.20 63.40 81 o
-3 1 -11 12.07 75.00 59.00 81 <
-7 3 -11 10.63 -32.50 53.90 81 <
5 -3 -10 70.24 39.30 55.50 81 <
1 -1 -10 8481.60 8593.20 145.80 81 o
-3 1 -10 4386.00 4449.20 112.30 81 o
-7 3 -10 241.17 146.50 56.60 81 <
5 -3 -9 74.36 159.70 57.70 81 <
-7 3 -9 68.76 79.40 55.70 81 <
5 -3 -8 47.95 82.40 55.70 81 <
-7 3 -8 204.57 225.10 57.20 81 o
5 -3 -7 64.76 137.10 56.10 81 <
-7 3 -7 165.17 1.40 54.70 81 <
5 -3 -6 3138.70 3060.50 96.30 81 o
5 -3 -5 41.06 48.80 57.40 81 <
-4 2 -2 545.42 297.30 64.30 81 o
-4 2 -1 292.35 531.50 69.70 81 o
-4 2 0 5376.00 4964.30 117.80 81 o
-8 4 0 7.61 51.70 54.40 81 <
-4 2 1 997.27 948.20 75.40 81 o
-8 4 1 10.65 5.60 53.80 81 <
4 -2 2 417.53 217.40 64.60 81 o
-4 2 2 1300.80 1243.10 79.00 81 o
-8 4 2 58.42 33.50 54.80 81 <
4 -2 3 567.20 496.80 67.00 81 o
-4 2 3 1176.90 1027.10 75.30 81 o
-8 4 3 71.06 63.30 55.80 81 <
4 -2 4 6076.90 5378.30 120.80 81 o
-8 4 4 812.06 619.10 66.10 81 o
4 -2 5 46.15 111.20 60.30 81 <
-8 4 5 14.92 16.30 55.00 81 <
4 -2 6 148.59 215.80 61.60 81 o
-8 4 6 173.30 112.10 55.80 81 <
4 -2 7 203.45 256.10 62.80 81 o
-8 4 7 88.87 53.20 56.00 81 <
4 -2 8 34.55 120.30 58.70 81 <
-8 4 8 456.08 235.70 58.90 81 o
4 -2 9 645.46 553.20 64.90 81 o
-8 4 9 53.90 -12.40 55.40 81 <
4 -2 10 1636.00 1329.00 76.40 81 o
-8 4 10 118.81 -15.10 56.10 81 <
4 -2 11 15.41 8.60 54.10 81 <
-8 4 11 118.46 112.60 57.50 81 <
4 -2 12 938.64 774.90 67.30 81 o
4 -2 13 153.60 91.70 55.10 81 <
4 -2 14 225.26 90.10 55.40 81 <
4 -2 15 170.64 43.50 55.00 81 <
4 -2 16 61.69 96.10 53.50 81 <
-2 0 -19 57.49 11.80 53.30 82 <
2 -2 -18 57.99 66.10 54.90 82 <
-2 0 -18 51.43 22.80 53.70 82 <
2 -2 -17 22.13 -6.90 53.90 82 <
-2 0 -17 55.66 63.70 54.40 82 <
2 -2 -16 1353.90 1399.40 75.00 82 o
-2 0 -16 1322.70 1521.40 77.60 82 o
2 -2 -15 181.44 191.00 57.10 82 o
-2 0 -15 1444.60 1363.00 78.10 82 o
-6 2 -15 42.71 60.20 54.40 82 <
-6 2 -14 219.27 145.00 56.30 82 <
-6 2 -13 35.45 57.50 53.10 82 <
6 -4 -11 94.14 -0.20 55.00 82 <
1 -1 -11 324.88 226.00 64.20 82 o
-3 1 -11 12.82 65.50 58.70 82 <
1 -1 -10 6597.30 6134.70 130.30 82 o
-3 1 -10 3527.60 3555.90 104.70 82 o
5 -3 -9 99.44 152.40 57.00 82 <
1 -1 -9 259.78 411.60 66.40 82 o
-3 1 -9 1319.00 1228.00 79.10 82 o
-7 3 -9 145.45 58.40 55.60 82 <
5 -3 -8 83.39 129.80 56.80 82 <
1 -1 -8 1332.50 1139.00 79.40 82 o
-3 1 -8 2302.80 2271.70 90.60 82 o
-7 3 -8 236.26 160.50 56.70 82 <
5 -3 -7 119.56 118.60 57.60 82 <
-7 3 -7 38.44 33.20 54.20 82 <
5 -3 -6 3460.30 3569.50 99.80 82 o
-7 3 -6 71.23 88.30 54.60 82 <
5 -3 -5 23.93 83.60 56.90 82 <
-7 3 -5 65.38 110.10 55.70 82 <
-7 3 -4 38.36 68.20 54.50 82 <
4 -2 0 7313.70 6978.60 134.50 82 o
-4 2 0 6350.80 5603.90 123.10 82 o
4 -2 1 341.11 496.10 68.80 82 o
-4 2 1 1151.40 962.10 76.00 82 o
4 -2 2 438.50 402.90 65.50 82 o
-4 2 2 1696.50 1483.80 82.50 82 o
4 -2 3 537.82 623.20 68.90 82 o
-4 2 3 1121.40 1086.70 77.10 82 o
-8 4 3 98.65 72.10 55.10 82 <
8 -4 4 965.35 947.70 68.80 82 o
4 -2 4 6940.90 6530.20 129.80 82 o
-8 4 4 712.00 586.20 65.30 82 o
8 -4 5 20.90 32.90 53.20 82 <
4 -2 5 67.65 55.50 60.30 82 <
-8 4 5 43.92 29.50 54.70 82 <
8 -4 6 77.86 29.40 53.40 82 <
-8 4 6 204.60 113.60 55.70 82 <
-8 4 7 96.41 56.50 56.80 82 <
-8 4 8 503.07 464.10 62.40 82 o
-8 4 9 78.93 -1.10 54.60 82 <
-8 4 10 94.85 24.90 54.90 82 <
-8 4 11 180.19 136.60 57.90 82 <
-1 1 12 2256.50 2501.70 92.90 82 o
3 -1 13 35.54 21.00 54.70 82 <
-1 1 13 554.04 647.70 66.30 82 o
3 -1 14 278.76 206.00 57.50 82 o
-1 1 14 812.35 721.20 68.70 82 o
-5 3 14 1367.80 870.90 70.00 82 o
3 -1 15 63.95 25.20 54.00 82 <
-1 1 15 547.22 469.70 63.90 82 o
-5 3 15 107.39 84.70 56.50 82 <
3 -1 16 183.93 247.60 57.70 82 o
-1 1 16 552.62 542.50 63.80 82 o
-5 3 16 76.47 53.50 55.10 82 <
3 -1 17 18.88 62.50 53.30 82 <
-1 1 17 11.97 51.30 53.80 82 <
3 -1 18 172.06 165.50 56.90 82 <
-1 1 18 235.03 173.20 58.00 82 <
-1 1 19 16.01 23.80 53.60 82 <
-1 -1 -19 40.24 37.30 53.70 83 <
-1 -1 -18 13.02 25.80 53.60 83 <
2 -2 -16 1564.50 1335.40 75.50 83 o
-2 0 -16 1792.80 1641.60 78.60 83 o
2 -2 -15 80.39 180.40 57.40 83 o
-2 0 -15 1090.00 1183.50 74.80 83 o
-6 2 -15 64.35 53.30 54.20 83 <
2 -2 -14 177.00 202.00 57.30 83 o
-2 0 -14 606.32 550.60 65.10 83 o
-6 2 -14 199.92 111.10 55.60 83 <
2 -2 -13 57.72 134.00 56.50 83 <
-2 0 -13 190.39 157.30 59.10 83 <
-6 2 -13 57.54 72.40 54.00 83 <
-6 2 -12 373.23 404.50 60.50 83 o
6 -4 -11 40.29 30.40 55.20 83 <
-6 2 -11 260.97 166.90 57.40 83 <
6 -4 -10 73.08 32.50 54.90 83 <
1 -1 -9 373.58 411.30 67.20 83 o
5 -3 -8 66.83 36.70 55.80 83 <
1 -1 -8 1152.10 1010.40 76.90 83 o
-3 1 -8 2392.20 2217.70 90.10 83 o
5 -3 -7 74.16 144.40 58.50 83 <
1 -1 -7 88.27 194.30 70.30 83 <
-3 1 -7 1373.10 1333.50 81.60 83 o
-7 3 -7 170.77 10.20 55.30 83 <
5 -3 -6 2758.60 2645.60 91.10 83 o
-7 3 -6 41.37 45.40 55.40 83 <
5 -3 -5 50.08 107.60 57.20 83 <
-7 3 -5 84.99 84.40 55.90 83 <
-7 3 -4 43.80 56.40 55.60 83 <
-7 3 -3 43.09 38.10 56.40 83 <
4 -2 0 5566.40 5495.60 121.30 83 o
-4 2 0 6631.20 6498.90 129.30 83 o
4 -2 1 284.65 395.20 67.30 83 o
-4 2 1 795.99 670.80 73.30 83 o
8 -4 2 484.50 340.80 60.10 83 o
4 -2 2 546.05 511.30 68.60 83 o
-4 2 2 1204.00 1360.60 80.40 83 o
8 -4 3 201.36 171.90 57.10 83 o
4 -2 3 877.21 635.30 70.20 83 o
-4 2 3 1406.50 1195.00 77.50 83 o
-8 4 3 121.21 51.30 55.80 83 <
8 -4 4 927.70 818.40 66.40 83 o
-8 4 4 953.44 827.80 68.30 83 o
8 -4 5 37.50 39.40 53.50 83 <
-8 4 5 24.10 -34.60 55.70 83 <
8 -4 6 51.04 36.30 53.60 83 <
-8 4 6 194.41 81.40 55.80 83 <
-8 4 7 98.34 29.80 55.50 83 <
-8 4 8 513.79 299.80 61.00 83 o
3 -1 9 1663.00 1251.90 79.70 83 o
-1 1 9 389.55 325.50 65.50 83 o
-8 4 9 70.87 51.20 56.10 83 <
3 -1 10 3181.90 3392.00 105.00 83 o
-1 1 10 6287.30 6097.70 128.40 83 o
-8 4 10 210.49 40.80 55.50 83 <
7 -3 11 11.42 5.60 53.90 83 <
3 -1 11 27.68 46.60 58.20 83 <
-1 1 11 142.39 141.40 62.00 83 <
-5 3 11 281.23 170.10 58.30 83 <
7 -3 12 101.47 72.50 53.50 83 <
3 -1 12 25.61 75.50 55.40 83 <
-1 1 12 1582.30 2107.10 88.20 83 o
-5 3 12 73.17 65.00 57.00 83 <
3 -1 13 54.08 32.30 55.30 83 <
-1 1 13 642.52 605.70 65.70 83 o
-5 3 13 39.16 7.10 55.60 83 <
3 -1 14 241.06 270.10 57.90 83 o
-1 1 14 905.56 840.50 69.20 83 o
-5 3 14 587.78 460.80 63.30 83 o
3 -1 15 54.64 30.70 53.90 83 <
-1 1 15 585.51 433.60 62.20 83 o
-5 3 15 61.19 77.30 56.10 83 <
3 -1 16 227.43 250.40 58.60 83 o
-1 1 16 768.24 619.80 64.20 83 o
-5 3 16 80.55 12.50 54.30 83 <
3 -1 17 35.27 35.90 53.40 83 <
-1 1 17 28.20 23.40 54.90 83 <
3 -1 18 233.95 192.40 55.80 83 o
-1 -1 -19 51.03 38.90 53.40 84 <
-1 -1 -18 14.23 5.00 54.20 84 <
-1 -1 -17 57.70 103.30 54.90 84 <
-5 1 -17 145.23 91.50 55.80 84 <
3 -3 -16 12.36 -3.70 53.10 84 <
-1 -1 -16 123.67 170.10 56.40 84 o
-5 1 -16 647.73 672.80 64.90 84 o
3 -3 -15 118.44 20.40 54.80 84 <
-5 1 -15 339.63 218.40 57.90 84 o
2 -2 -13 78.38 82.50 55.40 84 <
-2 0 -13 157.04 219.50 57.60 84 o
2 -2 -12 206.48 283.90 60.60 84 o
-2 0 -12 183.65 275.40 62.10 84 o
-6 2 -12 353.24 350.60 60.90 84 o
6 -4 -11 44.53 59.10 54.80 84 <
2 -2 -11 244.67 121.90 59.90 84 <
-2 0 -11 70.81 151.50 61.50 84 <
-6 2 -11 238.84 238.30 58.70 84 o
6 -4 -10 66.23 44.10 54.50 84 <
-6 2 -10 364.83 380.90 60.50 84 o
6 -4 -9 96.60 7.90 54.60 84 <
-6 2 -9 1102.40 849.60 72.00 84 o
5 -3 -7 135.16 162.10 58.00 84 <
1 -1 -7 47.21 129.10 72.90 84 <
-3 1 -7 1526.60 1262.00 79.60 84 o
5 -3 -6 2780.50 2813.60 94.90 84 o
1 -1 -6 30980.00 30935.80 260.10 84 o
-3 1 -6 4446.70 4354.30 113.20 84 o
5 -3 -5 20.79 19.70 57.40 84 <
-3 1 -5 895.96 1229.20 82.50 84 o
-7 3 -5 124.21 139.30 55.30 84 <
5 -3 -4 941.37 846.50 69.50 84 o
-7 3 -4 38.67 127.20 55.60 84 <
-7 3 -3 111.92 79.50 57.10 84 <
-7 3 -2 1691.60 1462.10 77.80 84 o
4 -2 0 6377.20 6626.80 131.80 84 o
8 -4 1 48.67 -34.90 53.40 84 <
4 -2 1 452.22 496.50 70.70 84 o
-4 2 1 883.03 717.10 74.30 84 o
8 -4 2 381.40 264.90 58.70 84 o
4 -2 2 1099.80 1145.60 76.90 84 o
-4 2 2 1469.60 1333.10 80.20 84 o
8 -4 3 135.84 170.60 56.50 84 o
-8 4 3 103.57 130.90 56.50 84 <
8 -4 4 827.66 789.50 68.60 84 o
-8 4 4 856.55 838.40 69.70 84 o
8 -4 5 14.96 84.20 52.80 84 <
-8 4 5 44.89 81.20 54.60 84 <
8 -4 6 89.69 22.20 53.70 84 <
-8 4 6 201.15 88.20 56.60 84 <
3 -1 7 1436.70 1353.30 81.00 84 o
-8 4 7 117.54 110.50 56.00 84 <
7 -3 8 626.70 465.10 62.60 84 o
3 -1 8 2436.60 2108.20 90.20 84 o
-1 1 8 1163.20 979.50 76.60 84 o
-8 4 8 445.17 331.40 61.40 84 o
7 -3 9 76.23 141.70 55.60 84 <
3 -1 9 1548.40 1437.10 82.30 84 o
-1 1 9 224.81 275.20 65.70 84 o
-5 3 9 107.16 90.90 57.90 84 <
7 -3 10 497.30 482.70 62.30 84 o
3 -1 10 3813.20 3860.80 107.50 84 o
-1 1 10 8242.00 7821.40 140.20 84 o
-5 3 10 68.03 103.70 56.90 84 <
7 -3 11 21.99 26.70 54.00 84 <
-5 3 11 155.58 165.90 58.70 84 <
7 -3 12 134.65 108.40 54.60 84 <
-5 3 12 74.71 20.30 56.90 84 <
-5 3 13 77.64 2.50 56.20 84 <
-5 3 14 837.44 713.70 67.00 84 o
-5 3 15 81.60 -10.80 55.20 84 <
2 0 16 1455.40 1270.30 76.40 84 o
2 0 17 95.15 48.00 54.80 84 <
-2 2 17 21.01 18.00 54.70 84 <
2 0 18 56.19 50.70 54.30 84 <
-2 2 18 28.03 52.50 55.10 84 <
2 0 19 51.30 26.20 53.80 84 <
0 -2 -18 389.83 255.20 57.40 85 o
-4 0 -18 113.52 27.20 54.10 85 <
3 -3 -16 37.37 98.70 55.00 85 <
-1 -1 -16 100.95 115.30 56.70 85 <
3 -3 -15 85.61 -7.60 54.60 85 <
-1 -1 -15 231.03 299.60 60.20 85 o
-5 1 -15 272.92 269.70 57.80 85 o
3 -3 -14 613.78 497.10 62.90 85 o
-1 -1 -14 1799.70 1444.40 76.80 85 o
-5 1 -14 216.47 158.10 56.50 85 <
-5 1 -13 213.63 156.50 56.80 85 <
2 -2 -12 201.32 342.80 60.10 85 o
6 -4 -11 34.40 -4.40 53.60 85 <
2 -2 -11 242.33 109.10 58.90 85 <
-2 0 -11 52.53 152.00 61.60 85 <
-9 3 -11 85.40 31.20 53.90 85 <
6 -4 -10 40.96 -4.20 54.80 85 <
2 -2 -10 287.82 283.10 63.10 85 o
-2 0 -10 629.22 720.40 70.80 85 o
-6 2 -10 420.25 428.10 62.00 85 o
6 -4 -9 53.54 13.30 55.10 85 <
-6 2 -9 673.43 861.20 70.50 85 o
6 -4 -8 193.49 195.00 57.10 85 o
-6 2 -8 1745.20 1777.50 82.70 85 o
5 -3 -6 3641.70 3710.00 102.10 85 o
1 -1 -6 28616.00 28556.50 251.00 85 o
5 -3 -5 113.58 94.00 57.40 85 <
-3 1 -5 670.63 1100.50 81.50 85 o
-10 4 -5 44.24 13.90 53.10 85 <
5 -3 -4 545.79 623.00 66.60 85 o
-7 3 -4 67.30 115.30 56.70 85 <
-10 4 -4 259.94 202.90 57.70 85 o
-7 3 -3 43.84 135.40 56.70 85 <
-7 3 -2 1864.70 1385.80 77.80 85 o
-7 3 -1 1007.80 638.40 67.00 85 o
8 -4 0 56.41 17.40 55.00 85 <
4 -2 0 4771.40 4304.30 112.00 85 o
8 -4 1 51.76 7.70 53.40 85 <
4 -2 1 391.35 371.90 67.90 85 o
-4 2 1 847.74 1116.20 77.50 85 o
8 -4 2 337.53 273.20 57.70 85 o
-4 2 2 1436.80 1485.40 81.00 85 o
8 -4 3 128.51 163.30 55.80 85 <
-8 4 3 195.00 93.10 57.20 85 <
8 -4 4 946.74 990.30 69.00 85 o
-8 4 4 696.10 554.20 65.10 85 o
-8 4 5 40.21 19.80 55.30 85 <
7 -3 6 35.23 34.50 54.60 85 <
3 -1 6 2475.50 2504.30 95.80 85 o
-1 1 6 41675.00 39932.20 294.90 85 o
-8 4 6 373.46 186.90 57.60 85 o
7 -3 7 45.79 75.20 54.70 85 <
3 -1 7 1493.40 1357.30 81.00 85 o
-1 1 7 76.46 129.70 72.50 85 <
-8 4 7 89.41 22.60 57.60 85 <
7 -3 8 130.41 117.20 55.40 85 <
-1 1 8 1364.60 1109.80 79.70 85 o
-5 3 8 148.60 145.80 59.00 85 <
7 -3 9 93.57 126.30 55.10 85 <
-5 3 9 70.14 149.80 58.80 85 <
7 -3 10 487.56 445.60 60.50 85 o
-5 3 10 30.08 15.80 56.90 85 <
-5 3 11 251.87 158.60 59.60 85 <
6 -2 12 646.79 437.70 61.80 85 o
2 0 12 649.75 702.00 69.00 85 o
-5 3 12 80.55 58.40 57.10 85 <
6 -2 13 35.95 -6.90 53.60 85 <
2 0 13 202.99 45.30 57.30 85 <
6 -2 14 245.59 152.40 56.90 85 <
2 0 14 651.34 857.20 69.10 85 o
-2 2 14 364.36 343.00 61.10 85 o
6 -2 15 54.97 75.60 54.90 85 <
2 0 15 1116.80 1146.60 72.90 85 o
-2 2 15 175.40 178.40 57.40 85 o
2 0 16 1435.70 1052.00 72.00 85 o
-2 2 16 1151.40 944.50 70.60 85 o
2 0 17 133.83 81.70 54.60 85 <
-2 2 17 24.85 9.30 55.00 85 <
-2 2 18 45.96 73.60 55.10 85 <
0 -2 -18 296.43 314.80 58.00 86 o
-4 0 -18 92.70 84.90 54.10 86 <
0 -2 -17 59.65 63.20 54.50 86 <
-4 0 -17 65.16 42.70 54.20 86 <
-4 0 -16 98.54 124.10 55.80 86 <
3 -3 -15 117.73 98.20 55.00 86 <
-1 -1 -15 330.24 359.40 60.00 86 o
3 -3 -14 435.22 385.90 60.60 86 o
-1 -1 -14 1349.30 1416.50 76.20 86 o
-8 2 -14 477.18 319.90 59.50 86 o
3 -3 -13 10.32 28.00 54.60 86 <
-1 -1 -13 238.83 193.70 61.50 86 o
-5 1 -13 143.67 134.70 57.40 86 <
-5 1 -12 132.26 165.10 58.20 86 <
-9 3 -11 123.87 31.60 54.30 86 <
6 -4 -10 115.47 59.00 55.00 86 <
2 -2 -10 217.40 212.60 62.20 86 o
-2 0 -10 869.11 1017.30 74.70 86 o
-9 3 -10 234.24 197.70 56.60 86 o
6 -4 -9 83.19 58.90 55.60 86 <
2 -2 -9 280.18 323.80 64.60 86 o
-2 0 -9 1397.00 1644.50 86.10 86 o
-9 3 -9 156.37 123.00 58.00 86 <
6 -4 -8 103.30 67.30 54.30 86 <
-6 2 -8 2330.40 1884.30 83.00 86 o
-6 2 -7 1143.60 1031.60 74.20 86 o
5 -3 -6 3176.90 3046.00 96.20 86 o
5 -3 -5 15.71 100.40 58.00 86 <
1 -1 -5 3569.30 3687.80 116.70 86 o
-10 4 -5 14.26 16.60 54.10 86 <
5 -3 -4 729.15 738.70 68.90 86 o
-3 1 -4 1470.90 1339.00 88.60 86 o
-10 4 -4 162.74 150.30 57.30 86 <
-7 3 -3 213.65 123.40 58.20 86 <
-10 4 -3 123.21 133.80 57.20 86 <
-7 3 -2 1216.70 1208.50 73.90 86 o
8 -4 -1 47.56 9.00 54.40 86 <
4 -2 -1 755.79 1105.00 77.70 86 o
-7 3 -1 564.74 549.60 66.70 86 o
8 -4 0 15.11 28.40 53.20 86 <
4 -2 0 6580.70 6227.80 128.50 86 o
8 -4 1 57.96 29.40 53.10 86 <
-4 2 1 1145.00 755.90 74.10 86 o
8 -4 2 563.17 300.30 59.60 86 o
-4 2 2 1031.10 1129.00 76.90 86 o
8 -4 3 223.72 147.00 56.60 86 <
7 -3 4 113.59 104.40 56.30 86 <
-8 4 4 1098.00 918.80 69.40 86 o
7 -3 5 125.80 164.00 56.70 86 <
3 -1 5 722.89 921.50 80.90 86 o
-8 4 5 43.59 95.60 55.50 86 <
7 -3 6 44.82 71.60 54.90 86 <
3 -1 6 3429.00 3362.20 104.40 86 o
-1 1 6 27641.00 27270.90 248.10 86 o
-8 4 6 159.94 3.40 56.40 86 <
7 -3 7 30.45 14.40 54.90 86 <
-1 1 7 78.77 165.00 70.90 86 <
-8 4 7 204.05 -3.70 56.60 86 <
-5 3 8 144.29 152.40 58.70 86 <
-5 3 9 130.44 106.10 59.10 86 <
6 -2 10 424.10 276.60 59.80 86 o
-5 3 10 33.83 16.90 56.50 86 <
6 -2 11 169.33 186.60 56.80 86 o
2 0 11 58.92 157.20 62.60 86 <
6 -2 12 401.26 360.10 60.90 86 o
2 0 12 506.85 419.00 63.60 86 o
-2 2 12 272.57 247.90 61.70 86 o
6 -2 13 34.47 31.70 54.10 86 <
2 0 13 198.00 96.00 57.50 86 <
-2 2 13 77.14 80.30 56.30 86 <
6 -2 14 290.40 258.50 58.10 86 o
-2 2 14 171.61 142.00 56.60 86 <
-2 2 15 82.79 118.50 56.20 86 <
5 -1 16 883.36 625.30 67.30 86 o
-2 2 16 1383.10 1003.80 71.80 86 o
5 -1 17 171.54 117.70 55.40 86 <
1 1 17 152.29 107.20 55.10 86 <
1 1 18 85.29 39.80 55.50 86 <
1 1 19 41.37 21.70 53.70 86 <
-3 -1 -18 375.30 380.50 60.00 87 o
0 -2 -17 54.33 -25.30 55.00 87 <
0 -2 -16 30.35 -8.10 54.50 87 <
-4 0 -16 88.29 -5.10 54.50 87 <
0 -2 -15 178.04 239.50 57.80 87 o
-4 0 -15 266.94 166.00 56.80 87 <
-4 0 -14 505.71 470.90 61.70 87 o
-8 2 -14 430.94 379.60 59.50 87 o
3 -3 -13 55.00 -14.80 55.10 87 <
-1 -1 -13 172.31 300.50 60.30 87 o
-8 2 -13 42.94 51.80 53.90 87 <
3 -3 -12 236.86 201.60 56.90 87 o
-1 -1 -12 2182.50 2328.20 90.10 87 o
-8 2 -12 280.74 213.30 56.50 87 o
-5 1 -11 92.04 181.00 58.90 87 o
-5 1 -10 845.79 955.10 73.30 87 o
6 -4 -9 20.19 -4.00 54.00 87 <
2 -2 -9 290.09 353.30 63.50 87 o
-9 3 -9 112.86 176.50 57.00 87 o
6 -4 -8 59.00 46.00 54.90 87 <
2 -2 -8 362.61 279.00 63.40 87 o
-2 0 -8 5401.20 6003.50 128.90 87 o
-9 3 -8 1051.00 825.10 67.50 87 o
6 -4 -7 17.18 34.70 54.20 87 <
-6 2 -7 1375.30 994.00 73.90 87 o
-6 2 -6 1810.20 1207.60 76.10 87 o
5 -3 -5 73.14 91.30 58.00 87 <
1 -1 -5 3819.70 3156.90 108.10 87 o
5 -3 -4 691.68 648.70 66.30 87 o
-10 4 -4 207.51 256.10 58.00 87 o
-3 1 -3 12821.00 12908.60 178.90 87 o
-10 4 -3 227.89 163.30 57.40 87 <
-7 3 -2 2164.80 1764.90 82.70 87 o
-10 4 -2 264.35 85.90 56.10 87 <
8 -4 -1 35.35 67.30 54.20 87 <
4 -2 -1 857.81 991.90 76.80 87 o
-7 3 -1 764.04 707.80 68.10 87 o
8 -4 0 24.71 13.40 53.10 87 <
4 -2 0 5130.70 5164.00 118.90 87 o
-7 3 0 2017.90 1536.00 78.80 87 o
8 -4 1 49.92 18.40 53.10 87 <
-4 2 2 1265.00 1230.90 79.50 87 o
7 -3 3 73.12 161.20 57.70 87 <
7 -3 4 51.98 88.10 55.20 87 <
3 -1 4 1379.80 1459.20 89.40 87 o
-8 4 4 605.46 527.10 65.10 87 o
7 -3 5 122.17 127.60 55.90 87 <
-1 1 5 3954.60 4138.50 118.90 87 o
-8 4 5 48.17 26.50 56.30 87 <
-1 1 6 30887.00 29523.80 253.70 87 o
-8 4 6 413.36 275.10 59.80 87 o
-5 3 7 139.41 203.70 60.00 87 o
-8 4 7 111.73 43.20 56.10 87 <
6 -2 8 1972.00 2018.90 85.40 87 o
-5 3 8 220.38 172.60 59.90 87 <
6 -2 9 794.56 943.50 71.90 87 o
2 0 9 1507.20 2137.20 88.30 87 o
-5 3 9 158.48 172.40 60.70 87 <
6 -2 10 433.70 299.90 59.20 87 o
2 0 10 503.07 527.10 66.50 87 o
-2 2 11 444.74 521.50 65.20 87 o
-2 2 12 294.85 245.20 60.70 87 o
5 -1 13 139.59 145.10 56.30 87 <
-2 2 13 94.54 -41.50 55.50 87 <
5 -1 14 230.78 228.60 57.50 87 o
5 -1 15 163.25 80.90 55.80 87 <
1 1 15 282.68 312.00 60.50 87 o
5 -1 16 611.69 512.60 63.20 87 o
1 1 16 193.93 171.60 56.60 87 o
5 -1 17 201.98 148.80 55.50 87 <
1 1 17 102.65 67.60 55.10 87 <
1 1 18 44.48 79.20 54.80 87 <
-3 -1 -18 384.26 346.10 59.10 88 o
-3 -1 -17 26.78 20.80 53.60 88 <
-7 1 -16 104.92 88.30 54.50 88 <
0 -2 -15 125.37 162.10 56.30 88 <
-7 1 -15 128.66 101.80 54.90 88 <
0 -2 -14 25.58 54.90 53.80 88 <
-4 0 -14 362.44 335.20 60.20 88 o
-4 0 -13 292.96 280.40 60.70 88 o
-8 2 -13 63.10 41.40 53.50 88 <
3 -3 -12 200.24 128.80 55.40 88 <
-1 -1 -12 3551.30 2818.30 93.60 88 o
-8 2 -12 123.91 130.50 54.50 88 <
3 -3 -11 27.66 54.90 53.80 88 <
-1 -1 -11 664.73 478.50 67.70 88 o
-8 2 -11 35.58 20.50 54.50 88 <
-5 1 -10 724.67 979.70 71.80 88 o
6 -4 -9 17.22 54.80 54.10 88 <
-5 1 -9 391.43 693.10 70.00 88 o
6 -4 -8 38.23 57.50 55.00 88 <
2 -2 -8 497.91 435.90 65.90 88 o
-9 3 -8 816.88 632.30 64.30 88 o
6 -4 -7 34.44 -3.60 54.50 88 <
-2 0 -7 4346.20 4289.50 115.80 88 o
-9 3 -7 112.48 56.10 54.90 88 <
-6 2 -6 1221.10 827.40 70.90 88 o
5 -3 -5 50.63 27.10 57.90 88 <
-6 2 -5 1118.80 1360.00 79.50 88 o
5 -3 -4 492.83 589.20 65.30 88 o
1 -1 -4 457.95 494.40 81.40 88 o
-10 4 -4 262.17 424.60 61.80 88 o
-3 1 -3 11545.00 11783.10 172.70 88 o
-10 4 -3 122.94 108.00 55.80 88 <
-10 4 -2 134.99 -81.30 55.60 88 <
8 -4 -1 33.90 28.90 53.20 88 <
4 -2 -1 1061.60 909.60 75.30 88 o
-7 3 -1 703.74 679.20 66.70 88 o
8 -4 0 16.04 44.70 54.10 88 <
4 -2 0 6208.20 6135.80 126.90 88 o
-7 3 0 1265.80 978.80 71.60 88 o
8 -4 1 78.06 98.30 54.50 88 <
-4 2 2 772.04 1259.60 79.30 88 o
7 -3 3 164.15 246.80 58.90 88 o
7 -3 4 37.90 72.60 55.20 88 <
3 -1 4 1634.80 1683.20 92.50 88 o
-8 4 4 1012.30 837.70 68.70 88 o
7 -3 5 159.32 67.40 57.40 88 <
-1 1 5 2909.60 2808.60 104.70 88 o
-8 4 5 44.81 -67.20 55.70 88 <
-5 3 6 3253.10 3173.20 98.00 88 o
-8 4 6 213.74 149.70 55.80 88 <
6 -2 7 1563.30 1294.80 77.90 88 o
-5 3 7 215.73 238.50 59.70 88 o
6 -2 8 1501.30 1330.70 75.90 88 o
2 0 8 6113.50 5879.30 126.80 88 o
-5 3 8 134.65 163.80 59.10 88 <
6 -2 9 921.03 869.90 69.90 88 o
2 0 9 1519.30 1265.30 79.00 88 o
-2 2 9 257.73 291.80 64.20 88 o
-2 2 10 259.30 255.20 60.80 88 o
9 -3 11 138.95 53.50 55.00 88 <
-2 2 11 290.99 324.80 61.50 88 o
5 -1 12 160.92 174.60 58.20 88 o
5 -1 13 91.04 96.40 56.10 88 <
1 1 13 222.05 202.50 59.10 88 o
5 -1 14 231.92 222.80 56.80 88 o
1 1 14 981.47 890.50 69.90 88 o
1 1 15 348.03 381.30 60.70 88 o
-3 3 15 74.41 73.70 56.60 88 <
-3 3 16 32.70 49.90 55.30 88 <
4 0 17 77.05 48.70 54.40 88 <
4 0 18 84.25 59.80 54.00 88 <
0 2 18 566.12 294.00 58.70 88 o
-6 0 -17 117.46 73.70 54.70 89 <
-3 -1 -16 313.36 231.60 57.60 89 o
1 -3 -15 160.99 101.10 55.30 89 <
-3 -1 -15 134.42 84.80 54.40 89 <
-7 1 -15 129.56 -12.80 55.00 89 <
0 -2 -14 33.92 81.40 54.00 89 <
-7 1 -14 234.57 279.50 58.50 89 o
0 -2 -13 124.26 118.60 55.60 89 <
-4 0 -13 281.90 257.20 59.10 89 o
-4 0 -12 1101.00 1146.50 74.50 89 o
3 -3 -11 42.29 -36.10 54.10 89 <
-8 2 -11 42.65 -13.50 53.80 89 <
3 -3 -10 372.38 323.80 59.80 89 o
-1 -1 -10 398.39 488.50 67.80 89 o
-8 2 -10 847.91 1041.00 71.70 89 o
-5 1 -9 303.06 573.30 69.20 89 o
6 -4 -8 127.34 62.60 55.00 89 <
2 -2 -8 681.32 805.00 70.20 89 o
-5 1 -8 450.73 785.70 72.20 89 o
6 -4 -7 18.73 35.20 54.00 89 <
2 -2 -7 124.87 90.10 60.40 89 <
-9 3 -7 299.70 43.80 55.60 89 <
-2 0 -6 6343.80 6371.20 136.20 89 o
-9 3 -6 402.06 341.00 61.10 89 o
5 -3 -5 67.24 38.20 57.50 89 <
-6 2 -5 1551.20 1244.00 79.40 89 o
5 -3 -4 764.30 695.90 67.80 89 o
1 -1 -4 809.30 1108.40 87.70 89 o
-6 2 -4 833.92 913.00 74.40 89 o
8 -4 -2 56.39 55.00 53.30 89 <
-10 4 -2 34.84 37.80 53.80 89 <
8 -4 -1 63.54 66.40 53.70 89 <
4 -2 -1 834.95 886.50 75.40 89 o
-7 3 -1 1333.80 800.10 68.50 89 o
-10 4 -1 52.68 44.60 54.40 89 <
8 -4 0 23.37 -2.20 53.20 89 <
-7 3 0 1277.80 1289.00 76.10 89 o
7 -3 2 1515.40 1325.00 75.30 89 o
-4 2 2 1854.20 1683.30 85.70 89 o
7 -3 3 149.42 308.60 60.20 89 o
3 -1 3 12738.00 12130.80 175.40 89 o
-1 1 4 359.50 807.60 85.30 89 o
-8 4 4 631.25 467.40 61.60 89 o
-8 4 5 57.43 50.20 56.20 89 <
6 -2 6 1670.10 1157.50 77.20 89 o
-5 3 6 2456.70 2678.10 93.70 89 o
-8 4 6 293.84 150.60 57.90 89 <
6 -2 7 1278.20 1051.00 74.60 89 o
2 0 7 4390.60 4435.00 117.70 89 o
-5 3 7 156.72 220.30 60.10 89 o
9 -3 9 189.88 77.90 55.80 89 <
-2 2 9 424.90 510.60 66.20 89 o
9 -3 10 155.89 166.80 57.50 89 <
5 -1 10 695.71 800.30 70.70 89 o
-2 2 10 536.08 647.20 69.10 89 o
9 -3 11 68.52 112.80 55.00 89 <
5 -1 11 282.91 212.90 59.60 89 o
1 1 11 735.60 472.30 68.10 89 o
-6 4 11 81.36 -4.00 56.00 89 <
1 1 12 1843.20 1831.90 85.90 89 o
8 -2 13 119.26 51.10 54.50 89 <
1 1 13 302.62 289.40 60.80 89 o
-3 3 13 90.84 124.60 55.70 89 <
8 -2 14 350.79 337.00 59.20 89 o
4 0 14 504.13 347.40 61.60 89 o
-3 3 14 350.81 262.90 60.20 89 o
4 0 15 305.66 153.20 57.80 89 <
-3 3 15 198.69 125.40 56.40 89 <
4 0 16 106.12 140.10 56.10 89 <
0 2 16 64.74 19.70 55.60 89 <
-3 3 16 130.88 190.20 58.20 89 o
0 2 17 210.31 57.40 55.50 89 <
0 2 18 201.83 109.30 56.60 89 <
-2 -2 -17 42.48 22.30 53.50 90 <
-6 0 -17 120.45 48.20 54.10 90 <
-6 0 -16 166.88 5.30 55.10 90 <
1 -3 -15 91.64 4.30 54.90 90 <
-3 -1 -15 121.17 103.90 54.50 90 <
-3 -1 -14 130.33 182.20 56.30 90 o
0 -2 -13 86.15 40.00 54.90 90 <
-7 1 -13 134.15 126.20 55.30 90 <
0 -2 -12 614.62 508.30 62.60 90 o
-4 0 -12 1331.10 1069.40 72.40 90 o
-4 0 -11 47.18 231.90 63.00 90 o
3 -3 -10 526.22 373.30 60.60 90 o
-8 2 -10 1044.70 1003.80 70.40 90 o
-11 3 -10 56.66 21.20 53.90 90 <
3 -3 -9 193.27 142.90 56.70 90 <
-1 -1 -9 1512.20 1843.40 87.10 90 o
-8 2 -9 154.56 186.00 57.00 90 o
6 -4 -8 92.73 -11.80 55.10 90 <
-5 1 -8 399.99 482.30 68.20 90 o
6 -4 -7 21.72 18.60 54.00 90 <
2 -2 -7 406.01 464.30 66.50 90 o
6 -4 -6 420.21 510.40 62.30 90 o
-2 0 -6 4509.20 4857.30 123.60 90 o
-9 3 -6 478.24 487.70 62.50 90 o
5 -3 -5 35.27 48.10 56.40 90 <
-9 3 -5 93.39 120.70 57.10 90 <
5 -3 -4 390.01 387.50 63.50 90 o
-6 2 -4 666.42 654.50 71.20 90 o
8 -4 -2 41.77 47.40 53.60 90 <
-3 1 -2 37858.00 36647.00 283.40 90 o
-10 4 -2 54.34 16.80 53.30 90 <
8 -4 -1 22.50 36.50 55.00 90 <
4 -2 -1 1133.50 1066.90 77.80 90 o
-10 4 -1 59.66 60.40 55.50 90 <
8 -4 0 27.46 64.80 54.00 90 <
-7 3 0 868.49 779.70 69.50 90 o
-10 4 0 403.59 272.30 59.10 90 o
-7 3 1 706.63 648.60 68.10 90 o
7 -3 2 1331.30 1206.20 74.60 90 o
-4 2 2 1426.20 1284.90 80.00 90 o
7 -3 3 449.61 390.60 61.40 90 o
-1 1 4 692.92 924.00 86.60 90 o
-8 4 4 670.56 546.00 65.70 90 o
10 -4 5 35.15 5.80 53.20 90 <
6 -2 5 1623.60 1500.50 80.90 90 o
-8 4 5 89.54 27.70 55.80 90 <
6 -2 6 1668.40 1195.80 78.00 90 o
2 0 6 5868.70 6034.00 131.40 90 o
-5 3 6 2377.80 2195.80 87.40 90 o
-8 4 6 253.40 183.10 56.70 90 o
2 0 7 5687.00 4270.30 116.00 90 o
-5 3 7 154.88 160.00 58.30 90 <
9 -3 8 1033.80 612.00 64.80 90 o
-2 2 8 537.49 673.10 71.10 90 o
9 -3 9 82.93 111.10 55.80 90 <
5 -1 9 297.82 273.80 65.50 90 o
-2 2 9 290.92 306.10 63.60 90 o
9 -3 10 246.79 247.60 57.70 90 o
5 -1 10 594.42 753.30 68.80 90 o
1 1 10 686.05 672.80 70.70 90 o
-6 4 10 79.08 55.40 55.30 90 <
1 1 11 652.87 709.80 71.10 90 o
-6 4 11 84.89 33.10 56.20 90 <
8 -2 12 109.49 21.40 54.90 90 <
-3 3 12 243.21 166.60 56.50 90 <
8 -2 13 62.60 84.20 54.80 90 <
4 0 13 222.72 260.90 60.20 90 o
-3 3 13 46.52 60.90 55.60 90 <
8 -2 14 448.47 322.20 58.50 90 o
4 0 14 286.77 279.80 59.30 90 o
-3 3 14 393.25 319.30 59.90 90 o
0 2 15 189.28 143.40 56.70 90 <
7 -1 16 101.55 121.50 56.20 90 <
0 2 16 46.19 39.30 55.40 90 <
3 1 17 93.94 74.10 54.90 90 <
0 2 17 238.64 97.30 56.40 90 <
3 1 18 389.09 320.60 58.80 90 o
-2 -2 -17 25.75 27.60 54.30 91 <
-2 -2 -16 518.70 471.00 62.80 91 o
-6 0 -16 269.99 -62.70 55.70 91 <
1 -3 -15 84.15 73.20 54.70 91 <
-6 0 -15 27.41 24.50 54.40 91 <
1 -3 -14 169.77 223.20 58.60 91 o
-3 -1 -14 137.38 144.40 56.70 91 <
-3 -1 -13 33.37 4.60 55.70 91 <
-10 2 -13 37.20 43.80 53.80 91 <
0 -2 -12 342.74 461.50 61.00 91 o
-7 1 -12 257.66 164.50 58.60 91 <
-4 0 -11 163.89 198.90 62.70 91 o
3 -3 -10 546.46 502.30 62.30 91 o
-4 0 -10 2438.20 2486.60 91.80 91 o
-11 3 -10 46.04 74.20 54.80 91 <
3 -3 -9 37.74 90.10 55.50 91 <
-1 -1 -9 1861.00 2277.10 90.80 91 o
-8 2 -9 121.07 89.90 56.00 91 <
-11 3 -9 46.35 73.00 53.60 91 <
6 -4 -8 136.37 104.70 55.10 91 <
-8 2 -8 161.71 166.80 57.40 91 <
6 -4 -7 38.12 8.70 53.80 91 <
2 -2 -7 153.07 306.50 63.90 91 o
-5 1 -7 764.77 1035.90 76.00 91 o
6 -4 -6 577.24 593.90 63.40 91 o
5 -3 -5 68.12 116.70 57.10 91 <
-9 3 -5 69.51 81.10 55.30 91 <
5 -3 -4 639.08 588.00 66.10 91 o
-6 2 -4 662.29 762.30 71.80 91 o
-9 3 -4 558.66 372.20 60.90 91 o
-6 2 -3 902.48 952.80 80.40 91 o
8 -4 -2 32.16 -4.10 54.50 91 <
-3 1 -2 37362.00 36896.40 284.60 91 o
8 -4 -1 86.54 51.80 54.10 91 <
4 -2 -1 538.87 805.00 74.40 91 o
-10 4 -1 145.91 79.20 56.50 91 <
-7 3 0 1426.10 1346.60 76.50 91 o
-10 4 0 432.01 377.30 60.60 91 o
7 -3 1 564.08 549.10 65.30 91 o
-7 3 1 883.42 667.60 68.10 91 o
7 -3 2 1576.50 1355.60 76.70 91 o
3 -1 2 41858.00 36898.20 284.70 91 o
-4 2 2 1663.40 1422.00 81.40 91 o
10 -4 4 245.95 289.80 57.80 91 o
-1 1 4 548.84 928.90 85.80 91 o
-8 4 4 737.51 720.00 66.40 91 o
10 -4 5 47.46 61.60 53.10 91 <
6 -2 5 1281.70 1250.00 78.20 91 o
-8 4 5 36.68 45.50 55.10 91 <
2 0 6 4743.30 4978.90 122.60 91 o
-5 3 6 2244.30 2118.40 87.60 91 o
-8 4 6 209.00 121.30 56.90 91 <
9 -3 7 263.27 123.30 56.80 91 <
-5 3 7 155.00 29.20 59.00 91 <
9 -3 8 1056.00 718.50 67.60 91 o
5 -1 8 552.28 1040.10 75.60 91 o
-2 2 8 207.99 388.90 66.70 91 o
9 -3 9 117.45 59.00 55.20 91 <
5 -1 9 349.00 412.80 65.80 91 o
1 1 10 316.59 305.90 64.10 91 o
-6 4 10 61.00 11.50 56.20 91 <
8 -2 11 70.96 54.60 54.80 91 <
-6 4 11 61.35 -8.00 55.90 91 <
8 -2 12 111.03 -13.30 55.20 91 <
4 0 12 1281.70 1189.90 74.00 91 o
-3 3 12 212.35 72.60 56.60 91 <
4 0 13 192.16 213.30 60.00 91 o
-3 3 13 63.40 50.50 55.00 91 <
7 -1 14 375.42 230.30 58.60 91 o
0 2 14 23.14 23.10 54.20 91 <
-3 3 14 474.98 465.00 61.20 91 o
7 -1 15 107.24 52.50 55.00 91 <
0 2 15 144.30 149.10 57.90 91 <
7 -1 16 102.57 82.60 55.30 91 <
3 1 16 240.06 257.60 57.70 91 o
0 2 16 75.11 121.00 56.30 91 <
3 1 17 111.07 85.20 54.80 91 <
3 1 18 436.11 344.90 59.80 91 o
-5 -1 -17 153.04 98.50 55.90 92 <
-2 -2 -16 682.43 613.50 64.90 92 o
-5 -1 -16 587.98 590.00 63.10 92 o
-2 -2 -15 431.37 488.80 65.20 92 o
-9 1 -15 22.04 55.80 52.10 92 <
1 -3 -14 199.47 136.10 56.00 92 <
-6 0 -14 352.36 320.70 60.10 92 o
1 -3 -13 54.49 93.30 56.60 92 <
-3 -1 -13 36.33 67.10 54.90 92 <
-3 -1 -12 45.96 47.20 56.00 92 <
-10 2 -12 502.67 503.90 62.10 92 o
4 -4 -11 133.56 169.10 56.50 92 <
0 -2 -11 42.13 58.30 55.70 92 <
-7 1 -11 135.42 76.00 57.30 92 <
-4 0 -10 1891.00 2133.20 90.40 92 o
3 -3 -9 12.40 12.30 55.20 92 <
-11 3 -9 24.24 38.20 52.40 92 <
-1 -1 -8 250.16 369.20 65.40 92 o
-8 2 -8 168.59 95.20 56.90 92 <
-11 3 -8 19.08 33.90 53.10 92 <
6 -4 -7 27.35 21.30 53.60 92 <
-8 2 -7 40.40 66.50 55.20 92 <
6 -4 -6 360.04 382.60 59.80 92 o
2 -2 -6 199.52 168.00 63.30 92 <
-5 1 -6 393.90 379.80 67.00 92 o
-2 0 -5 7094.60 6714.60 140.70 92 o
5 -3 -4 410.86 392.60 63.20 92 o
-9 3 -4 286.71 216.10 59.10 92 o
1 -1 -3 2190.90 2341.20 108.20 92 o
-6 2 -3 725.38 772.00 76.50 92 o
8 -4 -2 27.76 10.90 53.00 92 <
8 -4 -1 36.02 60.10 54.90 92 <
4 -2 -1 702.60 1005.90 77.10 92 o
-10 4 -1 107.55 186.90 57.60 92 o
-7 3 0 1857.80 1756.00 81.40 92 o
-10 4 0 301.31 190.10 58.40 92 o
7 -3 1 449.76 495.00 64.70 92 o
-7 3 1 480.91 643.00 68.30 92 o
7 -3 2 2522.80 2134.70 84.80 92 o
3 -1 2 31113.00 32606.60 268.40 92 o
-4 2 2 1345.30 1254.90 79.60 92 o
10 -4 3 125.91 80.80 54.20 92 <
10 -4 4 230.44 195.40 55.90 92 o
6 -2 4 871.44 1082.60 75.90 92 o
-8 4 4 784.57 685.00 67.30 92 o
10 -4 5 53.53 9.90 52.80 92 <
2 0 5 8834.10 6373.90 136.80 92 o
-8 4 5 67.60 -26.90 55.20 92 <
9 -3 6 527.86 472.40 61.70 92 o
-5 3 6 2206.80 2367.20 89.40 92 o
9 -3 7 274.98 169.30 57.70 92 <
5 -1 7 1438.50 1263.30 80.00 92 o
-2 2 7 321.31 442.90 67.30 92 o
5 -1 8 544.49 878.90 72.80 92 o
8 -2 9 112.21 114.20 57.00 92 <
1 1 9 1414.70 1702.90 88.00 92 o
-6 4 9 141.40 71.20 56.50 92 <
8 -2 10 713.08 739.10 66.20 92 o
-6 4 10 38.57 -32.90 55.20 92 <
8 -2 11 94.47 115.60 55.60 92 <
4 0 11 26.00 180.60 61.60 92 <
-3 3 11 70.67 48.10 56.50 92 <
-6 4 11 31.86 37.80 55.40 92 <
-3 3 12 203.94 85.40 56.10 92 <
7 -1 13 111.28 75.40 55.80 92 <
0 2 13 78.64 40.20 55.90 92 <
7 -1 14 203.60 133.30 57.10 92 <
3 1 14 227.43 203.50 55.80 92 o
0 2 14 34.19 10.60 56.00 92 <
3 1 15 112.67 107.80 54.70 92 <
6 0 16 415.28 173.20 56.40 92 o
3 1 16 202.56 156.90 57.10 92 <
6 0 17 104.71 43.80 53.80 92 <
-5 -1 -16 403.85 390.80 60.70 93 o
-2 -2 -15 468.14 528.40 64.10 93 o
-5 -1 -15 251.13 118.50 56.00 93 <
-9 1 -15 26.21 -1.20 53.20 93 <
-2 -2 -14 423.20 337.40 59.70 93 o
-9 1 -14 9.79 -109.60 54.70 93 <
1 -3 -13 293.77 326.10 59.00 93 o
-6 0 -13 36.54 31.90 55.20 93 <
1 -3 -12 354.96 452.20 60.30 93 o
-3 -1 -12 57.29 86.70 56.70 93 <
-10 2 -12 805.14 814.20 65.50 93 o
4 -4 -11 161.70 83.20 56.70 93 <
-10 2 -11 193.57 141.10 58.00 93 <
4 -4 -10 67.09 49.50 54.90 93 <
0 -2 -10 224.64 204.40 59.50 93 o
-7 1 -10 865.99 851.50 69.40 93 o
3 -3 -9 30.85 48.10 54.70 93 <
-4 0 -9 1142.30 1117.20 77.50 93 o
3 -3 -8 97.11 146.00 56.40 93 <
-1 -1 -8 299.02 455.20 66.70 93 o
-11 3 -8 24.11 18.30 53.40 93 <
6 -4 -7 38.61 -25.60 54.30 93 <
-8 2 -7 25.64 33.30 55.50 93 <
-11 3 -7 99.71 23.00 54.60 93 <
6 -4 -6 471.88 500.90 62.00 93 o
2 -2 -6 232.07 185.00 63.60 93 <
-5 1 -6 165.04 205.60 65.10 93 o
5 -3 -4 459.85 456.60 63.90 93 o
-9 3 -4 530.88 366.10 61.10 93 o
1 -1 -3 3771.40 2643.60 110.70 93 o
-6 2 -3 853.27 1004.00 76.80 93 o
-9 3 -3 20.51 2.80 55.00 93 <
8 -4 -2 32.65 59.80 54.10 93 <
8 -4 -1 51.92 63.90 55.50 93 <
4 -2 -1 655.68 748.60 73.50 93 o
-10 4 0 292.81 212.00 57.50 93 o
7 -3 1 395.29 482.00 64.70 93 o
-7 3 1 750.91 734.00 68.00 93 o
-10 4 1 74.09 64.90 55.50 93 <
3 -1 2 41035.00 43673.60 306.50 93 o
-4 2 2 1083.60 990.30 77.00 93 o
10 -4 3 55.59 22.30 53.60 93 <
10 -4 4 132.86 91.70 55.10 93 <
6 -2 4 870.53 1077.60 77.30 93 o
-8 4 4 1133.60 896.10 69.80 93 o
2 0 5 7638.80 6723.70 139.90 93 o
-5 3 5 192.10 137.30 58.80 93 <
-8 4 5 37.59 4.90 54.70 93 <
9 -3 6 369.76 369.50 59.80 93 o
-5 3 6 2253.80 2193.90 88.30 93 o
9 -3 7 408.21 169.60 56.60 93 <
5 -1 7 1189.90 972.70 77.10 93 o
-2 2 7 281.25 268.40 63.50 93 o
1 1 8 198.64 417.50 66.80 93 o
8 -2 9 85.01 122.40 56.40 93 <
-6 4 9 46.31 86.60 55.20 93 <
8 -2 10 1081.00 1142.50 71.60 93 o
4 0 10 1724.20 1993.00 88.30 93 o
-3 3 10 625.24 465.20 63.80 93 o
-6 4 10 33.93 48.40 55.50 93 <
-3 3 11 89.16 2.50 56.10 93 <
7 -1 12 230.22 277.30 59.00 93 o
0 2 12 713.53 473.40 63.30 93 o
7 -1 13 106.87 61.90 55.70 93 <
3 1 13 32.65 83.00 55.50 93 <
0 2 13 119.96 119.80 56.80 93 <
3 1 14 98.56 90.30 56.20 93 <
6 0 15 51.71 5.20 53.50 93 <
6 0 16 170.55 79.30 54.40 93 <
6 0 17 157.28 85.90 54.20 93 <
2 2 17 97.04 33.10 54.30 93 <
-8 0 -16 79.62 41.80 53.60 94 <
-5 -1 -15 119.82 87.00 55.60 94 <
-8 0 -15 33.59 13.30 53.40 94 <
-2 -2 -14 284.98 314.20 58.40 94 o
-2 -2 -13 35.69 19.50 54.50 94 <
-9 1 -13 23.98 -0.70 53.10 94 <
1 -3 -12 191.81 278.30 59.10 94 o
-6 0 -12 367.25 452.40 61.40 94 o
4 -4 -11 120.53 126.60 55.70 94 <
-3 -1 -11 17.94 57.50 57.00 94 <
4 -4 -10 136.57 43.30 55.70 94 <
0 -2 -10 292.30 270.20 61.00 94 o
-10 2 -10 229.82 251.90 58.50 94 o
-7 1 -9 344.85 297.50 63.50 94 o
3 -3 -8 35.79 37.80 55.40 94 <
-4 0 -8 79.67 55.80 61.00 94 <
6 -4 -7 6.66 -8.00 54.00 94 <
-1 -1 -7 70.96 85.50 62.30 94 <
-11 3 -7 52.39 2.80 53.30 94 <
6 -4 -6 311.61 275.50 58.70 94 o
2 -2 -6 106.18 104.70 60.40 94 <
-8 2 -6 267.33 237.80 60.40 94 o
-5 1 -5 131.09 254.80 66.70 94 o
5 -3 -4 389.61 372.50 63.00 94 o
1 -1 -3 1264.00 1374.40 97.70 94 o
-9 3 -3 13.90 -13.80 55.00 94 <
-12 4 -3 28.32 -19.40 53.50 94 <
8 -4 -2 22.43 23.30 53.50 94 <
-6 2 -2 159.72 317.20 64.90 94 o
4 -2 -1 700.49 705.60 74.20 94 o
-3 1 -1 8090.80 7170.60 145.60 94 o
7 -3 0 1427.80 1213.40 74.20 94 o
-10 4 0 320.46 218.40 58.10 94 o
7 -3 1 443.70 502.10 63.10 94 o
-7 3 1 603.38 667.10 68.20 94 o
-10 4 1 52.17 49.40 55.40 94 <
10 -4 2 195.50 180.40 55.50 94 o
-4 2 2 881.91 1196.50 78.90 94 o
10 -4 3 55.07 49.70 52.40 94 <
6 -2 3 798.54 1128.10 76.50 94 o
-1 1 3 1223.20 1359.00 96.20 94 o
-8 4 4 809.49 758.00 66.90 94 o
9 -3 5 60.10 58.30 55.80 94 <
-5 3 5 29.84 27.50 58.00 94 <
-8 4 5 32.42 32.50 54.80 94 <
9 -3 6 519.41 491.80 62.20 94 o
5 -1 6 148.50 222.20 65.00 94 o
-5 3 6 2380.70 2431.80 91.00 94 o
-2 2 7 137.09 193.20 61.50 94 o
8 -2 8 69.25 95.60 55.30 94 <
1 1 8 178.94 322.70 64.90 94 o
11 -3 9 94.32 35.00 52.90 94 <
4 0 9 1102.30 1059.20 75.50 94 o
-6 4 9 11.89 21.40 54.80 94 <
11 -3 10 72.49 61.80 54.30 94 <
-3 3 10 375.05 320.20 60.20 94 o
-6 4 10 39.99 48.10 54.60 94 <
7 -1 11 127.23 157.30 57.20 94 <
0 2 11 24.28 17.80 57.00 94 <
-3 3 11 69.95 30.40 55.20 94 <
10 -2 12 726.99 660.50 64.10 94 o
3 1 12 73.89 35.30 55.40 94 <
0 2 12 484.20 477.00 63.00 94 o
10 -2 13 15.92 46.90 53.50 94 <
3 1 13 32.87 40.00 55.00 94 <
6 0 14 403.61 339.90 59.90 94 o
6 0 15 24.41 45.70 54.10 94 <
-1 3 15 91.52 14.80 57.00 94 <
2 2 16 494.40 348.90 61.70 94 o
5 1 17 181.81 111.40 54.50 94 <
2 2 17 19.71 24.10 54.00 94 <
-4 -2 -16 39.95 -25.00 53.70 95 <
-1 -3 -15 42.88 57.10 54.80 95 <
-8 0 -15 27.01 75.50 53.60 95 <
-1 -3 -14 302.43 320.00 59.20 95 o
-5 -1 -14 154.39 60.10 54.70 95 <
-8 0 -14 701.55 524.90 64.00 95 o
-2 -2 -13 65.27 -15.40 53.40 95 <
-5 -1 -13 87.06 78.50 55.40 95 <
1 -3 -12 438.35 478.90 61.70 95 o
-2 -2 -12 102.16 81.90 56.00 95 <
-9 1 -12 110.42 87.00 55.70 95 <
-12 2 -12 149.68 123.60 55.90 95 <
1 -3 -11 54.81 22.00 54.70 95 <
-6 0 -11 240.53 195.30 59.70 95 o
4 -4 -10 37.19 -18.10 54.10 95 <
-3 -1 -10 2696.10 3124.20 100.60 95 o
4 -4 -9 31.06 15.80 55.10 95 <
0 -2 -9 104.48 106.30 60.10 95 <
-10 2 -9 19.38 16.60 54.10 95 <
3 -3 -8 22.64 47.50 55.10 95 <
-4 0 -8 89.51 45.20 60.90 95 <
-7 1 -8 786.02 683.20 71.10 95 o
3 -3 -7 150.04 118.60 57.50 95 <
6 -4 -6 230.98 276.70 59.60 95 o
-8 2 -6 338.89 301.90 60.90 95 o
-11 3 -6 783.20 865.70 67.70 95 o
2 -2 -5 168.35 244.70 63.80 95 o
-5 1 -5 158.52 333.40 67.40 95 o
-8 2 -5 105.43 166.10 59.70 95 <
5 -3 -4 613.39 494.10 65.90 95 o
-2 0 -4 471.47 613.90 92.80 95 o
-9 3 -3 10.00 -4.80 55.30 95 <
-12 4 -3 45.57 56.10 54.70 95 <
8 -4 -2 55.49 53.80 53.90 95 <
-6 2 -2 174.50 266.80 64.00 95 o
-9 3 -2 283.09 219.10 57.30 95 o
-12 4 -2 348.54 224.30 58.30 95 o
4 -2 -1 700.16 527.80 71.50 95 o
-3 1 -1 7121.00 6974.90 144.60 95 o
7 -3 0 1314.10 1131.10 74.00 95 o
-10 4 0 462.48 364.70 60.80 95 o
-7 3 1 757.80 745.20 68.90 95 o
-10 4 1 69.85 65.10 55.00 95 <
10 -4 2 322.23 135.40 56.80 95 <
-4 2 2 1071.30 1024.30 76.10 95 o
10 -4 3 94.55 10.60 53.90 95 <
6 -2 3 654.20 609.00 73.40 95 o
-1 1 3 1540.10 1483.60 97.30 95 o
9 -3 4 446.08 346.20 60.40 95 o
2 0 4 425.44 584.00 91.20 95 o
-8 4 4 633.06 706.50 66.20 95 o
9 -3 5 74.11 92.40 55.90 95 <
-5 3 5 33.34 4.90 58.20 95 <
-8 4 5 53.86 30.90 55.00 95 <
-2 2 6 48.83 38.60 61.20 95 <
8 -2 7 43.31 4.80 54.90 95 <
1 1 7 46.15 46.60 63.10 95 <
11 -3 8 19.97 20.80 53.30 95 <
4 0 8 87.83 60.30 60.80 95 <
-6 4 8 52.79 37.60 54.50 95 <
11 -3 9 41.81 0.20 53.50 95 <
-3 3 9 15.61 61.30 56.00 95 <
-6 4 9 36.78 47.20 54.40 95 <
7 -1 10 767.31 814.30 69.40 95 o
0 2 10 290.75 290.40 60.60 95 o
-3 3 10 475.74 226.90 59.70 95 o
10 -2 11 231.03 191.80 57.80 95 o
3 1 11 30.59 65.30 57.70 95 <
0 2 11 65.56 47.80 55.70 95 <
10 -2 12 545.62 407.70 59.70 95 o
3 1 12 38.97 25.40 55.20 95 <
6 0 13 29.07 36.00 55.00 95 <
-1 3 13 127.10 86.40 56.00 95 <
9 -1 14 11.76 13.80 53.20 95 <
2 2 14 499.20 462.40 63.20 95 o
-1 3 14 179.52 100.20 57.00 95 <
9 -1 15 28.06 20.40 53.00 95 <
2 2 15 401.00 434.80 63.10 95 o
5 1 16 557.48 504.20 62.80 95 o
5 1 17 177.25 61.80 54.30 95 <
-4 -2 -16 62.89 76.30 54.20 96 <
-7 -1 -16 93.36 113.80 56.80 96 <
-4 -2 -15 73.38 15.50 54.40 96 <
-1 -3 -14 214.65 145.40 56.80 96 <
-8 0 -14 456.40 347.00 61.30 96 o
-11 1 -14 75.06 101.90 54.50 96 <
-5 -1 -13 50.54 29.70 55.80 96 <
-2 -2 -12 73.07 1.60 55.60 96 <
-12 2 -12 116.29 128.80 55.20 96 <
1 -3 -11 33.70 27.20 55.80 96 <
-6 0 -11 314.11 155.70 59.30 96 <
-9 1 -11 89.70 65.90 55.70 96 <
-12 2 -11 150.33 -34.90 55.20 96 <
4 -4 -10 57.95 40.80 53.80 96 <
-3 -1 -10 3103.90 3188.00 101.40 96 o
-6 0 -10 1096.50 1155.90 74.90 96 o
4 -4 -9 79.25 43.00 55.00 96 <
0 -2 -9 129.52 160.50 61.90 96 <
-10 2 -9 22.43 56.80 54.20 96 <
3 -3 -8 41.88 51.80 55.80 96 <
-7 1 -8 555.89 558.80 67.60 96 o
-10 2 -8 45.11 57.70 54.30 96 <
3 -3 -7 463.73 369.30 60.60 96 o
-4 0 -7 562.17 1024.80 77.30 96 o
6 -4 -6 336.69 399.80 61.00 96 o
-1 -1 -6 15131.00 15347.30 193.40 96 o
-11 3 -6 921.24 996.20 70.80 96 o
2 -2 -5 197.34 328.20 64.90 96 o
-8 2 -5 151.23 200.30 61.20 96 o
-11 3 -5 372.86 222.00 59.30 96 o
5 -3 -4 430.84 456.60 64.10 96 o
8 -4 -3 42.39 80.70 55.00 96 <
-12 4 -3 33.55 -15.00 54.10 96 <
8 -4 -2 18.56 32.00 53.10 96 <
-6 2 -2 207.27 454.90 67.50 96 o
-9 3 -2 389.65 303.10 60.30 96 o
-12 4 -2 142.62 149.90 57.00 96 <
-3 1 -1 6299.30 5667.30 135.90 96 o
7 -3 0 972.31 962.60 70.60 96 o
10 -4 1 217.42 91.60 55.30 96 <
3 -1 1 6516.60 6460.70 141.70 96 o
-7 3 1 816.97 684.10 68.40 96 o
-10 4 1 59.48 71.10 55.00 96 <
10 -4 2 321.86 188.30 56.20 96 o
6 -2 2 175.82 302.20 64.70 96 o
-4 2 2 662.91 911.40 75.80 96 o
-7 3 2 305.40 323.20 61.70 96 o
-1 1 3 1849.30 1424.20 96.40 96 o
9 -3 4 482.63 397.20 61.20 96 o
2 0 4 522.02 622.00 91.50 96 o
-8 4 4 1011.70 989.10 70.90 96 o
5 -1 5 162.02 383.10 67.50 96 o
-5 3 5 19.36 51.40 57.10 96 <
-8 4 5 88.51 43.70 56.10 96 <
8 -2 6 336.92 339.10 62.20 96 o
-2 2 6 143.15 199.40 64.20 96 o
8 -2 7 43.24 37.20 55.90 96 <
1 1 7 66.98 66.00 63.60 96 <
11 -3 8 12.03 35.40 53.30 96 <
4 0 8 86.47 29.80 60.40 96 <
-6 4 8 60.22 42.20 56.10 96 <
11 -3 9 96.51 -0.40 53.80 96 <
7 -1 9 293.32 297.80 62.80 96 o
-3 3 9 19.25 29.80 55.30 96 <
-6 4 9 8.47 -10.40 55.30 96 <
10 -2 10 450.39 386.90 60.60 96 o
0 2 10 173.65 168.40 59.00 96 <
10 -2 11 257.66 160.80 57.50 96 <
3 1 11 33.68 -9.60 58.00 96 <
6 0 12 405.15 449.10 62.40 96 o
9 -1 13 72.53 -11.50 53.90 96 <
-1 3 13 98.51 55.70 56.10 96 <
9 -1 14 6.79 28.40 53.10 96 <
2 2 14 272.05 169.70 57.80 96 <
-1 3 14 214.01 154.00 56.50 96 <
5 1 15 178.61 61.20 56.20 96 <
8 0 16 91.36 43.00 52.90 96 <
5 1 16 713.26 568.30 63.30 96 o
-4 -2 -15 54.36 31.40 53.40 97 <
-7 -1 -15 81.42 46.50 55.00 97 <
-1 -3 -14 263.36 210.20 56.90 97 o
-4 -2 -14 169.40 162.60 56.30 97 <
-11 1 -14 51.41 13.00 54.40 97 <
-1 -3 -13 29.97 96.40 54.20 97 <
-8 0 -13 59.34 5.80 55.20 97 <
-11 1 -13 58.91 0.00 54.20 97 <
-5 -1 -12 50.02 60.90 55.40 97 <
1 -3 -11 48.24 59.20 54.50 97 <
-2 -2 -11 40.94 75.80 54.40 97 <
-12 2 -11 83.74 79.30 54.20 97 <
1 -3 -10 1415.30 1392.80 75.30 97 o
-6 0 -10 696.55 798.20 71.20 97 o
-9 1 -10 983.84 824.60 68.70 97 o
4 -4 -9 43.78 -3.40 53.80 97 <
-3 -1 -9 1243.70 987.70 74.70 97 o
0 -2 -8 2012.70 1984.50 86.00 97 o
-10 2 -8 30.13 40.60 54.50 97 <
-13 3 -8 327.30 270.60 59.70 97 o
3 -3 -7 92.03 144.50 58.10 97 <
-4 0 -7 961.95 638.30 74.20 97 o
-7 1 -7 146.73 169.10 61.60 97 <
6 -4 -6 186.67 164.70 57.70 97 <
-1 -1 -6 12109.00 12083.10 171.40 97 o
2 -2 -5 222.87 387.70 67.30 97 o
-8 2 -5 63.04 197.70 63.30 97 o
-11 3 -5 240.66 198.90 57.80 97 o
5 -3 -4 707.48 629.70 67.40 97 o
-5 1 -4 7813.40 8366.00 147.40 97 o
8 -4 -3 28.93 48.30 53.90 97 <
8 -4 -2 40.24 51.80 53.80 97 <
-9 3 -2 231.99 232.40 58.10 97 o
-12 4 -2 135.39 145.00 56.50 97 <
-6 2 -1 122.64 92.40 61.10 97 <
7 -3 0 1075.20 952.30 71.40 97 o
10 -4 1 131.43 123.30 55.20 97 <
3 -1 1 6919.20 6032.00 138.70 97 o
-10 4 1 94.96 48.20 54.40 97 <
6 -2 2 146.38 310.70 64.70 97 o
-4 2 2 987.57 1097.50 76.60 97 o
-7 3 2 800.73 900.50 70.00 97 o
-10 4 2 260.84 195.70 58.20 97 o
9 -3 3 35.99 68.80 54.30 97 <
9 -3 4 393.51 362.50 59.80 97 o
-5 3 5 21.75 39.90 57.00 97 <
-8 4 5 75.83 58.90 55.60 97 <
8 -2 6 205.68 173.00 58.60 97 <
1 1 6 18134.00 16651.90 198.60 97 o
-2 2 6 275.62 298.70 64.50 97 o
11 -3 7 40.68 11.50 54.30 97 <
4 0 7 666.69 964.80 75.40 97 o
11 -3 8 17.17 30.90 53.40 97 <
7 -1 8 708.64 655.70 69.20 97 o
-6 4 8 54.86 96.20 55.10 97 <
10 -2 9 54.23 75.20 54.80 97 <
0 2 9 96.05 95.40 59.40 97 <
-3 3 9 22.87 9.80 56.80 97 <
-6 4 9 15.81 31.40 55.00 97 <
10 -2 10 324.24 302.40 59.30 97 o
3 1 10 2357.60 2588.90 95.30 97 o
6 0 11 190.46 211.70 58.70 97 o
9 -1 12 115.14 161.10 56.20 97 <
-1 3 12 289.99 375.70 62.40 97 o
9 -1 13 85.23 -34.60 53.90 97 <
2 2 13 26.28 -4.10 54.50 97 <
-1 3 13 75.87 79.60 55.20 97 <
5 1 14 140.81 71.90 54.00 97 <
8 0 15 21.14 34.70 54.00 97 <
8 0 16 112.49 46.80 53.70 97 <
-7 -1 -15 119.41 142.20 55.70 98 <
-10 0 -15 29.57 8.90 52.70 98 <
-4 -2 -14 162.11 117.00 56.10 98 <
-7 -1 -14 267.73 279.50 58.40 98 o
-1 -3 -13 30.22 4.60 53.90 98 <
-11 1 -13 78.36 69.30 54.30 98 <
-5 -1 -12 131.77 144.40 56.70 98 <
-8 0 -12 96.28 88.60 55.40 98 <
-11 1 -12 732.55 735.10 66.20 98 o
-2 -2 -11 42.35 85.00 55.50 98 <
1 -3 -10 962.46 901.10 68.30 98 o
-9 1 -10 853.44 774.20 67.80 98 o
-12 2 -10 69.30 5.60 54.10 98 <
4 -4 -9 54.48 -1.90 53.70 98 <
-3 -1 -9 1486.40 1035.90 77.30 98 o
-6 0 -9 1986.30 1979.20 89.90 98 o
0 -2 -8 1794.70 1820.90 85.60 98 o
-13 3 -8 776.14 697.30 65.10 98 o
3 -3 -7 387.69 191.60 58.50 98 o
-7 1 -7 164.23 207.00 62.30 98 o
-10 2 -7 20.55 21.60 56.10 98 <
-13 3 -7 89.60 -10.00 54.20 98 <
6 -4 -6 417.98 424.80 61.40 98 o
-4 0 -6 385.00 523.40 72.60 98 o
2 -2 -5 252.13 381.60 67.40 98 o
5 -3 -4 495.04 555.70 66.60 98 o
-5 1 -4 12234.00 11030.30 163.90 98 o
-8 2 -4 3228.60 3920.50 108.50 98 o
-11 3 -4 417.25 387.30 60.70 98 o
8 -4 -3 52.51 43.70 54.10 98 <
8 -4 -2 14.14 32.70 54.10 98 <
-12 4 -2 165.87 158.30 55.60 98 <
7 -3 -1 780.06 692.80 68.20 98 o
-6 2 -1 60.53 100.80 61.40 98 <
-9 3 -1 21.30 23.90 55.00 98 <
-12 4 -1 21.57 16.60 54.20 98 <
10 -4 0 563.53 490.30 62.40 98 o
7 -3 0 1172.50 1309.50 76.30 98 o
10 -4 1 181.38 157.40 55.40 98 <
-10 4 1 90.43 64.70 54.60 98 <
6 -2 2 147.69 291.70 64.40 98 o
-4 2 2 785.56 864.80 74.20 98 o
-7 3 2 308.86 333.90 61.20 98 o
-10 4 2 568.83 404.40 60.90 98 o
9 -3 3 19.36 12.20 53.80 98 <
5 -1 4 8941.50 8411.90 147.90 98 o
8 -2 5 173.50 153.70 62.60 98 <
-5 3 5 37.67 53.00 56.80 98 <
-8 4 5 60.66 -17.60 56.00 98 <
11 -3 6 766.73 793.90 67.60 98 o
1 1 6 12525.00 11881.60 171.50 98 o
11 -3 7 43.42 2.00 54.30 98 <
4 0 7 813.16 598.80 75.20 98 o
7 -1 8 789.69 678.50 70.10 98 o
-3 3 8 40.84 70.10 56.90 98 <
-6 4 8 99.68 69.80 55.90 98 <
10 -2 9 85.96 59.80 54.20 98 <
0 2 9 113.85 85.50 60.60 98 <
-3 3 9 33.84 89.70 56.50 98 <
-6 4 9 27.25 -0.30 55.40 98 <
6 0 10 944.47 943.20 72.70 98 o
3 1 10 2563.30 3039.90 98.40 98 o
9 -1 11 121.37 84.40 56.00 98 <
-4 4 11 188.15 121.90 56.50 98 <
12 -2 12 197.81 158.30 55.60 98 <
9 -1 12 197.71 225.20 56.90 98 o
2 2 12 81.06 54.70 56.20 98 <
-1 3 12 404.82 414.30 62.80 98 o
5 1 13 119.74 59.10 54.80 98 <
2 2 13 29.09 45.20 54.40 98 <
8 0 14 346.46 285.50 60.40 98 o
1 3 15 62.46 10.30 55.20 98 <
4 2 16 100.66 162.10 56.60 98 <
-7 -1 -14 229.23 223.30 58.30 99 o
-10 0 -14 82.32 83.10 55.20 99 <
-1 -3 -13 36.63 38.60 54.40 99 <
-4 -2 -13 80.40 98.00 55.90 99 <
-1 -3 -12 773.95 577.80 63.60 99 o
-8 0 -12 264.18 199.40 57.80 99 o
-11 1 -12 572.06 613.20 64.30 99 o
2 -4 -11 17.47 36.30 53.60 99 <
-5 -1 -11 190.54 130.10 57.70 99 <
-8 0 -11 73.75 113.00 56.10 99 <
1 -3 -10 1356.40 1130.20 71.00 99 o
-2 -2 -10 79.03 68.40 57.30 99 <
4 -4 -9 43.47 10.20 53.70 99 <
-6 0 -9 1870.40 2074.00 91.40 99 o
-9 1 -9 327.46 156.80 58.90 99 <
-12 2 -9 8.14 -28.40 53.20 99 <
4 -4 -8 986.70 889.40 68.80 99 o
-3 -1 -8 1611.40 1532.60 82.30 99 o
3 -3 -7 141.83 158.20 57.70 99 <
-10 2 -7 23.74 89.70 54.80 99 <
-13 3 -7 58.59 -26.20 54.70 99 <
6 -4 -6 318.23 316.90 59.50 99 o
-4 0 -6 272.73 477.50 73.10 99 o
-7 1 -6 96.28 132.50 61.50 99 <
-13 3 -6 34.78 50.80 54.00 99 <
5 -3 -4 778.37 621.50 66.60 99 o
-8 2 -4 3551.60 3803.00 107.50 99 o
-11 3 -4 493.16 367.70 60.70 99 o
8 -4 -3 61.75 43.60 54.60 99 <
-2 0 -3 1043.60 1103.30 110.80 99 o
8 -4 -2 67.92 55.80 53.90 99 <
7 -3 -1 539.40 610.40 66.60 99 o
-6 2 -1 51.84 106.70 62.00 99 <
-9 3 -1 27.21 36.00 54.80 99 <
-12 4 -1 28.37 -20.00 54.00 99 <
10 -4 0 377.70 434.20 60.00 99 o
10 -4 1 135.24 74.30 56.00 99 <
9 -3 2 276.01 241.30 58.50 99 o
-4 2 2 1133.90 1077.00 77.50 99 o
-7 3 2 629.18 704.40 67.80 99 o
-10 4 2 339.03 179.60 58.40 99 o
12 -4 3 50.19 40.20 54.00 99 <
9 -3 3 40.71 27.20 53.90 99 <
2 0 3 1413.70 1330.60 113.70 99 o
5 -1 4 8328.40 8567.90 148.70 99 o
8 -2 5 229.28 264.90 63.70 99 o
-2 2 5 141.54 234.40 64.60 99 o
-5 3 5 31.43 54.80 57.70 99 <
-8 4 5 50.85 -47.40 55.00 99 <
11 -3 6 681.00 713.10 66.00 99 o
1 1 6 18339.00 16628.10 196.20 99 o
7 -1 7 151.74 218.70 63.50 99 o
10 -2 8 41.92 28.40 55.00 99 <
-3 3 8 60.26 18.20 55.50 99 <
-6 4 8 77.29 48.50 55.10 99 <
3 1 9 917.49 844.40 75.10 99 o
9 -1 10 1003.50 934.30 71.00 99 o
6 0 10 825.30 873.30 73.00 99 o
12 -2 11 90.23 55.00 53.40 99 <
9 -1 11 113.77 25.90 55.10 99 <
-1 3 11 74.68 -20.60 55.90 99 <
-4 4 11 139.37 -48.30 56.40 99 <
12 -2 12 150.38 142.40 54.90 99 <
5 1 12 267.17 135.70 57.40 99 <
2 2 12 53.95 90.50 55.70 99 <
-1 3 12 304.70 373.30 62.10 99 o
8 0 13 66.53 48.30 55.50 99 <
5 1 13 146.84 70.50 55.50 99 <
11 -1 14 29.78 39.90 53.50 99 <
4 2 15 20.83 69.40 54.00 99 <
1 3 15 47.92 -23.50 55.60 99 <
7 1 16 170.68 175.80 56.10 99 o
4 2 16 159.97 308.80 57.90 99 o
-6 -2 -15 20.99 36.00 53.10 100 <
-9 -1 -15 9.60 -15.90 53.50 100 <
-3 -3 -14 47.59 52.70 54.30 100 <
-7 -1 -13 158.89 122.40 56.60 100 <
-10 0 -13 34.04 -12.00 53.90 100 <
-13 1 -13 105.69 122.90 54.70 100 <
-1 -3 -12 647.71 561.60 63.70 100 o
-4 -2 -12 721.02 707.30 66.70 100 o
2 -4 -11 20.93 35.90 55.20 100 <
-8 0 -11 73.66 142.80 57.30 100 <
-11 1 -11 66.71 -3.60 54.70 100 <
-14 2 -11 37.67 20.30 53.50 100 <
-2 -2 -10 46.70 20.40 56.80 100 <
-5 -1 -10 522.73 452.00 65.80 100 o
1 -3 -9 129.24 46.00 56.70 100 <
-12 2 -9 10.40 -1.40 53.80 100 <
4 -4 -8 676.05 796.40 67.70 100 o
-3 -1 -8 2084.90 1801.50 86.60 100 o
-6 0 -8 3264.40 3512.70 105.70 100 o
-9 1 -8 2538.10 2389.80 91.50 100 o
-12 2 -8 104.44 92.30 54.70 100 <
0 -2 -7 236.90 211.20 63.30 100 o
6 -4 -6 523.99 426.70 61.70 100 o
3 -3 -6 30.39 25.30 57.10 100 <
-7 1 -6 106.29 200.80 63.00 100 o
-10 2 -6 112.32 171.50 58.60 100 <
-13 3 -6 17.76 -15.90 53.50 100 <
6 -4 -5 160.62 153.60 56.20 100 <
-1 -1 -5 3140.50 3040.50 108.70 100 o
5 -3 -4 548.48 539.10 66.50 100 o
8 -4 -3 34.88 53.00 55.00 100 <
-5 1 -3 3018.90 2699.00 104.10 100 o
-8 2 -3 917.76 932.20 76.80 100 o
-11 3 -3 159.05 97.10 55.40 100 <
7 -3 -1 679.43 624.80 68.60 100 o
-6 2 -1 57.90 117.80 61.70 100 <
-9 3 -1 81.20 78.00 55.30 100 <
-12 4 -1 17.49 -8.40 53.70 100 <
10 -4 0 206.36 180.00 57.10 100 o
6 -2 1 77.78 85.90 62.60 100 <
9 -3 2 222.47 174.30 57.50 100 o
-4 2 2 1104.30 1001.80 77.30 100 o
-7 3 2 297.35 363.60 62.70 100 o
-10 4 2 393.16 190.50 59.00 100 o
12 -4 3 53.98 41.00 53.20 100 <
2 0 3 1033.60 622.00 108.30 100 o
8 -2 4 3463.70 4328.00 113.40 100 o
11 -3 5 261.83 99.80 56.50 100 <
-2 2 5 68.49 58.50 62.10 100 <
-5 3 5 26.77 14.90 58.20 100 <
-8 4 5 20.25 -7.30 55.10 100 <
4 0 6 263.03 568.60 73.90 100 o
10 -2 7 31.15 4.80 55.10 100 <
-6 4 7 49.17 61.80 56.00 100 <
13 -3 8 711.53 769.60 66.70 100 o
3 1 8 2397.30 2187.50 91.30 100 o
0 2 8 1798.20 1764.60 84.80 100 o
-3 3 8 36.86 114.00 57.90 100 <
-6 4 8 66.65 32.70 55.70 100 <
6 0 9 1862.70 1988.30 90.90 100 o
12 -2 10 19.86 6.60 53.80 100 <
9 -1 10 843.02 750.70 67.70 100 o
-4 4 10 50.67 42.30 55.50 100 <
12 -2 11 70.97 57.80 54.20 100 <
5 1 11 253.23 126.20 59.00 100 <
2 2 11 20.68 25.60 55.90 100 <
-1 3 11 53.20 -0.90 55.60 100 <
-4 4 11 143.28 68.90 57.50 100 <
8 0 12 116.30 121.10 55.80 100 <
5 1 12 166.67 200.80 58.10 100 o
11 -1 13 44.84 27.10 54.40 100 <
7 1 14 390.70 321.10 60.50 100 o
4 2 14 181.99 118.90 56.30 100 <
1 3 14 566.64 294.50 60.40 100 o
10 0 15 42.83 6.70 53.60 100 <
7 1 15 95.02 29.00 54.60 100 <
-9 -1 -15 14.61 28.20 54.00 101 <
-3 -3 -14 14.43 1.60 54.00 101 <
-6 -2 -14 293.24 215.40 57.80 101 o
-10 0 -13 46.42 -12.50 53.90 101 <
-13 1 -13 131.40 104.90 54.50 101 <
-4 -2 -12 454.04 451.40 63.00 101 o
-7 -1 -12 117.85 88.10 55.20 101 <
2 -4 -11 27.66 10.40 54.60 101 <
-1 -3 -11 151.75 169.10 56.60 101 <
-14 2 -11 37.72 -9.40 53.60 101 <
2 -4 -10 154.71 144.00 56.40 101 <
-5 -1 -10 414.92 383.60 64.60 101 o
-8 0 -10 1156.10 1474.90 79.70 101 o
-11 1 -10 116.37 88.80 56.30 101 <
-14 2 -10 378.70 246.90 58.30 101 o
1 -3 -9 44.25 106.60 55.40 101 <
-2 -2 -9 408.79 300.90 62.60 101 o
4 -4 -8 655.30 755.40 66.90 101 o
-6 0 -8 3676.30 4056.10 109.50 101 o
-9 1 -8 2139.20 2006.10 88.30 101 o
-12 2 -8 88.73 74.90 54.00 101 <
0 -2 -7 152.99 167.50 63.50 101 <
6 -4 -6 348.29 444.00 61.00 101 o
3 -3 -6 19.51 6.80 56.60 101 <
-10 2 -6 227.24 300.80 61.00 101 o
-13 3 -6 51.45 64.40 53.90 101 <
6 -4 -5 93.72 127.00 56.20 101 <
-1 -1 -5 3268.10 2935.30 108.30 101 o
-4 0 -5 279.79 358.60 76.70 101 o
-13 3 -5 27.76 47.80 53.70 101 <
5 -3 -4 668.68 424.60 64.90 101 o
2 -2 -4 7510.90 6750.70 134.20 101 o
8 -4 -3 86.74 35.20 54.10 101 <
-5 1 -3 2619.40 2617.10 102.20 101 o
-8 2 -3 1090.10 801.70 75.10 101 o
-11 3 -3 97.97 58.50 55.30 101 <
7 -3 -1 537.65 439.00 67.00 101 o
-9 3 -1 35.42 87.20 56.50 101 <
-12 4 -1 19.52 18.10 54.20 101 <
10 -4 0 375.17 353.90 59.90 101 o
-12 4 0 36.49 30.60 54.30 101 <
6 -2 1 40.55 100.00 60.70 101 <
9 -3 2 223.85 128.90 56.70 101 <
-4 2 2 838.58 1024.50 76.90 101 o
-7 3 2 325.65 327.70 61.90 101 o
-10 4 2 312.15 198.90 57.80 101 o
12 -4 3 74.50 9.50 54.40 101 <
8 -2 4 3757.20 4174.00 112.40 101 o
11 -3 5 345.95 136.40 56.70 101 <
1 1 5 2842.60 3274.90 108.90 101 o
-2 2 5 46.47 124.00 62.90 101 <
-5 3 5 55.12 37.00 58.30 101 <
-8 4 5 43.55 -0.80 55.30 101 <
7 -1 6 34.28 61.80 60.80 101 <
10 -2 7 27.50 35.10 54.50 101 <
-3 3 7 310.64 252.40 61.70 101 o
-6 4 7 9.44 -3.20 54.90 101 <
13 -3 8 779.96 800.00 67.20 101 o
3 1 8 1493.10 1342.30 79.80 101 o
0 2 8 2201.80 2055.80 88.40 101 o
-3 3 8 69.16 81.30 58.00 101 <
-6 4 8 71.71 14.90 54.80 101 <
9 -1 9 380.36 221.30 60.00 101 o
12 -2 10 29.02 27.00 52.90 101 <
-1 3 10 1090.90 933.80 71.00 101 o
-4 4 10 41.15 -3.40 55.60 101 <
8 0 11 94.22 47.30 57.50 101 <
5 1 11 190.89 157.30 57.30 101 <
2 2 11 62.61 16.80 55.30 101 <
-4 4 11 167.16 86.90 57.70 101 <
11 -1 12 1126.60 833.00 69.30 101 o
8 0 12 225.97 153.10 56.40 101 <
4 2 13 149.18 125.90 56.60 101 <
1 3 13 54.01 -2.70 54.90 101 <
10 0 14 116.74 96.80 54.80 101 <
7 1 14 269.69 229.00 57.60 101 o
4 2 14 147.62 137.60 56.10 101 <
1 3 14 762.51 613.80 63.90 101 o
10 0 15 37.04 30.80 53.70 101 <
-6 -2 -14 166.10 193.20 56.70 102 o
-9 -1 -14 41.17 55.80 54.00 102 <
-12 0 -14 359.51 231.90 58.30 102 o
-3 -3 -13 34.47 -2.30 53.50 102 <
-7 -1 -12 85.25 146.10 56.30 102 <
-10 0 -12 573.65 530.60 65.00 102 o
-13 1 -12 123.85 132.10 54.20 102 <
-1 -3 -11 177.86 134.90 56.90 102 <
-4 -2 -11 24.49 18.40 55.00 102 <
2 -4 -10 68.07 146.90 55.30 102 <
-11 1 -10 115.98 194.80 58.10 102 o
-14 2 -10 427.36 229.10 57.40 102 o
1 -3 -9 142.24 79.60 55.00 102 <
-2 -2 -9 139.77 231.60 60.80 102 o
-5 -1 -9 59.13 139.80 60.50 102 <
-14 2 -9 12.32 11.30 53.20 102 <
4 -4 -8 696.42 772.30 67.50 102 o
0 -2 -7 169.46 183.30 62.70 102 <
-3 -1 -7 1123.70 1098.00 80.20 102 o
-6 0 -7 2916.50 2611.80 100.70 102 o
-9 1 -7 622.63 415.80 67.30 102 o
-12 2 -7 48.72 -2.70 54.70 102 <
6 -4 -6 431.83 442.90 61.40 102 o
3 -3 -6 8.88 27.00 56.40 102 <
6 -4 -5 129.03 71.50 55.30 102 <
-4 0 -5 136.27 329.80 77.20 102 o
-7 1 -5 498.83 611.80 71.30 102 o
-10 2 -5 26.51 -7.60 56.30 102 <
-13 3 -5 18.89 0.60 54.00 102 <
5 -3 -4 572.88 595.30 66.90 102 o
2 -2 -4 5387.20 5382.60 123.70 102 o
8 -4 -3 52.08 86.80 54.60 102 <
-8 2 -3 899.00 786.50 75.50 102 o
-11 3 -3 238.71 74.00 55.50 102 <
4 -2 -2 1233.80 1430.80 81.90 102 o
10 -4 -1 80.95 134.00 56.40 102 <
7 -3 -1 727.78 571.30 67.80 102 o
10 -4 0 300.71 259.30 57.30 102 o
-6 2 0 761.81 530.80 68.70 102 o
-9 3 0 34.01 55.60 56.40 102 <
-12 4 0 17.58 5.20 53.50 102 <
9 -3 1 84.75 102.00 55.70 102 <
6 -2 1 76.72 165.40 62.30 102 <
12 -4 2 130.80 139.10 56.20 102 <
-4 2 2 1265.10 1136.90 78.50 102 o
-7 3 2 353.06 364.10 62.70 102 o
-10 4 2 398.84 183.60 58.60 102 o
5 -1 3 3436.80 2916.30 106.20 102 o
-10 4 3 209.61 83.10 56.80 102 <
11 -3 4 326.30 286.30 59.20 102 o
4 0 5 226.59 367.30 76.30 102 o
1 1 5 3066.40 3099.30 108.70 102 o
-2 2 5 75.51 77.60 63.40 102 <
-5 3 5 10.48 -0.10 58.10 102 <
-8 4 5 12.00 32.90 55.00 102 <
10 -2 6 289.13 336.00 61.00 102 o
13 -3 7 30.33 52.50 54.90 102 <
-3 3 7 215.97 176.30 59.50 102 <
-6 4 7 23.17 37.50 54.60 102 <
9 -1 8 2358.40 2237.20 91.30 102 o
6 0 8 2801.30 3347.40 104.90 102 o
-6 4 8 25.23 1.10 55.60 102 <
12 -2 9 12.61 -2.00 54.20 102 <
5 1 10 420.05 544.00 67.10 102 o
2 2 10 34.54 88.00 57.40 102 <
-1 3 10 632.85 661.90 67.30 102 o
-4 4 10 30.14 -30.90 55.10 102 <
11 -1 11 66.99 70.10 56.60 102 <
8 0 11 78.79 68.10 56.90 102 <
10 0 13 67.56 41.00 54.70 102 <
7 1 13 128.36 101.70 55.00 102 <
4 2 13 77.29 73.50 55.40 102 <
1 3 13 36.78 45.90 55.40 102 <
10 0 14 98.21 21.40 54.90 102 <
6 2 15 44.70 42.70 54.00 102 <
-3 -3 -13 24.64 -15.90 53.60 103 <
-6 -2 -13 18.86 49.90 53.40 103 <
-9 -1 -13 29.62 35.10 54.30 103 <
-12 0 -13 37.97 33.10 54.30 103 <
-3 -3 -12 46.62 56.20 54.40 103 <
-4 -2 -11 27.80 28.50 54.80 103 <
-7 -1 -11 46.79 69.70 56.30 103 <
-10 0 -11 327.09 271.60 59.80 103 o
-13 1 -11 84.84 62.20 54.60 103 <
2 -4 -10 71.01 59.30 54.10 103 <
-1 -3 -10 44.59 89.60 55.30 103 <
-5 -1 -9 48.03 41.90 60.40 103 <
-8 0 -9 374.90 392.70 65.90 103 o
-11 1 -9 125.02 36.00 54.90 103 <
-14 2 -9 3.04 0.30 53.20 103 <
4 -4 -8 1062.40 900.10 69.90 103 o
1 -3 -8 252.03 169.70 59.50 103 <
4 -4 -7 29.83 59.00 55.10 103 <
-6 0 -7 2822.40 2425.30 96.20 103 o
-9 1 -7 489.27 323.70 64.80 103 o
-12 2 -7 82.53 78.50 55.40 103 <
3 -3 -6 21.00 37.80 55.40 103 <
0 -2 -6 5376.80 5830.00 126.10 103 o
6 -4 -5 116.29 143.20 55.60 103 <
-7 1 -5 564.07 698.50 71.70 103 o
-10 2 -5 17.90 43.70 56.00 103 <
-13 3 -5 15.49 -43.10 54.00 103 <
2 -2 -4 4269.40 4433.20 114.80 103 o
8 -4 -3 32.61 26.10 54.40 103 <
1 -1 -2 180.47 408.30 95.30 103 o
-11 3 -2 268.70 150.60 56.20 103 <
10 -4 -1 101.38 100.30 54.60 103 <
7 -3 -1 418.53 414.50 65.10 103 o
10 -4 0 225.60 310.00 59.10 103 o
-6 2 0 692.13 433.80 69.20 103 o
-9 3 0 42.60 78.60 55.00 103 <
-12 4 0 22.26 27.20 53.90 103 <
9 -3 1 31.07 29.80 55.40 103 <
6 -2 1 85.96 140.50 63.20 103 <
12 -4 2 135.42 151.20 55.80 103 <
-4 2 2 895.22 982.10 78.70 103 o
-7 3 2 312.10 298.50 62.20 103 o
-10 4 2 321.16 237.40 58.20 103 o
8 -2 3 1180.20 1055.20 78.00 103 o
11 -3 4 443.94 348.80 60.20 103 o
7 -1 5 630.54 612.80 72.70 103 o
4 0 5 137.69 316.50 75.30 103 o
-5 3 5 48.18 33.50 56.60 103 <
-8 4 5 26.97 24.10 54.20 103 <
13 -3 6 57.08 24.20 53.90 103 <
10 -2 6 91.69 156.00 58.50 103 <
13 -3 7 43.46 71.80 54.30 103 <
3 1 7 901.81 922.90 77.30 103 o
0 2 7 152.29 171.50 63.40 103 <
-3 3 7 172.57 115.80 60.20 103 <
-6 4 7 9.03 -19.10 54.40 103 <
12 -2 8 148.66 135.10 55.90 103 <
9 -1 8 1985.80 1819.80 85.90 103 o
12 -2 9 19.83 28.20 53.90 103 <
-1 3 9 33.51 48.40 57.20 103 <
-4 4 9 15.06 46.50 55.10 103 <
11 -1 10 185.74 163.60 58.20 103 <
8 0 10 1037.60 1354.50 78.10 103 o
5 1 10 466.53 358.10 64.30 103 o
-1 3 10 1290.60 1138.30 73.50 103 o
-4 4 10 45.09 36.80 55.40 103 <
14 -2 11 37.52 23.20 54.00 103 <
11 -1 11 156.67 100.10 55.50 103 <
7 1 12 111.69 125.70 57.10 103 <
4 2 12 688.80 568.20 65.20 103 o
1 3 12 646.53 512.90 63.80 103 o
13 -1 13 92.76 71.00 53.50 103 <
10 0 13 33.91 41.70 54.00 103 <
3 3 14 51.80 44.00 55.00 103 <
9 1 15 23.94 47.10 54.40 103 <
6 2 15 29.04 16.60 54.10 103 <
-8 -2 -14 297.57 240.50 57.90 104 o
-11 -1 -14 23.20 24.70 53.80 104 <
-3 -3 -12 47.13 63.20 54.60 104 <
-6 -2 -12 228.44 304.10 58.60 104 o
-9 -1 -12 43.99 125.50 54.60 104 <
-12 0 -12 399.21 340.00 61.00 104 o
-15 1 -12 10.27 36.50 52.80 104 <
2 -4 -10 26.46 33.80 53.70 104 <
-1 -3 -10 64.81 17.70 55.70 104 <
-4 -2 -10 728.59 750.80 67.20 104 o
-13 1 -10 100.47 73.30 56.20 104 <
2 -4 -9 73.44 36.80 55.70 104 <
1 -3 -8 184.68 194.50 57.20 104 o
-2 -2 -8 1464.60 1287.20 79.30 104 o
-14 2 -8 115.44 111.50 55.90 104 <
4 -4 -7 38.62 0.60 54.00 104 <
3 -3 -6 15.61 40.30 57.20 104 <
0 -2 -6 2708.30 3095.60 100.40 104 o
-12 2 -6 528.75 470.10 62.70 104 o
-15 3 -6 70.40 18.10 54.20 104 <
6 -4 -5 105.24 57.00 55.20 104 <
2 -2 -4 4215.10 3879.40 109.30 104 o
-1 -1 -4 8272.60 8769.80 156.40 104 o
-10 2 -4 740.72 544.20 66.50 104 o
-13 3 -4 36.97 13.10 53.90 104 <
8 -4 -3 79.82 46.60 54.50 104 <
1 -1 -2 131.09 420.40 95.30 104 o
-8 2 -2 1949.10 1738.40 85.90 104 o
-11 3 -2 250.95 158.40 57.00 104 <
10 -4 -1 78.92 29.20 53.90 104 <
7 -3 -1 577.94 589.10 67.20 104 o
10 -4 0 323.07 411.20 59.90 104 o
-3 1 0 1844.90 1928.30 106.50 104 o
-6 2 0 917.93 825.70 74.20 104 o
-9 3 0 87.60 21.40 56.70 104 <
-12 4 0 59.09 36.50 54.70 104 <
9 -3 1 9.41 26.30 55.40 104 <
12 -4 2 146.58 181.30 55.90 104 o
-1 1 2 291.57 646.40 95.20 104 o
-4 2 2 1123.30 1234.40 79.50 104 o
-7 3 2 345.82 331.40 62.90 104 o
-10 4 2 296.66 255.80 60.50 104 o
11 -3 3 163.60 95.20 55.00 104 <
8 -2 3 539.99 785.60 73.80 104 o
-10 4 3 174.41 85.90 55.80 104 <
11 -3 4 526.41 559.60 62.30 104 o
10 -2 5 49.88 49.70 56.10 104 <
7 -1 5 534.88 524.80 71.40 104 o
-8 4 5 31.15 37.00 54.90 104 <
13 -3 6 11.15 11.00 54.30 104 <
9 -1 7 483.12 274.20 64.40 104 o
6 0 7 2525.00 2166.90 93.60 104 o
3 1 7 1066.50 771.00 76.60 104 o
0 2 7 203.22 122.90 63.10 104 <
-3 3 7 116.43 104.20 58.50 104 <
-6 4 7 4.86 17.90 54.90 104 <
12 -2 8 101.67 54.50 54.90 104 <
8 0 9 486.50 386.10 64.70 104 o
5 1 9 85.76 79.50 60.60 104 <
2 2 9 297.10 245.00 61.20 104 o
-1 3 9 18.78 60.90 55.40 104 <
-4 4 9 3.18 18.20 55.40 104 <
14 -2 10 353.92 271.20 57.70 104 o
11 -1 10 229.95 144.70 55.80 104 <
4 2 11 78.65 9.90 56.60 104 <
1 3 11 197.09 196.60 58.80 104 o
-2 4 11 49.78 52.00 55.10 104 <
13 -1 12 117.99 116.20 55.20 104 <
10 0 12 545.64 503.30 62.50 104 o
7 1 12 109.48 131.40 54.90 104 <
1 3 12 679.65 447.10 62.10 104 o
12 0 14 428.93 455.00 61.20 104 o
9 1 14 50.30 40.40 53.30 104 <
6 2 14 234.31 148.40 56.80 104 <
3 3 14 12.20 -12.50 54.10 104 <
-8 -2 -14 83.34 63.90 55.50 105 <
-11 -1 -14 60.56 -17.50 53.90 105 <
-5 -3 -13 37.01 10.10 54.00 105 <
-14 0 -13 10.46 9.10 54.10 105 <
-3 -3 -12 38.30 -7.40 53.70 105 <
-6 -2 -12 203.99 300.70 58.10 105 o
-9 -1 -12 44.28 65.30 54.00 105 <
-12 0 -12 293.54 142.70 57.40 105 <
-15 1 -12 23.87 -27.50 53.60 105 <
-15 1 -11 142.17 57.80 54.00 105 <
-1 -3 -10 63.60 73.20 56.50 105 <
-4 -2 -10 756.30 768.00 68.50 105 o
-7 -1 -10 335.20 393.00 63.40 105 o
-10 0 -10 132.14 186.40 59.30 105 o
-13 1 -10 88.76 42.10 54.40 105 <
2 -4 -9 45.23 26.00 54.70 105 <
-16 2 -9 14.98 4.30 53.10 105 <
1 -3 -8 173.72 251.30 58.80 105 o
-2 -2 -8 1049.50 1063.70 76.90 105 o
-5 -1 -8 360.17 663.90 70.10 105 o
-8 0 -8 190.90 286.40 63.90 105 o
-11 1 -8 49.26 133.40 56.50 105 <
-14 2 -8 84.61 69.20 54.60 105 <
4 -4 -7 35.79 -26.00 55.70 105 <
3 -3 -6 85.43 175.80 59.30 105 <
0 -2 -6 2299.10 2474.00 94.10 105 o
-3 -1 -6 1362.20 1906.40 91.20 105 o
-6 0 -6 1304.50 1320.70 84.60 105 o
-9 1 -6 447.91 692.20 71.00 105 o
-12 2 -6 437.34 460.10 62.40 105 o
6 -4 -5 99.52 113.50 55.90 105 <
-15 3 -5 83.46 32.10 54.30 105 <
2 -2 -4 4989.50 4233.70 112.40 105 o
-1 -1 -4 5007.70 5127.30 130.10 105 o
-4 0 -4 16342.00 17957.70 210.10 105 o
-7 1 -4 313.33 562.60 71.20 105 o
-10 2 -4 608.99 477.50 64.60 105 o
8 -4 -3 16.32 33.70 54.20 105 <
-13 3 -3 106.97 49.80 55.70 105 <
4 -2 -2 1197.30 1352.20 82.50 105 o
1 -1 -2 434.80 932.90 100.80 105 o
-2 0 -2 7927.70 6288.80 165.80 105 o
-5 1 -2 2790.60 2785.10 107.30 105 o
-8 2 -2 1228.80 1253.60 77.90 105 o
-11 3 -2 108.18 79.90 55.90 105 <
10 -4 -1 43.46 76.20 54.70 105 <
3 -1 0 10664.00 9402.80 164.90 105 o
-3 1 0 7242.00 6499.70 144.80 105 o
-6 2 0 2228.70 1390.50 82.30 105 o
12 -4 1 10.20 12.30 53.30 105 <
9 -3 1 68.85 4.60 55.70 105 <
-12 4 1 67.46 71.10 54.80 105 <
-1 1 2 400.00 1002.40 100.30 105 o
-4 2 2 1365.50 1437.60 82.40 105 o
11 -3 3 72.88 51.90 55.30 105 <
-10 4 3 107.27 56.30 55.70 105 <
13 -3 5 6.45 44.00 53.20 105 <
10 -2 5 40.40 12.00 56.10 105 <
-8 4 5 16.62 -25.90 55.20 105 <
12 -2 7 42.90 -5.00 54.30 105 <
9 -1 7 483.99 286.10 64.80 105 o
-3 3 7 141.72 107.10 59.10 105 <
-6 4 7 33.21 -42.50 55.20 105 <
14 -2 9 7.83 -44.00 53.30 105 <
11 -1 9 96.93 24.40 55.00 105 <
8 0 9 338.51 260.60 64.30 105 o
5 1 9 68.74 114.00 59.30 105 <
2 2 9 156.72 173.70 61.30 105 <
-1 3 9 56.60 -25.20 56.40 105 <
-4 4 9 5.35 36.40 55.00 105 <
13 -1 11 121.34 86.00 55.50 105 <
10 0 11 357.54 217.00 59.30 105 o
7 1 11 42.25 23.90 55.00 105 <
4 2 11 29.35 21.30 55.30 105 <
1 3 11 156.36 129.30 57.10 105 <
-2 4 11 37.59 20.40 55.00 105 <
12 0 13 36.28 47.30 53.80 105 <
9 1 13 31.64 19.30 53.40 105 <
6 2 13 20.84 5.50 54.40 105 <
3 3 13 17.33 26.00 54.70 105 <
12 0 14 539.89 286.80 59.30 105 o
3 3 14 23.77 -4.20 55.00 105 <
-5 -3 -13 12.26 -5.50 54.00 106 <
-8 -2 -13 36.99 -4.40 53.60 106 <
-11 -1 -13 12.21 21.60 54.00 106 <
-14 0 -13 7.79 -30.40 53.30 106 <
-3 -3 -11 18.64 29.70 54.00 106 <
-6 -2 -11 161.57 93.20 56.80 106 <
-9 -1 -11 134.21 130.10 56.00 106 <
-12 0 -11 126.80 54.70 54.30 106 <
-15 1 -11 90.40 10.40 53.00 106 <
2 -4 -9 44.66 14.80 55.20 106 <
-1 -3 -9 228.53 219.80 58.20 106 o
-13 1 -9 36.84 14.60 54.10 106 <
-16 2 -9 5.88 -22.80 53.10 106 <
4 -4 -7 19.47 18.10 54.20 106 <
1 -3 -7 306.08 178.10 58.20 106 o
-14 2 -7 94.98 -15.40 53.60 106 <
-3 -1 -6 2138.90 1992.50 91.70 106 o
-6 0 -6 2553.20 1799.50 87.70 106 o
-9 1 -6 469.06 733.50 72.20 106 o
6 -4 -5 97.47 96.50 55.70 106 <
-15 3 -5 45.69 -5.50 54.00 106 <
2 -2 -4 5777.40 4320.60 113.20 106 o
-1 -1 -4 5785.50 5777.90 136.50 106 o
-4 0 -4 16558.00 16605.80 202.50 106 o
-7 1 -4 423.97 376.60 70.40 106 o
8 -4 -3 45.20 43.30 53.70 106 <
-13 3 -3 93.31 94.60 55.50 106 <
4 -2 -2 1130.40 1419.00 82.40 106 o
1 -1 -2 306.23 567.30 97.60 106 o
-2 0 -2 9335.20 7763.40 176.00 106 o
-5 1 -2 1985.80 3277.30 111.00 106 o
-8 2 -2 1618.60 1286.80 79.20 106 o
10 -4 -1 76.90 58.30 53.90 106 <
-11 3 -1 259.83 197.40 57.50 106 o
6 -2 0 2091.20 1139.20 79.10 106 o
3 -1 0 2619.10 2000.10 108.30 106 o
-3 1 0 949.06 1891.70 105.50 106 o
-6 2 0 873.38 1079.20 78.40 106 o
12 -4 1 21.18 7.80 53.10 106 <
9 -3 1 33.64 12.20 55.50 106 <
-12 4 1 64.94 57.20 54.40 106 <
5 -1 2 2137.50 2902.40 108.70 106 o
2 0 2 10165.00 8332.40 177.80 106 o
-1 1 2 245.37 750.30 95.20 106 o
-4 2 2 1105.20 1222.50 80.30 106 o
11 -3 3 165.50 80.00 55.60 106 <
-10 4 3 157.11 37.70 56.00 106 <
7 -1 4 461.83 543.40 72.90 106 o
4 0 4 16555.00 13895.80 190.30 106 o
1 1 4 5960.20 5884.70 135.30 106 o
-2 2 4 3660.20 3808.40 108.80 106 o
13 -3 5 7.91 48.40 53.70 106 <
-8 4 5 34.03 -11.40 55.40 106 <
6 0 6 1827.40 1858.00 90.40 106 o
3 1 6 2065.40 2305.00 94.60 106 o
0 2 6 2445.20 3307.20 103.10 106 o
12 -2 7 101.15 44.00 55.00 106 <
-6 4 7 19.27 -23.70 54.60 106 <
8 0 8 191.17 298.20 64.50 106 o
5 1 8 555.00 1155.50 78.30 106 o
2 2 8 2599.10 1724.90 84.70 106 o
14 -2 9 8.25 -0.20 53.10 106 <
11 -1 9 139.73 38.50 55.00 106 <
-4 4 9 17.15 -32.00 55.70 106 <
13 -1 11 161.45 121.90 54.50 106 <
10 0 11 401.96 339.60 59.00 106 o
1 3 11 118.20 89.80 56.20 106 <
-2 4 11 24.22 -22.00 55.50 106 <
12 0 13 39.00 53.20 54.20 106 <
9 1 13 31.31 15.90 52.80 106 <
6 2 13 27.16 50.20 54.30 106 <
3 3 13 29.49 28.40 54.90 106 <
-5 -3 -12 47.08 48.30 53.70 107 <
-11 -1 -12 639.07 656.80 64.60 107 o
-14 0 -12 79.90 47.70 54.10 107 <
-3 -3 -11 19.43 39.20 54.00 107 <
-6 -2 -11 138.60 87.60 55.40 107 <
-9 -1 -11 88.97 55.00 55.10 107 <
-12 0 -11 135.26 6.40 54.70 107 <
0 -4 -10 76.85 -11.10 54.20 107 <
-15 1 -10 26.68 20.30 53.60 107 <
2 -4 -9 35.60 18.00 54.70 107 <
-1 -3 -9 194.71 156.50 58.20 107 <
-4 -2 -9 278.79 245.80 61.90 107 o
-7 -1 -9 212.83 164.60 61.50 107 <
-10 0 -9 14.56 -6.10 56.40 107 <
-13 1 -9 51.79 -9.30 55.20 107 <
-16 2 -9 9.26 14.50 52.70 107 <
-16 2 -8 99.34 85.80 54.30 107 <
4 -4 -7 22.95 -7.00 54.00 107 <
1 -3 -7 14.45 38.70 55.90 107 <
-2 -2 -7 923.68 989.90 75.50 107 o
-8 0 -7 86.18 -24.00 60.70 107 <
-11 1 -7 45.77 38.10 56.10 107 <
-14 2 -7 31.98 13.40 53.10 107 <
6 -4 -5 63.90 65.90 55.80 107 <
3 -3 -5 394.37 649.70 67.80 107 o
-12 2 -5 11.49 -8.70 54.70 107 <
-15 3 -5 62.81 48.80 53.90 107 <
8 -4 -3 26.48 24.40 54.80 107 <
-10 2 -3 920.53 475.70 66.80 107 o
-13 3 -3 106.05 89.50 55.70 107 <
10 -4 -1 40.74 38.90 55.30 107 <
-11 3 -1 127.12 100.70 56.90 107 <
6 -2 0 1840.50 2152.70 90.60 107 o
3 -1 0 7969.10 7383.50 151.60 107 o
-3 1 0 7741.20 6346.00 144.10 107 o
-6 2 0 1626.20 1128.20 77.70 107 o
12 -4 1 9.06 34.50 53.00 107 <
-12 4 1 23.86 38.70 54.10 107 <
11 -3 2 242.27 104.80 54.90 107 <
8 -2 2 1523.80 1309.80 80.70 107 o
5 -1 2 3727.40 2934.10 108.60 107 o
-1 1 2 341.10 953.40 98.90 107 o
-4 2 2 977.59 1302.00 82.30 107 o
-10 4 3 92.27 71.40 55.70 107 <
13 -3 4 47.13 71.10 55.00 107 <
10 -2 4 499.42 546.50 65.40 107 o
7 -1 4 511.97 572.60 72.70 107 o
4 0 4 16644.00 14841.20 192.80 107 o
1 1 4 6387.30 6560.30 139.40 107 o
-2 2 4 4965.60 3811.60 110.20 107 o
-5 3 4 448.11 483.00 64.70 107 o
13 -3 5 14.10 35.40 53.20 107 <
-8 4 5 34.32 9.70 55.50 107 <
12 -2 6 396.21 445.20 61.90 107 o
9 -1 6 645.92 733.30 71.30 107 o
6 0 6 1475.60 1636.40 87.20 107 o
3 1 6 1467.40 1924.50 92.00 107 o
0 2 6 1947.20 2362.60 93.90 107 o
-3 3 6 78.59 145.30 58.90 107 <
-6 4 7 33.88 50.40 55.20 107 <
14 -2 8 107.53 95.60 55.40 107 <
11 -1 8 75.41 154.30 57.30 107 <
8 0 8 151.88 266.10 64.40 107 o
5 1 8 344.27 640.60 70.70 107 o
2 2 8 832.74 795.00 74.20 107 o
-1 3 8 168.10 246.20 60.50 107 o
-4 4 8 710.87 704.00 67.50 107 o
-4 4 9 18.58 0.10 55.60 107 <
13 -1 10 62.62 34.00 54.90 107 <
10 0 10 121.49 232.70 58.90 107 o
7 1 10 271.48 525.20 64.60 107 o
4 2 10 661.75 733.50 67.90 107 o
1 3 10 40.35 96.20 56.70 107 <
-2 4 10 20.09 -0.70 54.80 107 <
-2 4 11 52.13 36.90 55.30 107 <
15 -1 12 15.97 -11.60 54.30 107 <
12 0 12 224.37 117.30 56.90 107 <
9 1 12 44.53 71.10 55.00 107 <
6 2 12 169.64 185.30 57.70 107 o
3 3 12 37.87 41.50 55.00 107 <
11 1 14 29.66 24.30 53.40 107 <
8 2 14 85.22 111.80 56.60 107 <
-13 -1 -13 28.40 21.80 51.70 108 <
-5 -3 -12 33.44 28.20 54.00 108 <
-8 -2 -12 59.97 48.50 53.10 108 <
-11 -1 -12 476.91 375.20 59.10 108 o
-14 0 -12 117.69 58.40 53.80 108 <
0 -4 -10 29.13 5.30 53.30 108 <
-3 -3 -10 611.59 639.90 64.10 108 o
-6 -2 -10 202.26 83.30 56.40 108 <
-9 -1 -10 615.50 279.10 59.90 108 o
-12 0 -10 18.90 -7.40 53.60 108 <
-15 1 -10 12.73 15.20 51.90 108 <
2 -4 -9 42.72 -14.50 54.10 108 <
-1 -3 -9 300.70 269.00 60.00 108 o
-4 -2 -9 387.96 314.00 62.30 108 o
-13 1 -8 991.45 280.70 59.50 108 o
-16 2 -8 58.82 1.40 52.80 108 <
4 -4 -7 2.28 0.20 53.70 108 <
1 -3 -7 5.47 0.80 55.10 108 <
-2 -2 -7 670.61 695.10 74.20 108 o
-5 -1 -7 468.69 492.40 72.30 108 o
-8 0 -7 76.72 30.80 58.80 108 <
-14 2 -6 28.03 6.40 53.00 108 <
6 -4 -5 108.82 115.20 55.30 108 <
3 -3 -5 471.99 510.10 66.20 108 o
-6 0 -5 1805.10 1384.00 87.90 108 o
-9 1 -5 46.65 52.60 58.00 108 <
-15 3 -4 336.09 76.70 54.70 108 <
8 -4 -3 30.92 -17.50 54.00 108 <
-10 2 -3 539.31 329.30 63.20 108 o
7 -3 -2 283.93 348.40 63.10 108 o
4 -2 -2 818.84 1218.80 79.50 108 o
10 -4 -1 62.77 36.70 54.20 108 <
-8 2 -1 138.63 154.40 61.90 108 <
-11 3 -1 141.75 86.00 55.50 108 <
12 -4 0 33.40 0.60 53.70 108 <
9 -3 0 44.01 50.40 55.30 108 <
6 -2 0 478.75 474.40 69.20 108 o
3 -1 0 1500.30 1811.00 107.90 108 o
-14 4 0 17.74 15.20 53.70 108 <
-9 3 1 162.62 178.20 58.20 108 o
-12 4 1 84.61 63.50 55.10 108 <
11 -3 2 144.02 130.40 56.50 108 <
8 -2 2 1938.40 1595.90 84.50 108 o
-1 1 2 158.48 430.90 93.20 108 o
-4 2 2 1125.80 1221.90 80.70 108 o
-10 4 3 144.71 93.70 54.90 108 <
13 -3 4 36.90 13.00 54.50 108 <
10 -2 4 679.21 695.00 69.10 108 o
-2 2 4 2950.00 3250.40 105.10 108 o
-8 4 5 23.84 -14.80 54.90 108 <
15 -3 6 33.57 12.20 53.60 108 <
12 -2 6 547.86 470.10 62.50 108 o
0 2 6 2718.50 3018.00 102.00 108 o
-3 3 6 14.70 40.40 57.00 108 <
-6 4 7 29.09 -12.20 54.70 108 <
14 -2 8 92.98 102.70 55.00 108 <
2 2 8 1583.80 1322.10 79.90 108 o
-1 3 8 149.11 100.70 58.50 108 <
-4 4 8 742.19 555.20 64.90 108 o
16 -2 9 9.35 -0.90 53.70 108 <
13 -1 9 70.19 85.70 54.70 108 <
10 0 9 42.27 36.70 56.00 108 <
4 2 10 1020.30 966.90 71.20 108 o
1 3 10 56.64 42.90 55.20 108 <
-2 4 10 22.36 33.80 55.30 108 <
15 -1 11 87.12 49.20 54.10 108 <
12 0 11 107.82 41.50 54.90 108 <
9 1 11 83.57 119.60 55.80 108 <
15 -1 12 26.35 15.60 52.40 108 <
6 2 12 311.72 209.20 58.40 108 o
3 3 12 41.11 72.60 55.20 108 <
14 0 13 11.43 38.70 54.10 108 <
11 1 13 15.79 -7.80 53.30 108 <
8 2 13 48.47 23.60 54.10 108 <
8 2 14 271.02 165.30 57.50 108 <
-10 -2 -13 7.76 23.10 52.30 109 <
-13 -1 -13 21.14 -7.60 52.60 109 <
-5 -3 -12 77.11 -27.10 54.10 109 <
-11 -1 -11 20.23 28.20 52.10 109 <
-14 0 -11 14.71 15.30 51.60 109 <
0 -4 -10 74.81 1.70 53.50 109 <
-3 -3 -10 506.10 245.10 57.60 109 o
-6 -2 -10 185.59 28.60 54.20 109 <
-9 -1 -10 553.84 264.70 57.70 109 o
-12 0 -10 20.35 -7.40 51.90 109 <
-15 1 -9 95.04 -5.30 51.60 109 <
2 -4 -8 25.57 61.30 54.00 109 <
-10 0 -8 68.05 -16.50 54.00 109 <
-13 1 -8 1029.60 228.40 56.60 109 o
4 -4 -7 4.60 -43.20 54.20 109 <
1 -3 -7 11.69 -9.60 54.20 109 <
-2 -2 -7 760.18 785.20 69.50 109 o
-16 2 -7 36.08 -43.60 51.90 109 <
-11 1 -6 2380.50 -4.50 54.30 109 <
-14 2 -6 30.30 -7.80 51.60 109 <
6 -4 -5 73.04 100.00 55.90 109 <
3 -3 -5 433.85 409.70 64.50 109 o
0 -2 -5 331.20 327.10 66.70 109 o
-3 -1 -5 623.35 404.90 71.20 109 o
-6 0 -5 1413.00 889.50 75.40 109 o
-12 2 -4 220.83 11.90 52.90 109 <
-15 3 -4 291.47 26.70 52.00 109 <
8 -4 -3 34.02 9.00 54.40 109 <
-7 1 -3 281.57 239.50 62.80 109 o
-10 2 -3 638.68 394.20 61.10 109 o
7 -3 -2 342.68 317.50 62.30 109 o
4 -2 -2 1201.70 1094.40 77.90 109 o
-13 3 -2 448.59 4.50 52.40 109 <
10 -4 -1 64.62 91.80 54.50 109 <
-8 2 -1 145.16 -0.60 56.30 109 <
-11 3 -1 224.20 87.80 54.70 109 <
12 -4 0 30.70 5.20 53.60 109 <
9 -3 0 30.24 31.10 54.50 109 <
6 -2 0 712.38 469.70 69.70 109 o
3 -1 0 1767.00 2069.40 111.10 109 o
-14 4 0 10.88 16.40 52.90 109 <
-9 3 1 27.05 23.10 54.20 109 <
-12 4 1 41.42 28.20 54.00 109 <
11 -3 2 168.72 55.20 56.20 109 <
8 -2 2 3291.00 3734.30 106.40 109 o
-1 1 2 203.16 305.60 92.60 109 o
-4 2 2 1053.20 1067.60 76.00 109 o
-10 4 3 56.37 31.70 54.00 109 <
13 -3 4 42.99 2.90 54.50 109 <
-2 2 4 3805.60 4078.00 112.40 109 o
-5 3 4 371.81 373.50 63.20 109 o
12 -2 5 24.09 -21.70 54.60 109 <
9 -1 5 75.43 70.40 60.90 109 <
-8 4 5 34.38 32.20 53.90 109 <
15 -3 6 37.67 -12.30 53.40 109 <
-3 3 6 11.76 0.70 57.10 109 <
-6 4 6 357.26 354.70 60.50 109 o
14 -2 7 69.15 54.70 54.40 109 <
11 -1 7 52.44 42.80 57.50 109 <
8 0 7 69.77 39.00 60.00 109 <
5 1 7 580.16 585.80 70.80 109 o
-1 3 8 229.14 157.70 59.40 109 <
-4 4 8 587.28 585.50 66.00 109 o
16 -2 9 7.43 -4.70 52.80 109 <
13 -1 9 19.80 21.90 55.10 109 <
10 0 9 17.25 42.80 55.60 109 <
7 1 9 177.99 184.10 61.80 109 <
4 2 9 295.12 150.70 61.10 109 <
1 3 10 63.17 63.70 56.40 109 <
-2 4 10 42.79 1.20 55.30 109 <
15 -1 11 67.72 35.30 53.70 109 <
12 0 11 103.20 30.50 54.50 109 <
9 1 11 75.82 87.30 56.30 109 <
6 2 11 141.80 64.30 55.90 109 <
3 3 11 17.21 8.20 55.30 109 <
14 0 13 8.11 13.80 53.30 109 <
11 1 13 7.66 -20.50 53.70 109 <
8 2 13 51.17 -0.70 55.00 109 <
5 3 13 28.28 19.60 54.20 109 <
loop_
_reflns_scale_group_code
_reflns_scale_meas_intensity
1 509.037
2 515.985
3 531.118
4 500.885
5 537.873
6 517.561
7 527.625
8 567.816
9 580.119
10 572.610
11 577.544
13 622.307
14 590.318
15 563.899
16 627.833
17 640.778
18 652.150
19 646.995
20 610.518
21 655.315
22 628.710
23 641.656
24 661.405
25 705.285
26 703.584
27 736.839
28 738.813
29 736.321
30 781.002
31 794.477
32 790.528
33 784.070
34 788.272
35 834.852
36 818.305
37 811.170
38 848.294
39 826.477
40 835.612
41 896.001
42 851.639
43 822.958
44 882.458
45 869.078
46 872.729
47 897.108
48 906.389
49 859.017
50 898.318
51 869.138
52 855.083
54 919.561
55 901.497
56 856.367
57 821.201
58 830.513
59 926.624
60 917.747
61 907.763
62 903.221
63 920.905
64 926.566
65 839.278
66 883.401
67 873.044
68 883.352
69 861.258
70 853.591
71 876.339
72 885.013
73 857.745
74 846.473
75 863.665
76 864.467
77 861.864
78 816.901
79 789.400
80 841.783
81 826.893
82 824.996
83 824.520
84 786.044
85 822.279
86 814.360
87 739.034
88 753.912
89 767.364
90 736.421
91 736.748
92 700.487
93 698.529
94 657.875
95 699.545
96 675.703
97 644.820
98 663.720
99 634.233
100 642.963
101 645.590
102 598.182
103 608.284
104 604.770
105 583.348
106 579.210
107 526.711
108 520.716
109 502.397
