#------------------------------------------------------------------------------
#$Date: 2019-10-28 11:00:27 +0200 (Mon, 28 Oct 2019) $
#$Revision: 219950 $
#$URL: file:///home/coder/svn-repositories/cod/cif/4/51/47/4514790.cif $
#------------------------------------------------------------------------------
#
# This file is available in the Crystallography Open Database (COD),
# http://www.crystallography.net/
#
# All data on this site have been placed in the public domain by the
# contributors.
#
data_4514790
loop_
_publ_author_name
'Li, Yi-Pan'
'Li, Zi-Qi'
'Zhou, Biying'
'Li, Mao-Lin'
'Xue, Xiao-Song'
'Zhu, Shou-Fei'
'Zhou, Qi-Lin'
_publ_section_title
;
 Chiral Spiro Phosphoric Acid-Catalyzed Friedel--Crafts Conjugate
 Addition/Enantioselective Protonation Reactions
;
_journal_issue                   7
_journal_name_full               'ACS Catalysis'
_journal_page_first              6522
_journal_paper_doi               10.1021/acscatal.9b01502
_journal_volume                  9
_journal_year                    2019
_chemical_absolute_configuration ad
_chemical_formula_moiety         'C19 H17 N O'
_chemical_formula_sum            'C19 H17 N O'
_chemical_formula_weight         275.33
_space_group_crystal_system      monoclinic
_space_group_IT_number           4
_space_group_name_Hall           'P 2yb'
_space_group_name_H-M_alt        'P 1 21 1'
_symmetry_space_group_name_Hall  'P 2yb'
_symmetry_space_group_name_H-M   'P 1 21 1'
_atom_sites_solution_hydrogens   mixed
_atom_sites_solution_primary     dual
_audit_creation_date             2017-09-28
_audit_creation_method
;
Olex2 1.2
(compiled 2017.03.28 svn.r3405 for OlexSys, GUI svn.r5337)
;
_cell_angle_alpha                90
_cell_angle_beta                 93.9500(10)
_cell_angle_gamma                90
_cell_formula_units_Z            2
_cell_length_a                   9.36780(10)
_cell_length_b                   6.94080(10)
_cell_length_c                   11.28290(10)
_cell_measurement_reflns_used    10620
_cell_measurement_temperature    294.15
_cell_measurement_theta_max      78.6330
_cell_measurement_theta_min      3.9180
_cell_volume                     731.872(15)
_computing_cell_refinement       'CrysAlisPro 1.171.39.3a (Rigaku OD, 2015)'
_computing_data_collection       'CrysAlisPro 1.171.39.3a (Rigaku OD, 2015)'
_computing_data_reduction        'CrysAlisPro 1.171.39.3a (Rigaku OD, 2015)'
_computing_molecular_graphics    'Olex2 (Dolomanov et al., 2009)'
_computing_publication_material  'Olex2 (Dolomanov et al., 2009)'
_computing_structure_refinement  'ShelXL (Sheldrick, 2015)'
_computing_structure_solution    'ShelXT (Sheldrick, 2015)'
_diffrn_ambient_temperature      294.15
_diffrn_detector                 PILT
_diffrn_measured_fraction_theta_full 0.983
_diffrn_measured_fraction_theta_max 0.968
_diffrn_measurement_details
;
List of Runs (angles in degrees, time in seconds):

  # Type    Start    End  Width  t~exp~   \w     \q     \k     \f   Frames
--------------------------------------------------------------------------
  1  \w   -125.00 -28.00   1.00    5.00    --  -35.00 -72.00   0.00   97
  2  \w   -114.00 -21.00   1.00    5.00    --  -35.00 -72.00 -72.00   93
  3  \w    -50.00  40.00   1.00    5.00    --  -35.00  72.00  36.00   90
  4  \w   -114.00 -21.00   1.00    5.00    --  -35.00 -72.00  36.00   93
  5  \w    -50.00  40.00   1.00    5.00    --  -35.00  43.00   0.00   90
  6  \w   -115.00 -25.00   1.00    5.00    --  -35.00 -44.00 108.00   90
  7  \w   -117.00 -27.00   1.00    5.00    --  -35.00 -44.00-180.00   90
  8  \w   -115.00 -25.00   1.00    5.00    --  -35.00 -72.00 -36.00   90
  9  \w   -125.00 -32.00   1.00    5.00    -- -110.00  43.00-144.00   93
 10  \w   -187.00 -96.00   1.00    5.00    -- -110.00 -44.00  72.00   91
 11  \w   -125.00 -32.00   1.00    5.00    -- -110.00  72.00 108.00   93
 12  \w   -200.00-110.00   1.00    5.00    -- -110.00 -15.00   0.00   90
 13  \w   -187.00 -96.00   1.00    5.00    -- -110.00 -44.00 108.00   91
 14  \w   -123.00 -33.00   1.00    5.00    -- -110.00  72.00  36.00   90
 15  \w   -187.00 -97.00   1.00    5.00    -- -110.00 -44.00 -36.00   90
 16  \w   -187.00 -96.00   1.00    5.00    -- -110.00 -44.00  36.00   91
 17  \w   -187.00 -97.00   1.00    5.00    -- -110.00 -44.00   0.00   90
 18  \w   -115.00 -25.00   1.00    5.00    -- -110.00  72.00  72.00   90
 19  \w   -187.00 -96.00   1.00    5.00    -- -110.00 -72.00   0.00   91
 20  \w   -187.00 -97.00   1.00    5.00    -- -110.00 -44.00 -72.00   90
 21  \w   -187.00 -96.00   1.00    5.00    -- -110.00 -72.00  72.00   91
 22  \w   -187.00 -97.00   1.00    5.00    -- -110.00 -72.00 -72.00   90
 23  \w   -187.00 -96.00   1.00    5.00    -- -110.00 -72.00  36.00   91
 24  \w   -125.00 -33.00   1.00    5.00    -- -110.00  72.00   0.00   92
 25  \w   -187.00 -96.00   1.00    5.00    -- -110.00 -72.00 144.00   91
 26  \w   -187.00 -97.00   1.00    5.00    -- -110.00 -15.00-108.00   90
 27  \w   -200.00-110.00   1.00    5.00    -- -110.00 -15.00 -72.00   90
 28  \w   -200.00-110.00   1.00    5.00    -- -110.00 -15.00  36.00   90
;
_diffrn_measurement_device       'abstract diffractometer'
_diffrn_measurement_device_type  'Rigaku Xtalab P200'
_diffrn_measurement_method       '\w scans'
_diffrn_orient_matrix_type
'CrysAlisPro convention (1999,Acta A55,543-557)'
_diffrn_orient_matrix_UB_11      -0.1101469000
_diffrn_orient_matrix_UB_12      0.0105589000
_diffrn_orient_matrix_UB_13      0.0950938000
_diffrn_orient_matrix_UB_21      0.1225592000
_diffrn_orient_matrix_UB_22      -0.0004947000
_diffrn_orient_matrix_UB_23      0.0983411000
_diffrn_orient_matrix_UB_31      0.0054217000
_diffrn_orient_matrix_UB_32      0.2216684000
_diffrn_orient_matrix_UB_33      -0.0042351000
_diffrn_radiation_monochromator  confocal
_diffrn_radiation_probe          x-ray
_diffrn_radiation_type           CuK\a
_diffrn_radiation_wavelength     1.54184
_diffrn_reflns_av_R_equivalents  0.0161
_diffrn_reflns_av_unetI/netI     0.0092
_diffrn_reflns_Laue_measured_fraction_full 0.983
_diffrn_reflns_Laue_measured_fraction_max 0.968
_diffrn_reflns_limit_h_max       11
_diffrn_reflns_limit_h_min       -11
_diffrn_reflns_limit_k_max       8
_diffrn_reflns_limit_k_min       -6
_diffrn_reflns_limit_l_max       14
_diffrn_reflns_limit_l_min       -14
_diffrn_reflns_number            12277
_diffrn_reflns_point_group_measured_fraction_full 0.861
_diffrn_reflns_point_group_measured_fraction_max 0.835
_diffrn_reflns_theta_full        67.684
_diffrn_reflns_theta_max         79.162
_diffrn_reflns_theta_min         3.927
_diffrn_source                   'rotating anode'
_diffrn_source_type              'Enhance (Cu) X-ray Source'
_exptl_absorpt_coefficient_mu    0.600
_exptl_absorpt_correction_T_max  1.00000
_exptl_absorpt_correction_T_min  0.76543
_exptl_absorpt_correction_type   multi-scan
_exptl_absorpt_process_details
;
CrysAlisPro 1.171.39.3a (Rigaku Oxford Diffraction, 2015)
Empirical absorption correction using spherical harmonics,
 implemented in SCALE3 ABSPACK scaling algorithm.
;
_exptl_crystal_colour            colourless
_exptl_crystal_colour_primary    colourless
_exptl_crystal_density_diffrn    1.249
_exptl_crystal_description       prism
_exptl_crystal_F_000             292
_exptl_crystal_size_max          0.26
_exptl_crystal_size_mid          0.18
_exptl_crystal_size_min          0.16
_refine_diff_density_max         0.095
_refine_diff_density_min         -0.092
_refine_diff_density_rms         0.020
_refine_ls_abs_structure_details
;
 Flack x determined using 950 quotients [(I+)-(I-)]/[(I+)+(I-)]
 (Parsons, Flack and Wagner, Acta Cryst. B69 (2013) 249-259).
;
_refine_ls_abs_structure_Flack   0.10(7)
_refine_ls_extinction_coef       0.028(2)
_refine_ls_extinction_expression Fc^*^=kFc[1+0.001xFc^2^\l^3^/sin(2\q)]^-1/4^
_refine_ls_extinction_method     'SHELXL-2014/7 (Sheldrick 2014'
_refine_ls_goodness_of_fit_ref   1.047
_refine_ls_hydrogen_treatment    mixed
_refine_ls_matrix_type           full
_refine_ls_number_parameters     196
_refine_ls_number_reflns         2641
_refine_ls_number_restraints     1
_refine_ls_restrained_S_all      1.047
_refine_ls_R_factor_all          0.0273
_refine_ls_R_factor_gt           0.0271
_refine_ls_shift/su_max          0.000
_refine_ls_shift/su_mean         0.000
_refine_ls_structure_factor_coef Fsqd
_refine_ls_weighting_details
'w=1/[\s^2^(Fo^2^)+(0.0430P)^2^+0.0450P] where P=(Fo^2^+2Fc^2^)/3'
_refine_ls_weighting_scheme      calc
_refine_ls_wR_factor_gt          0.0746
_refine_ls_wR_factor_ref         0.0747
_reflns_Friedel_coverage         0.591
_reflns_Friedel_fraction_full    0.716
_reflns_Friedel_fraction_max     0.677
_reflns_number_gt                2605
_reflns_number_total             2641
_reflns_threshold_expression     'I > 2\s(I)'
_cod_data_source_file            cs9b01502_si_004.cif
_cod_data_source_block           p20170927a
_cod_database_code               4514790
_shelx_shelxl_version_number     2014/7
_shelx_space_group_comment
;
The symmetry employed for this shelxl refinement is uniquely defined
by the following loop, which should always be used as a source of
symmetry information in preference to the above space-group names.
They are only intended as comments.
;
_shelx_estimated_absorpt_t_max   0.910
_shelx_estimated_absorpt_t_min   0.860
_reflns_odcompleteness_completeness 96.80
_reflns_odcompleteness_iscentric 1
_reflns_odcompleteness_theta     78.92
_olex2_refinement_description
;
1. Fixed Uiso
 At 1.2 times of:
  All C(H) groups, All C(H,H) groups
 At 1.5 times of:
  All C(H,H,H) groups
2.a Ternary CH refined with riding coordinates:
 C10(H10)
2.b Secondary CH2 refined with riding coordinates:
 C11(H11A,H11B), C12(H12A,H12B)
2.c Aromatic/amide H refined with riding coordinates:
 C5(H5), C6(H6), C7(H7), C8(H8), C15(H15), C16(H16), C17(H17), C18(H18)
2.d Idealised Me refined as rotating group:
 C19(H19A,H19B,H19C)
;
_shelx_res_file
;
    p20170927a.res created by SHELXL-2014/7

TITL p20170927a_a.res in P2(1)
REM Old TITL P20170927a in P21 #4
REM SHELXT solution in P2(1)
REM R1 0.151, Rweak 0.045, Alpha 0.004, Orientation as input
REM Flack x = 0.300 ( 0.056 ) from Parsons' quotients
REM Formula found by SHELXT: C19 O2
CELL 1.54184 9.3678 6.9408 11.2829 90 93.95 90
ZERR 2 0.0001 0.0001 0.0001 0 0.001 0
LATT -1
SYMM -X,0.5+Y,-Z
SFAC C H N O
UNIT 38 34 2 2

L.S. 10
PLAN  20
SIZE 0.26 0.18 0.16
TEMP 21
BOND $H
conf
htab
fmap 2
acta
REM <olex2.extras>
REM <HklSrc "%.\\P20170927a.hkl">
REM </olex2.extras>

WGHT    0.043000    0.045000
EXTI    0.027583
FVAR       2.01431
O1    4    0.361899    0.908932    0.796255    11.00000    0.06557    0.06687 =
         0.06883    0.00282    0.01551    0.00313
N1    3    0.268182    0.237046    0.632960    11.00000    0.04918    0.06729 =
         0.05115    0.00894    0.00001   -0.00359
C1    1    0.340135    0.409752    0.643653    11.00000    0.04155    0.06158 =
         0.04726    0.00534    0.00500    0.00274
C2    1    0.315813    0.518282    0.545231    11.00000    0.04544    0.07226 =
         0.04570    0.00760    0.01005    0.00628
C3    1    0.222913    0.410531    0.463947    11.00000    0.03943    0.08786 =
         0.04385    0.00635    0.00946    0.00647
C4    1    0.196042    0.234359    0.521175    11.00000    0.03813    0.08455 =
         0.04837    0.00041    0.00616   -0.00225
C5    1    0.109487    0.092573    0.467977    11.00000    0.04796    0.10798 =
         0.06444   -0.00558    0.00796   -0.01895
AFIX  43
H5    2    0.093234   -0.023032    0.506484    11.00000   -1.20000
AFIX   0
C6    1    0.048318    0.129856    0.355448    11.00000    0.05261    0.15918 =
         0.06162   -0.01444    0.00350   -0.02883
AFIX  43
H6    2   -0.010739    0.037668    0.317646    11.00000   -1.20000
AFIX   0
C7    1    0.072896    0.301104    0.297746    11.00000    0.05320    0.17430 =
         0.04687    0.00580    0.00041   -0.01542
AFIX  43
H7    2    0.030194    0.321238    0.221890    11.00000   -1.20000
AFIX   0
C8    1    0.158705    0.442073    0.349598    11.00000    0.05084    0.12444 =
         0.04661    0.01504    0.00715    0.00158
AFIX  43
H8    2    0.174055    0.556604    0.309630    11.00000   -1.20000
AFIX   0
C9    1    0.429885    0.505623    0.742431    11.00000    0.04583    0.06452 =
         0.05173    0.00467    0.00135    0.00134
C10   1    0.484319    0.683607    0.673471    11.00000    0.04972    0.06822 =
         0.06331    0.00333    0.01502   -0.00356
AFIX  13
H10   2    0.580391    0.652571    0.649855    11.00000   -1.20000
AFIX   0
C11   1    0.386754    0.709973    0.558437    11.00000    0.07817    0.07095 =
         0.05573    0.01209    0.01379   -0.00192
AFIX  23
H11A  2    0.317355    0.811853    0.567068    11.00000   -1.20000
H11B  2    0.442278    0.738515    0.491131    11.00000   -1.20000
AFIX   0
C12   1    0.497121    0.858912    0.750597    11.00000    0.05549    0.07132 =
         0.07515   -0.00081    0.01389   -0.00827
AFIX  23
H12A  2    0.567093    0.835326    0.816417    11.00000   -1.20000
H12B  2    0.530816    0.966106    0.704945    11.00000   -1.20000
AFIX   0
C13   1    0.304596    0.761757    0.860027    11.00000    0.04577    0.08007 =
         0.04596    0.00172    0.00105   -0.00098
C14   1    0.335343    0.569503    0.840660    11.00000    0.05004    0.07341 =
         0.04394    0.00446    0.00123   -0.00474
C15   1    0.273408    0.432890    0.911244    11.00000    0.08535    0.08514 =
         0.05289    0.01026    0.01010   -0.01322
AFIX  43
H15   2    0.293078    0.303107    0.899940    11.00000   -1.20000
AFIX   0
C16   1    0.183282    0.485202    0.997842    11.00000    0.08689    0.12625 =
         0.05337    0.01136    0.01523   -0.02715
AFIX  43
H16   2    0.143907    0.391717    1.044816    11.00000   -1.20000
AFIX   0
C17   1    0.152343    0.677463    1.013874    11.00000    0.06034    0.14269 =
         0.04858   -0.00393    0.01070   -0.00672
AFIX  43
H17   2    0.090430    0.713394    1.070960    11.00000   -1.20000
AFIX   0
C18   1    0.212608    0.816609    0.945827    11.00000    0.05487    0.10386 =
         0.05013   -0.00857    0.00263    0.00443
AFIX  43
H18   2    0.191992    0.946112    0.957131    11.00000   -1.20000
AFIX   0
C19   1    0.556813    0.385435    0.794534    11.00000    0.05964    0.07969 =
         0.07498   -0.00076   -0.01445    0.00859
AFIX 137
H19A  2    0.521743    0.275239    0.834959    11.00000   -1.50000
H19B  2    0.614763    0.462577    0.849650    11.00000   -1.50000
H19C  2    0.613267    0.343365    0.731558    11.00000   -1.50000
AFIX   0
H1    2    0.274921    0.128508    0.683000    11.00000    0.07714
HKLF 4

REM  p20170927a_a.res in P2(1)
REM R1 =  0.0271 for    2605 Fo > 4sig(Fo)  and  0.0273 for all    2641 data
REM    196 parameters refined using      1 restraints

END

WGHT      0.0427      0.0459

REM Instructions for potential hydrogen bonds
EQIV $1 x, y-1, z
HTAB N1 O1_$1

REM Highest difference peak  0.095,  deepest hole -0.092,  1-sigma level  0.020
Q1    1   0.3909  0.5397  0.7963  11.00000  0.05    0.10
Q2    1   0.4281  0.7011  0.6248  11.00000  0.05    0.09
Q3    1   0.0095  0.4084  0.2180  11.00000  0.05    0.09
Q4    1   0.0563  0.1361  0.4175  11.00000  0.05    0.09
Q5    1   0.3898  0.4572  0.6925  11.00000  0.05    0.09
Q6    1   0.2216  0.3003  0.4789  11.00000  0.05    0.08
Q7    1   0.2166  0.2489  0.5658  11.00000  0.05    0.08
Q8    1   0.4864  0.6861  0.7523  11.00000  0.05    0.08
Q9    1   0.1326  0.3368  0.3424  11.00000  0.05    0.08
Q10   1   0.4487  0.6100  0.7161  11.00000  0.05    0.08
Q11   1   0.4789  0.7745  0.7003  11.00000  0.05    0.08
Q12   1   0.0378  0.2375  0.2172  11.00000  0.05    0.08
Q13   1   0.2042  0.7348  0.9802  11.00000  0.05    0.08
Q14   1   0.1878  0.4368  0.4186  11.00000  0.05    0.07
Q15   1   0.2733  0.7874  0.9159  11.00000  0.05    0.07
Q16   1   0.2779  0.4739  0.4960  11.00000  0.05    0.07
Q17   1   0.1906  0.1362  0.5004  11.00000  0.05    0.07
Q18   1   0.3327  0.4772  0.5919  11.00000  0.05    0.07
Q19   1  -0.0416  0.1054  0.2865  11.00000  0.05    0.06
Q20   1   0.6808  0.1325  0.8488  11.00000  0.05    0.06
;
_shelx_res_checksum              91323
_shelx_hkl_file
;
   0   0   1 2800.01    8.41
   0   0   1 2788.15    8.48
   0   0  -1 2804.57    8.47
   0   0   2  105.44    0.92
   0   0   2  111.42    1.01
   0   0  -2  104.87    0.80
   0   0   2  108.83    0.95
   0   0   2  103.86    0.94
   0   0  -2  109.45    0.96
   0   0  -2  103.15    1.01
   0   0   3  143.03    1.31
   0   0  -3  142.22    1.35
   0   0   3  145.48    1.37
   0   0  -4  645.01    3.24
   0   0   4  652.20    3.58
   0   0   4  667.18    3.78
   0   0  -4  662.67    3.73
   0   0  -5    0.78    0.30
   0   0   5    0.65    0.27
   0   0   5    0.66    0.25
   0   0  -5    0.79    0.21
   0   0   5    0.99    0.35
   0   0  -6 1894.36    7.70
   0   0  -6 1888.07    8.78
   0   0  -7  290.82    3.26
   0   0   7  310.26    3.43
   0   0   8   18.96    0.94
   0   0  -8   17.82    0.93
   0   0  -8   19.78    1.06
   0   0  -8   18.89    1.09
   0   0   8   20.90    1.03
   0   0   8   20.90    1.02
   0   0   8   19.06    1.06
   0   0   8   19.57    0.93
   0   0   8   19.18    1.08
   0   0   9  240.01    3.82
   0   0   9  245.54    3.35
   0   0   9  240.87    3.80
   0   0   9  238.40    3.50
   0   0  -9  241.85    3.68
   0   0  -9  242.31    3.87
   0   0   9  233.59    3.44
   0   0  -9  242.61    3.44
   0   0   9  250.82    3.60
   0   0  10  303.63    3.99
   0   0 -10  315.09    4.53
   0   0  10  307.86    4.44
   0   0  10  301.50    4.41
   0   0 -10  294.15    4.16
   0   0 -10  312.71    4.49
   0   0 -10  308.97    4.60
   0   0  11  284.36    3.75
   0   0  11  280.02    4.15
   0   0 -11  295.82    4.32
   0   0 -11  282.71    4.20
   0   0 -11  283.42    4.34
   0   0  11  282.75    4.23
   0   0 -11  287.21    3.94
   0   0 -12   16.60    1.04
   0   0 -12   16.62    1.09
   0   0 -12   15.11    1.08
   0   0 -12   14.47    0.88
   0   0  12   15.51    0.95
   0   0  12   15.81    1.00
   0   0  13   28.61    1.10
   0   0 -13   30.10    1.07
   0   0 -13   29.80    1.16
   0   0 -13   28.17    1.15
   0   0 -14   15.28    0.62
   0   0 -14   15.98    0.63
   0   1   0    0.67    0.10
   0   1   0    0.59    0.14
   0  -1   0    0.73    0.09
   0  -1   0    0.60    0.11
   0  -1   1 5572.81   16.03
   0  -1  -1 5636.24   16.07
   0   1  -2   61.74    0.71
   0  -1   2   55.35    0.40
   0   1  -2   56.85    0.64
   0  -1   2   53.60    0.69
   0  -1   2   58.34    0.38
   0  -1   2   55.76    0.66
   0   1   2   55.94    0.56
   0   1   2   63.91    0.84
   0  -1  -2   58.62    0.62
   0  -1  -3  691.64    3.71
   0  -1   3  683.67    3.34
   0   1   3  694.85    3.04
   0   1  -3  687.99    3.14
   0  -1  -4  155.73    1.79
   0   1   4  165.23    1.53
   0  -1   4  159.92    1.85
   0   1  -4  150.78    1.50
   0  -1   4  158.59    1.61
   0   1   5  224.69    2.10
   0   1  -5  213.41    2.08
   0  -1   5  221.79    2.46
   0  -1  -5  217.05    2.41
   0   1  -6  937.36    5.36
   0   1   6  929.99    5.35
   0  -1  -6  957.88    5.59
   0  -1  -6  933.63    5.97
   0  -1   6  956.85    5.28
   0  -1   6  908.36    6.06
   0  -1  -7  357.06    3.42
   0  -1  -7  368.60    3.91
   0   1  -7  365.45    3.43
   0  -1   7  367.01    3.96
   0  -1   7  362.36    3.72
   0  -1   7  383.14    3.42
   0   1   7  377.01    3.85
   0   1   7  360.91    3.40
   0  -1   8   50.18    1.62
   0   1  -8   49.09    1.67
   0   1   8   52.59    1.72
   0   1  -8   49.22    1.63
   0  -1  -8   46.59    1.53
   0   1  -8   50.28    1.58
   0   1  -8   48.02    1.69
   0   1   8   50.06    1.54
   0  -1   8   47.92    1.56
   0  -1   8   49.62    1.51
   0   1  -8   47.49    1.33
   0  -1   8   51.94    1.68
   0  -1  -8   49.52    1.65
   0   1   8   49.96    1.63
   0   1   8   52.33    1.60
   0  -1  -9   37.26    1.55
   0   1   9   37.30    1.42
   0  -1   9   37.69    1.52
   0   1   9   36.62    1.54
   0   1  -9   37.38    1.58
   0   1  -9   35.75    1.58
   0  -1  -9   35.42    1.46
   0   1  -9   36.25    1.46
   0   1   9   36.85    1.50
   0  -1   9   38.09    1.51
   0  -1   9   37.54    1.52
   0   1  -9   37.47    1.57
   0   1  -9   35.35    1.53
   0  -1  -9   40.36    1.60
   0   1   9   36.07    1.49
   0  -1   9   37.20    1.43
   0   1  10   93.82    2.20
   0  -1 -10   93.75    2.53
   0  -1 -10   93.71    2.45
   0   1  10   93.51    2.48
   0   1 -10   97.52    2.46
   0  -1 -10   96.88    2.47
   0   1 -10   95.35    2.45
   0  -1  10   95.13    2.40
   0   1 -10   91.67    2.30
   0   1 -10   96.79    2.55
   0   1 -10   93.08    2.49
   0  -1  10   90.70    2.41
   0   1  10   93.82    2.31
   0   1  11  146.43    3.04
   0   1 -11  145.78    2.93
   0  -1 -11  150.43    3.02
   0   1  11  148.54    2.63
   0  -1 -11  146.12    3.10
   0   1  11  148.34    3.09
   0   1 -11  153.64    3.08
   0  -1 -11  151.89    3.01
   0   1 -11  145.54    2.78
   0   1  11  150.01    2.83
   0   1 -11  153.09    3.16
   0  -1  11  151.27    2.88
   0   1 -11  148.80    3.00
   0  -1 -11  156.71    3.11
   0  -1  11  148.44    2.94
   0   1 -12   36.30    1.28
   0   1 -12   38.57    1.49
   0  -1 -12   38.35    1.50
   0  -1 -12   36.59    1.43
   0   1  12   38.19    1.47
   0  -1 -12   40.41    1.51
   0  -1 -12   36.97    1.24
   0   1 -12   38.34    1.54
   0  -1  12   37.58    1.36
   0   1  12   35.71    1.42
   0  -1 -12   37.98    1.54
   0   1  12   35.94    1.31
   0   1 -12   40.26    1.51
   0   1 -12   37.55    1.43
   0  -1 -13   34.27    1.16
   0  -1  13   31.31    1.05
   0  -1 -13   35.80    1.22
   0   1 -13   31.17    1.11
   0   1 -13   30.19    1.16
   0  -1 -13   31.53    1.14
   0  -1 -13   31.87    1.20
   0   1 -13   33.30    1.17
   0  -1 -14   12.25    0.55
   0  -1 -14   11.50    0.48
   0  -1 -14   10.75    0.44
   0  -1 -14   11.43    0.50
   0   1 -14   10.73    0.43
   0   2   0 2656.41    8.47
   0  -2   0 2603.41    8.48
   0   2   1 1276.78    5.36
   0   2   1 1287.45    4.57
   0  -2   2 1728.12    5.88
   0  -2   2 1740.59    6.49
   0   2   2 1689.06    6.08
   0  -2   2 1712.14    5.84
   0  -2  -2 1703.63    5.35
   0   2   2 1731.90    7.04
   0  -2   3  347.25    2.35
   0   2   3  320.11    1.56
   0  -2  -3  313.14    2.71
   0   2   3  339.27    1.88
   0   2   3  366.85    2.77
   0   2   3  354.86    2.21
   0  -2   4  564.49    3.55
   0   2   4  547.30    2.70
   0   2   5  153.21    1.48
   0  -2  -5  153.63    2.25
   0  -2   5  154.78    1.86
   0   2   6  380.54    3.84
   0  -2   6  384.31    3.14
   0   2   7  474.72    4.89
   0   2  -7  459.44    4.82
   0  -2  -7  464.42    4.76
   0  -2  -7  479.33    4.82
   0   2   7  488.26    4.98
   0   2  -7  485.65    4.81
   0   2  -7  465.92    4.69
   0   2   7  457.06    4.82
   0  -2  -7  477.40    4.56
   0   2   7  469.23    4.72
   0  -2   7  480.08    4.91
   0   2   8   21.68    1.11
   0   2   8   20.94    1.16
   0  -2   8   21.12    1.15
   0   2  -8   20.60    1.11
   0  -2  -8   20.40    1.17
   0   2   8   21.46    1.15
   0   2  -8   19.53    1.13
   0  -2  -8   20.60    1.14
   0  -2   8   21.56    1.06
   0  -2  -8   20.75    1.06
   0   2  -8   19.94    1.16
   0   2   8   21.44    1.20
   0  -2   8   21.70    1.11
   0   2   8   21.30    1.11
   0   2  -8   20.89    1.10
   0   2  -9   32.00    1.36
   0  -2   9   31.28    1.46
   0  -2  -9   31.34    1.48
   0   2   9   32.76    1.47
   0  -2   9   31.36    1.32
   0   2  -9   32.12    1.53
   0   2   9   32.03    1.47
   0   2   9   33.87    1.53
   0  -2  -9   30.72    1.43
   0   2  -9   30.67    1.47
   0   2  -9   33.75    1.49
   0   2   9   33.13    1.39
   0  -2   9   33.54    1.43
   0   2   9   32.25    1.38
   0   2  -9   32.94    1.44
   0   2  10   15.82    1.09
   0   2 -10   17.50    1.15
   0   2  10   16.56    1.00
   0  -2 -10   17.17    1.12
   0   2  10   15.97    1.09
   0   2  10   17.04    1.06
   0   2 -10   15.29    1.04
   0   2  10   16.76    1.15
   0  -2 -10   15.78    1.06
   0   2 -10   16.84    1.18
   0   2 -10   16.11    1.15
   0  -2  10   16.43    1.04
   0  -2 -10   16.50    1.18
   0   2 -11  130.04    2.73
   0   2 -11  126.01    2.77
   0   2  11  127.62    2.78
   0   2  11  126.11    2.60
   0   2 -11  124.99    2.57
   0  -2 -11  126.72    2.77
   0   2  11  124.24    2.44
   0  -2  11  123.69    2.50
   0  -2 -11  123.29    2.57
   0  -2 -11  129.86    2.67
   0   2  11  127.50    2.70
   0   2 -11  128.83    2.77
   0   2 -12   43.67    1.37
   0  -2  12   42.23    1.30
   0  -2 -12   42.72    1.52
   0   2 -12   46.57    1.56
   0   2  12   42.59    1.40
   0  -2 -12   42.92    1.53
   0   2  12   44.61    1.47
   0  -2 -12   45.50    1.48
   0   2 -12   45.65    1.56
   0   2  12   46.08    1.30
   0  -2 -12   43.08    1.39
   0   2 -12   45.65    1.48
   0  -2 -13    8.68    0.60
   0   2  13    7.58    0.57
   0  -2 -13    6.56    0.45
   0  -2 -13    8.27    0.62
   0   2 -13    6.22    0.44
   0   2 -13    8.46    0.61
   0  -2 -13    7.23    0.50
   0  -2 -13    8.68    0.64
   0   2 -13    7.91    0.61
   0   3   0    0.11    0.15
   0   3   0    0.48    0.21
   0   3   1  586.96    3.79
   0  -3  -1  593.86    2.44
   0  -3   2  804.04    4.31
   0   3   2  808.81    3.57
   0  -3   2  805.25    3.93
   0   3   3   14.53    0.43
   0  -3  -3   14.84    0.71
   0   3   3   14.62    0.66
   0  -3   3   16.01    0.59
   0   3   4  693.61    3.80
   0  -3   4  714.34    5.15
   0  -3   4  701.56    4.41
   0  -3  -4  711.89    5.18
   0  -3   5  855.01    6.18
   0   3   5  858.98    6.10
   0   3  -6   35.58    1.42
   0   3  -6   35.64    1.35
   0  -3   6   36.90    1.36
   0   3  -6   34.78    1.35
   0   3   6   37.76    1.32
   0   3   6   36.53    1.35
   0   3   6   34.74    1.27
   0   3   6   37.21    1.38
   0   3   6   36.92    1.38
   0   3  -6   37.00    1.30
   0   3   7  153.38    2.87
   0   3   7  159.53    2.95
   0   3  -7  153.95    2.97
   0  -3   7  147.54    2.87
   0   3  -7  152.51    2.83
   0   3  -7  150.02    2.77
   0   3  -7  157.60    2.96
   0  -3  -7  150.74    2.85
   0   3   7  152.33    2.84
   0   3  -7  149.11    2.74
   0   3   7  148.68    2.82
   0   3   7  149.81    2.84
   0   3   7  153.84    2.80
   0   3   7  148.86    2.72
   0  -3  -7  143.49    2.87
   0   3  -8  204.12    3.63
   0   3  -8  199.89    3.38
   0   3  -8  205.94    3.47
   0   3   8  208.88    3.56
   0   3   8  205.05    3.52
   0   3   8  211.29    3.55
   0  -3  -8  203.61    3.49
   0   3  -8  200.50    3.40
   0  -3  -8  209.16    3.56
   0   3   8  203.16    3.29
   0  -3  -8  200.45    3.61
   0  -3   8  197.64    3.58
   0   3   8  208.01    3.41
   0   3   8  208.20    3.48
   0   3   8  211.13    3.46
   0   3  -8  210.52    3.48
   0  -3  -9  206.88    3.41
   0   3   9  211.84    3.27
   0   3  -9  221.08    3.82
   0   3   9  212.07    3.65
   0   3  -9  211.61    3.56
   0  -3  -9  214.97    3.67
   0   3   9  218.43    3.51
   0   3   9  210.30    3.50
   0   3  -9  217.38    3.58
   0   3   9  208.81    3.53
   0   3  -9  213.98    3.54
   0   3  10  142.86    2.97
   0   3 -10  138.18    2.87
   0   3 -10  143.71    3.04
   0  -3 -10  143.17    2.92
   0   3  10  142.03    2.80
   0  -3 -10  142.57    2.78
   0   3 -10  150.69    2.91
   0   3  10  141.29    2.70
   0  -3 -10  139.02    2.68
   0   3  10  143.54    2.81
   0   3 -11   11.87    0.90
   0  -3 -11   12.84    0.90
   0   3 -11   11.56    0.86
   0   3  11   10.89    0.76
   0  -3 -11   11.61    0.89
   0   3  11   11.97    0.86
   0   3  11   12.57    0.93
   0   3  11   11.72    0.83
   0  -3 -11   11.39    0.78
   0  -3 -11   11.11    0.94
   0  -3 -12    8.48    0.65
   0   3  12    9.66    0.65
   0   3 -12   10.50    0.70
   0   3 -12    9.22    0.70
   0  -3 -12   10.40    0.71
   0   3  12    9.91    0.66
   0  -3 -12   10.74    0.77
   0   3 -13    8.84    0.43
   0  -3 -13    8.65    0.42
   0  -3 -13    9.14    0.44
   0   3 -13    8.78    0.45
   0  -3 -13   10.38    0.56
   0  -4   1  169.25    1.92
   0   4   1  186.13    2.35
   0  -4   2  389.29    3.40
   0  -4  -2  389.26    3.79
   0  -4  -3  186.23    2.74
   0  -4   3  193.75    2.27
   0  -4   3  190.22    2.55
   0   4   3  197.84    2.71
   0   4  -4   16.79    0.94
   0  -4  -4   17.45    0.97
   0   4  -4   15.60    0.96
   0   4   4   15.42    0.90
   0   4   4   15.59    0.84
   0   4   4   16.62    0.95
   0  -4   4   17.15    0.88
   0   4   4   15.21    0.96
   0   4   5   77.39    1.95
   0   4   5   80.75    2.10
   0  -4   5   81.49    2.00
   0  -4  -5   77.96    2.01
   0   4  -5   77.21    2.07
   0   4  -5   83.66    1.91
   0   4   5   80.85    2.06
   0   4  -5   80.24    1.97
   0   4   5   81.98    1.98
   0   4  -5   81.83    1.97
   0   4   5   80.89    2.03
   0   4  -6   49.54    1.73
   0   4   6   53.18    1.78
   0   4   6   52.78    1.74
   0  -4   6   52.93    1.75
   0   4  -6   49.51    1.79
   0   4   6   53.23    1.73
   0   4  -6   51.66    1.71
   0   4   6   51.61    1.79
   0  -4  -6   52.97    1.81
   0   4  -6   53.25    1.64
   0  -4  -7  310.10    4.56
   0   4  -7  311.44    4.12
   0   4   7  315.02    4.41
   0   4   7  316.94    4.29
   0   4   7  306.42    4.30
   0  -4   7  306.41    4.46
   0  -4  -7  299.33    4.43
   0   4  -7  313.87    4.47
   0   4   7  314.65    4.36
   0   4  -7  318.04    4.30
   0   4  -7  312.31    4.35
   0   4  -8   47.18    1.63
   0   4   8   52.87    1.87
   0   4  -8   50.23    1.82
   0   4   8   50.12    1.79
   0   4  -8   47.84    1.70
   0   4  -8   49.58    1.85
   0   4   8   52.19    1.83
   0   4  -9  147.87    2.74
   0   4  -9  153.50    2.96
   0   4  -9  151.17    2.83
   0   4  -9  151.37    3.09
   0   4   9  149.88    3.02
   0   4   9  151.76    3.05
   0   4   9  152.59    2.91
   0   4   9  146.65    2.78
   0  -4 -10   17.95    1.10
   0   4  10   17.57    1.02
   0  -4 -10   16.63    0.97
   0   4 -10   18.06    1.00
   0   4  10   19.47    1.11
   0   4  10   15.99    0.93
   0   4 -10   17.35    0.95
   0   4 -10   17.43    1.12
   0   4  10   18.55    1.13
   0   4 -11   35.41    1.13
   0   4 -11   33.15    1.07
   0  -4 -11   34.60    1.14
   0   4  11   33.51    1.12
   0   4  11   33.86    1.18
   0  -4 -11   35.30    1.26
   0   4 -12    0.60    0.21
   0   4  12    0.67    0.29
   0   4  12    0.66    0.21
   0  -4 -12    0.69    0.24
   0   4  12    0.78    0.30
   0  -4 -12    1.29    0.34
   0  -5   0   -0.03    0.30
   0   5   1   13.33    0.88
   0  -5  -1   13.96    0.85
   0   5   1   13.33    0.83
   0   5   2   99.33    2.18
   0   5   2   98.20    2.23
   0   5   2   98.03    2.13
   0   5  -2   98.54    2.06
   0  -5  -2   98.76    2.18
   0   5   2  101.67    2.09
   0   5   2   99.32    2.06
   0   5  -3   82.68    2.17
   0   5   3   84.24    2.09
   0   5   3   83.56    1.97
   0   5  -3   82.20    2.00
   0  -5  -3   85.49    2.16
   0   5   3   82.44    2.05
   0   5   3   86.78    2.03
   0   5   3   82.88    2.16
   0   5   4  228.59    3.49
   0   5  -4  214.37    3.57
   0   5   4  223.11    3.33
   0   5  -4  219.34    3.31
   0  -5  -4  222.02    3.63
   0   5   4  225.28    3.53
   0   5   4  216.29    3.36
   0   5   4  229.61    3.65
   0   5   5  139.36    2.74
   0   5   5  138.51    2.85
   0   5   5  142.75    2.99
   0   5  -5  136.55    2.73
   0   5   5  136.10    2.83
   0  -5  -5  134.83    2.93
   0   5   5  141.73    2.89
   0   5  -5  140.76    2.98
   0   5   6   77.53    2.18
   0   5  -6   80.14    2.17
   0   5   6   76.23    2.20
   0   5   7   24.28    1.39
   0   5  -7   24.75    1.30
   0   5   7   25.78    1.34
   0   5   8   38.63    1.55
   0   5  -8   38.10    1.55
   0   5   8   38.41    1.56
   0   5  -8   34.09    1.29
   0   5   8   37.29    1.54
   0   5   9    3.80    0.64
   0  -5  -9    3.47    0.58
   0   5   9    4.23    0.62
   0  -5  -9    3.65    0.53
   0   5   9    3.91    0.67
   0   5  10   16.95    0.85
   0   5  10   15.96    0.83
   0   5  10   17.56    0.87
   0  -5 -10   16.53    0.83
   0   5  10   16.65    0.89
   0   5  11    3.95    0.40
   0   5  11    3.74    0.39
   0   5  11    4.15    0.42
   0   6   1   59.83    1.73
   0   6   1   61.99    1.83
   0   6   2   14.30    1.04
   0   6   2   14.71    0.99
   0   6   3  111.55    2.26
   0   6  -3  107.24    2.28
   0   6   3  112.75    2.59
   0   6   3  113.04    2.50
   0   6  -4  105.27    2.31
   0   6   4  106.26    2.53
   0   6   4  105.74    2.57
   0   6   4  106.26    2.28
   0   6   4  107.13    2.47
   0   6   5   24.92    1.38
   0   6   5   23.78    1.15
   0   6   5   24.06    1.26
   0   6  -5   23.68    1.23
   0   6   5   24.43    1.33
   0   6  -6   34.55    1.39
   0   6   6   34.03    1.47
   0   6   6   34.00    1.47
   0   6   6   36.07    1.57
   0   6   6   32.28    1.29
   0   6   7   28.93    1.17
   0   6   7   28.42    1.30
   0   6  -7   30.30    1.26
   0   6   7   28.20    1.28
   0   6   8    2.13    0.57
   0   6   8    2.57    0.54
   0   6   8    2.23    0.45
   0   6   8    2.55    0.61
   0   6   9    5.58    0.47
   0   6   9    6.04    0.59
   0   6  10    1.98    0.30
   0   6  10    2.54    0.33
   0   7   2   37.56    1.30
   0   7   2   36.30    1.36
   0   7   3    6.38    0.70
   0   7   3    5.49    0.74
   0   7   4    8.27    0.75
   0   7   4    8.61    0.85
   0   7   5    4.96    0.61
   0   7   5    5.30    0.71
   0   7   6    4.02    0.62
   0   7   6    3.52    0.56
   0   7   7    2.20    0.50
   0   7   7    2.17    0.43
   0   7   8    9.25    0.52
   0   8   4    3.29    0.37
   0   8   5    0.79    0.24
   1   0 -14    1.45    0.31
   1   0 -14    1.19    0.25
   1   0 -14    1.24    0.30
  -1   0  14    1.16    0.25
   1   0 -14    1.16    0.28
   1   0 -13   48.91    1.43
   1   0 -13   46.29    1.47
   1   0 -13   46.64    1.40
   1   0 -13   48.03    1.37
  -1   0  13   43.82    1.33
   1   0 -12    1.44    0.55
   1   0 -12    1.94    0.62
   1   0 -12    1.22    0.45
  -1   0  12    2.22    0.58
   1   0 -12    1.61    0.66
   1   0 -12    1.54    0.62
   1   0 -11   79.88    2.24
   1   0 -11   78.83    2.22
   1   0 -11   80.40    2.01
   1   0 -11   78.89    2.26
  -1   0  11   76.92    2.23
   1   0 -11   78.07    2.05
  -1   0  11   76.74    2.15
   1   0 -11   73.90    2.31
   1   0 -10  230.90    3.88
   1   0 -10  231.47    3.55
   1   0 -10  225.14    3.61
   1   0 -10  236.89    3.89
  -1   0  10  233.61    3.44
   1   0 -10  232.92    3.95
   1   0 -10  230.12    3.76
  -1   0  10  233.95    3.83
  -1   0  10  225.95    3.82
  -1   0   9   60.05    1.79
  -1   0   9   61.45    1.77
   1   0  -9   61.28    1.95
   1   0  -9   61.99    1.98
   1   0  -9   64.21    1.97
   1   0  -9   62.07    1.83
   1   0  -9   62.23    1.88
   1   0  -9   61.85    1.99
  -1   0   9   64.97    1.83
  -1   0   9   64.06    2.02
  -1   0   9   61.59    1.97
   1   0  -8   67.00    1.95
  -1   0   8   68.76    1.91
   1   0  -8   68.11    1.85
   1   0  -8   68.05    1.86
  -1   0   8   67.51    1.70
   1   0  -8   66.36    1.90
   1   0  -8   71.81    1.96
  -1   0   8   65.89    1.71
   1   0  -8   66.32    1.77
  -1   0   8   70.59    1.78
  -1   0   8   66.95    1.90
  -1   0   7   22.34    0.93
   1   0  -7   22.90    0.97
  -1   0   7   21.01    0.91
  -1   0   6  170.69    2.28
   1   0  -6  167.34    2.26
  -1   0   6  173.99    2.22
  -1   0   5  248.83    2.37
   1   0  -5  244.41    2.16
   1   0  -5  247.68    2.46
   1   0  -4  408.21    2.90
  -1   0   4  403.00    2.90
   1   0  -4  402.64    2.62
   1   0  -3   37.74    0.76
  -1   0   3   34.96    0.64
  -1   0   3   37.32    0.74
   1   0  -3   34.95    0.65
  -1   0   2 2805.22    9.14
  -1   0   2 2825.38    9.30
   1   0  -1 5321.23   15.76
  -1   0   1 5374.30   16.10
   1   0   0 3410.16    9.83
  -1   0   0 3392.87    9.84
   1   0   0 3254.82    9.72
  -1   0   0 3347.49    9.86
   1   0   0 3220.94    9.85
  -1   0   0 3374.54    9.70
   1   0   1 4235.81   13.44
  -1   0  -1 4243.42   13.41
   1   0   1 4219.04   13.73
  -1   0  -3 9329.97   28.46
  -1   0  -4  202.17    1.84
   1   0   4  201.09    2.04
   1   0   5  488.54    3.51
   1   0   5  479.31    3.59
  -1   0  -6  677.52    4.52
   1   0   6  680.76    4.71
   1   0   6  685.47    4.71
  -1   0  -7   10.93    0.68
   1   0   7   11.26    0.71
   1   0   7   10.79    0.72
   1   0   7   11.24    0.68
   1   0   8    7.28    0.72
   1   0   8    6.83    0.72
  -1   0  -8    6.67    0.74
   1   0   8    7.18    0.69
   1   0   8    6.99    0.67
   1   0   8    7.26    0.64
  -1   0  -8    7.15    0.62
   1   0   8    7.69    0.75
  -1   0  -9    2.82    0.63
   1   0   9    2.96    0.65
   1   0   9    2.92    0.59
   1   0   9    3.59    0.62
   1   0   9    2.93    0.60
   1   0   9    2.84    0.60
  -1   0  -9    3.18    0.68
  -1   0 -10    0.61    0.63
   1   0  10    0.71    0.48
  -1   0 -10    0.37    0.53
   1   0  10    0.46    0.47
   1   0  10    0.37    0.54
   1   0  10    0.34    0.50
  -1   0 -11   28.53    1.35
   1   0  11   30.33    1.47
  -1   0 -11   29.93    1.51
  -1   0 -11   30.29    1.41
   1   0  11   29.63    1.21
   1   0  11   31.06    1.29
   1   0  11   30.25    1.42
  -1   0 -11   32.94    1.49
  -1   0 -12   19.58    1.02
   1   0  12   20.04    1.07
  -1   0 -12   23.19    1.24
  -1   0 -12   20.88    1.07
   1   0  12   21.13    1.12
   1   0  12   20.41    0.92
  -1   0 -12   23.32    1.21
  -1   0 -13   10.66    0.76
   1   0  13   10.30    0.70
  -1   0 -13   10.48    0.74
  -1   0 -13   11.25    0.75
  -1   0 -13   10.22    0.62
  -1   0 -14    8.68    0.46
  -1   0 -14    8.89    0.45
  -1   0 -14    9.49    0.49
   1  -1 -14    1.09    0.26
   1   1 -14    0.86    0.22
   1   1 -14    1.09    0.27
   1  -1 -14    0.96    0.27
   1  -1 -14    0.93    0.24
  -1  -1  13   39.68    1.17
   1   1 -13   41.85    1.13
   1  -1 -13   39.97    1.32
   1  -1 -13   45.18    1.30
   1   1 -13   39.66    1.26
   1  -1 -13   40.36    1.23
   1  -1 -13   41.20    1.32
   1   1 -13   39.63    1.17
   1  -1 -13   40.98    1.06
   1  -1 -12   14.53    0.98
   1   1 -12   12.87    0.96
   1  -1 -12   12.58    0.99
   1  -1 -12   13.01    0.93
   1   1 -12   12.26    0.87
  -1  -1  12   12.03    0.87
   1  -1 -12   13.48    1.01
   1  -1 -12   12.43    0.87
  -1   1  11  359.52    4.73
   1   1 -11  356.79    4.53
   1  -1 -11  343.68    4.53
   1   1 -11  364.98    4.79
  -1  -1  11  348.29    4.52
   1  -1 -11  362.41    4.77
   1  -1 -11  356.16    4.82
   1  -1 -11  358.28    4.53
   1   1 -11  353.08    4.44
  -1   1  11  356.94    4.32
   1   1 -10  146.13    3.12
  -1   1  10  150.40    3.16
  -1  -1  10  149.75    2.96
   1  -1 -10  149.28    3.19
   1   1 -10  147.11    2.93
   1  -1 -10  151.39    3.01
   1  -1 -10  145.05    3.08
  -1   1  10  150.71    2.93
   1  -1 -10  149.43    3.04
  -1   1  10  152.06    2.68
   1   1 -10  150.57    3.02
  -1  -1  10  150.83    3.04
  -1  -1   9   42.35    1.64
   1  -1  -9   40.82    1.58
  -1  -1   9   42.07    1.44
   1   1  -9   44.07    1.50
   1  -1  -9   41.15    1.59
   1  -1  -9   41.38    1.58
   1  -1  -9   41.21    1.70
  -1  -1   9   40.94    1.57
   1   1  -9   40.94    1.57
  -1  -1   9   44.94    1.62
  -1   1   9   43.16    1.67
  -1   1   9   41.29    1.43
   1   1  -9   41.07    1.65
   1   1  -9   43.14    1.65
  -1   1   9   42.74    1.58
  -1   1   9   41.17    1.51
  -1  -1   8  253.24    3.23
  -1  -1   8  257.74    3.63
   1  -1  -8  249.14    3.51
  -1   1   8  237.41    3.08
   1   1  -8  242.30    3.66
   1   1  -8  238.17    3.12
   1   1  -8  245.23    3.64
  -1  -1   8  253.32    3.67
   1  -1  -8  244.86    3.50
   1   1  -8  252.89    3.34
   1  -1  -8  245.88    3.73
  -1   1   8  245.46    3.68
  -1   1   8  246.69    3.49
  -1   1   8  249.03    3.31
  -1  -1   8  243.82    3.52
   1  -1  -8  241.14    3.57
  -1   1   8  242.54    3.35
   1   1  -8  245.56    3.49
   1   1  -7  567.21    4.57
   1  -1  -7  559.98    4.94
  -1  -1   7  561.07    5.04
  -1   1   7  565.88    4.83
  -1  -1   7  572.80    4.57
   1  -1  -7  558.98    4.52
  -1   1   6  261.42    2.89
  -1  -1   6  240.05    2.59
  -1   1   6  251.25    2.64
   1  -1  -6  249.08    2.95
   1   1  -6  256.02    2.72
  -1  -1   6  256.16    3.03
   1  -1  -6  247.18    2.70
  -1   1   5  228.62    2.44
   1   1  -5  230.85    1.77
  -1  -1   5  237.31    2.60
   1  -1  -5  226.64    2.51
   1  -1  -5  233.71    2.41
   1   1  -5  233.04    2.33
  -1   1   4 1035.38    4.89
   1   1  -4 1011.16    4.32
   1  -1  -4 1049.05    5.28
  -1  -1   4 1027.20    4.26
   1   1  -4 1019.04    4.99
   1   1  -3  991.28    3.78
  -1  -1   3  990.64    3.66
   1  -1  -3 1010.55    4.84
  -1   1   3 1015.60    4.38
  -1   1   3  990.43    4.64
   1   1  -3 1024.25    4.04
   1   1  -2 1747.63    6.44
  -1  -1   2 1748.34    6.64
  -1  -1   2 1718.18    5.33
   1   1  -2 1762.60    6.05
   1  -1  -2 1780.89    6.58
  -1   1   2 1760.16    6.22
  -1   1   2 1695.21    6.49
  -1  -1   2 1798.08    6.06
  -1  -1   1 7164.00   21.24
  -1   1   1 7153.06   21.34
  -1   1   0 5423.10   15.92
  -1  -1   0 5412.32   15.83
  -1   1  -1 6988.27   21.01
   1   1   1 7443.95   21.11
  -1  -1  -1 7080.67   20.91
   1  -1   1 7222.15   21.20
   1  -1   1 7282.86   21.03
   1   1   2 1011.80    4.25
  -1  -1  -2 1003.93    4.15
   1   1   2  990.29    4.40
  -1   1  -2 1031.70    3.96
   1  -1   2 1035.21    3.31
   1  -1   2  995.80    4.41
  -1  -1  -3 1350.18    5.77
  -1   1  -3 1394.49    5.00
   1   1   3 1405.31    5.18
   1   1   3 1426.99    6.04
   1  -1   3 1370.69    5.22
   1  -1   3 1349.82    6.11
  -1  -1  -3 1386.52    6.08
  -1  -1  -4   23.21    0.73
  -1  -1  -4   23.40    0.69
   1  -1   4   22.83    0.75
   1   1   4   23.97    0.57
   1  -1   5 1158.01    6.20
  -1   1  -5 1139.16    5.31
   1   1   5 1168.49    5.51
  -1  -1  -5 1128.79    6.18
   1   1   5 1170.01    6.34
  -1   1  -6  255.91    2.39
   1  -1   6  248.36    2.73
   1   1   6  254.44    2.98
  -1  -1  -6  247.30    2.86
   1  -1   6  254.54    2.99
   1   1   6  250.99    2.50
   1   1   7  815.82    6.38
   1   1   7  817.06    6.45
   1   1   7  808.55    5.26
  -1  -1  -7  773.05    6.29
  -1   1  -7  781.10    6.36
  -1  -1  -7  808.62    5.37
  -1   1  -7  785.00    6.46
  -1  -1  -7  770.65    5.88
   1  -1   7  807.20    6.10
   1  -1   7  831.86    5.63
   1   1   7  737.05    5.81
   1   1   7  788.83    6.19
  -1   1  -8  131.91    2.75
   1  -1   8  137.21    2.70
  -1  -1  -8  134.60    2.57
  -1  -1  -8  136.26    2.54
   1  -1   8  132.88    2.53
   1  -1   8  139.73    2.69
  -1   1  -8  135.67    2.76
  -1  -1  -8  138.29    2.78
  -1   1  -8  132.53    2.62
   1   1   8  136.93    2.75
   1   1   8  131.34    2.67
   1  -1   8  133.35    2.57
  -1   1  -8  130.59    2.54
   1  -1   8  138.81    2.36
   1   1   8  134.21    2.56
   1  -1   8  139.58    2.44
  -1  -1  -9  136.75    2.72
   1   1   9  135.71    2.83
   1  -1   9  137.66    2.79
   1   1   9  133.97    2.69
   1  -1   9  134.53    2.71
  -1  -1  -9  137.14    2.74
  -1   1  -9  139.15    2.72
  -1   1  -9  136.20    2.92
   1   1   9  134.55    2.89
   1  -1   9  136.67    2.88
   1  -1   9  136.07    2.49
   1  -1   9  132.50    2.76
  -1  -1  -9  137.70    2.94
  -1   1  -9  138.52    2.89
  -1   1  -9  134.82    2.98
  -1   1 -10   81.13    2.37
   1  -1  10   76.29    2.21
  -1   1 -10   79.62    2.29
  -1   1 -10   82.53    2.31
   1   1  10   77.93    2.27
   1   1  10   79.04    2.08
  -1   1 -10   78.68    2.22
   1   1  10   76.59    2.15
   1  -1  10   75.14    2.13
  -1   1 -10   78.52    2.07
  -1  -1 -10   80.38    2.10
  -1  -1 -10   83.23    2.36
  -1   1 -11  250.22    3.83
   1   1  11  241.72    3.84
  -1   1 -11  252.76    3.93
   1   1  11  242.34    3.60
  -1  -1 -11  246.35    3.84
   1  -1  11  236.96    3.62
  -1   1 -11  240.37    3.42
   1   1  11  248.07    3.46
   1  -1  11  242.42    3.70
  -1  -1 -11  250.02    3.93
  -1   1 -11  247.87    3.92
  -1  -1 -11  228.65    3.88
  -1   1 -11  253.45    3.81
   1   1  12   46.47    1.57
  -1   1 -12   44.02    1.54
   1   1  12   42.32    1.29
   1  -1  12   41.07    1.37
   1   1  12   45.45    1.59
  -1   1 -12   45.84    1.55
  -1   1 -12   43.99    1.51
  -1   1 -12   46.15    1.64
   1  -1  12   45.71    1.50
  -1  -1 -12   43.85    1.56
  -1   1 -12   42.46    1.27
   1   1  12   42.35    1.39
  -1  -1 -12   47.00    1.60
  -1  -1 -13   37.14    1.16
   1   1  13   36.18    1.17
  -1   1 -13   36.17    1.12
   1  -1  13   35.62    1.09
  -1   1 -13   36.01    1.14
  -1   1 -13   38.37    1.24
  -1   1 -13   40.50    1.21
  -1  -1 -13   38.87    1.23
   1   1  14    3.80    0.31
  -1   1 -14    3.66    0.33
   1  -2 -14    5.26    0.33
   1  -2 -13   21.53    0.89
  -1   2  13   22.74    0.90
   1   2 -13   21.17    0.75
   1  -2 -13   21.42    0.84
   1   2 -13   23.69    0.94
   1   2 -13   23.17    0.94
   1  -2 -13   21.31    0.81
   1  -2 -12   13.36    0.85
  -1   2  12   11.64    0.67
  -1  -2  12   11.35    0.72
   1   2 -12   11.94    0.80
   1  -2 -12   11.99    0.87
   1  -2 -12   12.42    0.90
   1   2 -12   13.32    0.93
   1  -2 -12   11.44    0.77
   1   2 -12   13.26    0.96
  -1   2  12   11.46    0.83
   1  -2 -11   34.25    1.42
   1   2 -11   32.98    1.29
  -1   2  11   35.37    1.49
   1   2 -11   33.05    1.41
   1  -2 -11   36.21    1.56
   1   2 -11   34.33    1.53
   1   2 -11   35.65    1.56
  -1   2  11   34.84    1.31
   1  -2 -11   33.27    1.37
  -1  -2  11   34.39    1.35
   1  -2 -11   31.52    1.49
  -1   2  11   32.72    1.42
   1   2 -11   37.25    1.53
   1  -2 -10   28.12    1.35
   1   2 -10   28.82    1.28
   1   2 -10   28.78    1.44
   1  -2 -10   30.28    1.48
  -1  -2  10   29.11    1.32
   1   2 -10   30.46    1.49
  -1   2  10   29.32    1.45
   1   2 -10   26.26    1.31
   1  -2 -10   26.24    1.31
  -1   2  10   28.41    1.43
   1  -2 -10   27.82    1.44
  -1   2  10   27.45    1.33
  -1   2  10   28.89    1.29
   1   2 -10   29.46    1.48
   1   2  -9  370.51    4.87
  -1   2   9  363.39    4.83
  -1  -2   9  359.88    4.48
   1  -2  -9  358.54    4.55
  -1   2   9  356.96    4.38
   1  -2  -9  356.65    4.80
   1  -2  -9  363.91    4.82
  -1   2   9  363.05    4.81
   1   2  -9  358.36    4.66
  -1   2   9  358.77    4.25
   1  -2  -9  358.98    4.50
  -1   2   9  352.85    4.63
   1   2  -9  361.11    4.85
   1   2  -9  357.27    4.36
  -1  -2   9  357.49    4.82
  -1   2   9  358.15    4.68
   1   2  -9  351.28    4.53
   1   2  -8   62.72    1.95
  -1  -2   8   64.77    1.93
   1  -2  -8   61.44    1.77
  -1   2   8   61.66    1.86
   1   2  -8   60.59    1.71
   1  -2  -8   59.51    1.86
  -1   2   8   62.92    1.92
  -1   2   8   60.07    1.87
   1   2  -8   62.18    1.92
  -1  -2   8   62.68    1.80
  -1   2   8   60.04    1.84
  -1   2   8   61.39    1.73
   1  -2  -8   63.63    1.85
   1   2  -8   60.37    1.86
   1  -2  -8   63.28    1.95
   1   2  -8   62.74    1.84
  -1   2   8   61.85    1.78
  -1  -2   8   63.48    1.62
   1   2  -7  399.76    4.38
   1   2  -7  413.37    4.46
   1  -2  -7  414.06    4.30
   1   2  -7  403.49    4.58
   1   2  -7  403.17    4.33
   1  -2  -7  416.17    4.55
  -1  -2   7  412.64    3.86
   1  -2  -7  425.18    4.71
  -1   2   7  416.06    4.61
  -1   2   7  424.98    4.34
  -1   2   7  422.15    4.46
  -1   2   7  419.01    4.54
   1   2  -7  416.05    4.46
  -1   2   7  409.67    4.34
  -1   2   7  423.92    4.58
  -1   2   6  381.07    3.09
  -1   2   6  374.74    3.83
   1  -2  -6  384.92    3.88
  -1  -2   5  732.33    3.59
   1  -2  -5  746.88    5.29
  -1  -2   5  749.99    5.26
  -1  -2   4 1579.37    7.69
  -1   2   4 1508.70    7.00
  -1   2   4 1570.37    6.33
   1  -2  -4 1511.50    7.61
  -1  -2   4 1570.30    5.81
  -1   2   3 1223.57    5.42
  -1   2   3 1219.60    4.97
  -1  -2   3 1190.92    4.60
   1  -2  -3 1206.01    5.95
  -1  -2   3 1186.20    5.92
  -1  -2   2   14.45    0.32
  -1   2   2   14.01    0.53
  -1   2   2   15.20    0.47
   1  -2  -2   14.92    0.55
  -1  -2   2   14.30    0.30
  -1  -2   1  298.43    1.96
  -1  -2   1  295.12    1.78
   1  -2  -1  291.41    2.02
  -1   2   1  296.76    2.02
   1   2   0 1633.68    5.58
  -1   2   0 1589.72    6.06
  -1   2   0 1563.17    6.25
  -1  -2   0 1600.10    5.16
  -1  -2   0 1613.73    5.90
   1  -2   0 1586.47    5.07
  -1   2  -1  473.19    2.87
   1  -2   1  494.99    2.79
  -1  -2  -1  463.33    2.55
   1   2   1  488.05    2.65
   1   2   2 3402.87   11.39
   1  -2   2 3295.99    9.83
  -1   2  -2 3219.34   11.72
   1   2   2 3296.58    9.64
   1  -2   2 3240.47   10.83
   1  -2   2 3389.12   10.02
   1  -2   2 3454.27   11.63
  -1  -2  -2 3450.27   10.86
   1   2   3 1104.04    5.44
   1  -2   3 1119.77    5.48
  -1  -2  -3 1116.28    4.82
   1  -2   4  228.97    1.54
   1   2   4  224.52    2.40
  -1  -2  -4  227.65    2.05
  -1  -2  -5  402.72    3.74
   1  -2   5  401.74    3.57
   1  -2   6  598.13    4.60
  -1  -2  -6  562.95    4.86
   1  -2   6  551.23    4.92
   1   2   6  590.54    4.93
   1   2   7   82.59    2.03
  -1   2  -7   80.61    2.01
   1   2   7   85.55    1.98
   1   2   7   85.46    2.07
   1  -2   7   83.92    1.97
   1   2   7   83.88    2.06
   1   2   7   84.52    1.98
   1   2   7   85.87    1.93
  -1   2  -7   84.36    2.01
  -1   2  -7   82.44    1.95
  -1   2  -7   80.04    2.02
   1   2   7   79.80    2.02
   1  -2   7   79.10    2.00
  -1   2  -7   79.08    2.07
  -1  -2  -7   82.62    2.03
   1  -2   7   84.65    1.74
  -1   2  -8  149.70    2.91
   1  -2   8  159.26    2.93
  -1   2  -8  154.97    2.87
   1   2   8  155.04    2.99
   1   2   8  155.46    2.89
  -1  -2  -8  148.45    2.92
   1   2   8  156.84    2.98
  -1   2  -8  156.66    2.87
   1   2   8  152.03    2.87
  -1  -2  -8  149.92    2.90
   1  -2   8  146.67    2.90
  -1   2  -8  153.20    2.85
   1   2   9   60.07    1.93
   1  -2   9   54.08    1.78
  -1   2  -9   58.23    1.88
  -1   2  -9   58.76    1.96
  -1   2  -9   59.51    1.91
  -1   2  -9   58.82    1.80
   1   2   9   59.03    1.87
  -1   2  -9   60.49    1.89
  -1  -2  -9   55.90    1.88
   1   2   9   60.00    1.94
   1   2   9   55.08    1.93
  -1  -2  -9   56.69    1.89
   1  -2   9   60.05    1.91
   1  -2   9   55.75    1.96
   1   2   9   58.75    1.95
   1  -2   9   58.46    1.79
  -1   2 -10    0.44    0.67
   1   2  10    0.37    0.53
   1   2  10    0.08    0.54
   1   2  10    0.21    0.56
  -1   2 -10    0.43    0.60
   1   2  10    0.58    0.50
   1  -2  10    0.48    0.43
  -1   2 -10   -0.06    0.53
   1  -2  10    0.07    0.37
  -1   2 -10    0.30    0.47
  -1  -2 -10    0.03    0.56
   1   2  10    0.38    0.49
  -1   2 -11   12.08    0.92
   1  -2  11   11.18    0.85
  -1  -2 -11   12.12    0.93
  -1   2 -11   11.40    0.96
  -1  -2 -11   12.62    1.00
   1   2  11   11.80    0.89
  -1   2 -11   11.88    0.99
   1   2  11   10.66    0.96
   1   2  11   11.44    0.82
   1   2  11   11.45    0.93
  -1  -2 -11   11.88    0.97
   1   2  11   12.32    0.91
  -1   2 -11   10.97    0.88
   1   2  12   37.75    1.37
  -1   2 -12   37.23    1.40
  -1   2 -12   38.69    1.31
  -1  -2 -12   37.12    1.30
  -1  -2 -12   39.51    1.44
  -1   2 -12   34.41    1.20
   1   2  12   36.05    1.28
  -1  -2 -12   39.30    1.40
   1   2  12   38.40    1.35
  -1   2 -12   40.04    1.44
   1   2  12   38.65    1.23
  -1  -2 -12   37.77    1.41
   1  -2  12   35.42    1.17
  -1   2 -13   16.13    0.70
  -1   2 -13   15.82    0.76
  -1  -2 -13   15.44    0.75
  -1  -2 -13   16.08    0.69
  -1  -2 -13   17.76    0.79
   1   2  13   16.25    0.72
   1   2  13   14.48    0.56
  -1  -2 -13   16.62    0.80
  -1   3  13    0.46    0.27
   1   3 -13    0.48    0.27
   1  -3 -13    0.14    0.27
   1  -3 -13    0.28    0.24
   1   3 -13    0.12    0.25
   1  -3 -13    0.34    0.26
  -1   3  12    3.16    0.42
   1   3 -12    3.11    0.54
  -1   3  12    2.37    0.46
   1  -3 -12    2.84    0.45
   1  -3 -12    2.86    0.46
   1   3 -12    3.55    0.54
   1  -3 -12    2.74    0.52
  -1   3  11   49.83    1.38
   1  -3 -11   50.76    1.63
  -1   3  11   48.78    1.59
  -1   3  11   50.19    1.52
   1  -3 -11   57.54    1.80
   1  -3 -11   52.21    1.53
   1   3 -11   56.67    1.75
   1   3 -11   54.51    1.75
  -1   3  10   34.87    1.43
   1   3 -10   33.15    1.49
   1   3 -10   37.90    1.59
   1  -3 -10   34.82    1.53
  -1   3  10   35.02    1.37
  -1   3  10   34.03    1.46
  -1   3  10   35.08    1.55
   1  -3 -10   36.52    1.55
   1  -3 -10   35.49    1.42
  -1   3   9  122.83    2.72
   1   3  -9  115.80    2.68
   1  -3  -9  120.95    2.75
  -1   3   9  117.01    2.46
   1   3  -9  119.53    2.73
   1   3  -9  122.14    2.87
   1  -3  -9  117.52    2.51
  -1   3   9  119.70    2.77
  -1   3   9  121.02    2.63
  -1   3   9  118.12    2.54
  -1  -3   8  132.96    2.94
  -1   3   8  129.02    2.78
  -1   3   8  133.36    2.72
   1  -3  -8  127.73    2.79
   1   3  -8  137.71    2.81
   1   3  -8  126.22    2.74
   1   3  -8  133.68    2.90
   1   3  -8  133.02    2.82
   1  -3  -8  134.53    2.86
  -1   3   8  130.83    2.72
  -1   3   8  130.17    2.64
  -1   3   8  133.93    2.76
  -1   3   7   58.57    1.74
   1   3  -7   55.35    1.75
   1   3  -7   54.62    1.81
   1   3  -7   57.32    1.82
  -1  -3   7   56.10    1.80
   1  -3  -7   54.75    1.76
  -1   3   7   60.24    1.79
  -1   3   7   55.30    1.70
   1   3  -7   57.62    1.77
  -1   3   7   58.93    1.79
  -1   3   7   56.32    1.81
   1   3  -7   58.12    1.79
  -1   3   7   57.25    1.79
  -1  -3   6    8.31    0.74
   1   3  -6    5.78    0.68
  -1   3   6    5.46    0.60
   1  -3  -6    5.69    0.66
   1   3  -6    5.62    0.67
   1   3  -6    5.41    0.72
   1  -3  -6    6.69    0.71
  -1   3   6    5.07    0.62
   1   3  -6    5.58    0.62
  -1   3   6    5.52    0.65
  -1   3   6    6.76    0.70
  -1   3   6    5.65    0.60
   1   3  -6    6.14    0.64
  -1   3   6    5.51    0.63
   1  -3  -5  191.37    2.89
  -1   3   5  186.78    2.24
  -1   3   5  191.77    2.75
  -1  -3   5  188.73    2.74
   1  -3  -5  184.49    2.77
  -1  -3   4  268.44    3.00
  -1   3   4  258.43    2.99
   1  -3  -4  263.44    3.03
  -1  -3   3  156.57    2.04
  -1   3   3  154.57    1.74
  -1  -3   3  147.74    1.41
   1  -3  -3  154.71    2.12
  -1   3   3  147.31    2.09
  -1   3   2 2259.02    9.78
  -1  -3   2 2255.26    8.13
  -1  -3   2 2233.07    9.07
   1  -3  -2 2261.60    9.45
  -1   3   2 2224.41    8.59
  -1  -3   1   21.28    0.57
  -1   3   1   21.98    0.63
   1  -3  -1   21.09    0.66
  -1   3   1   19.84    0.73
   1   3   0 1260.49    5.61
  -1  -3   0 1241.13    4.70
  -1  -3  -1   24.78    0.58
  -1   3  -1   24.24    0.71
   1   3   1   24.06    0.67
  -1  -3  -2  131.50    1.29
   1   3   2  123.44    1.63
   1  -3   2  121.80    1.20
   1  -3   2  134.58    1.75
   1  -3   2  129.41    1.50
   1   3   3 1284.24    6.67
   1  -3   3 1265.38    6.60
   1   3   4  101.41    1.78
   1  -3   4   98.35    1.74
   1   3   5  327.04    3.56
   1  -3   5  331.17    3.42
   1   3   6   34.50    1.36
  -1   3  -6   34.37    1.25
   1   3   6   35.17    1.37
   1  -3   6   35.07    1.18
   1   3   6   36.60    1.32
  -1  -3  -6   33.96    1.37
  -1   3  -6   31.27    1.31
   1   3   6   35.06    1.38
  -1   3  -6   33.63    1.40
   1   3   6   34.62    1.34
   1   3   6   34.59    1.25
   1   3   6   33.90    1.26
   1  -3   6   34.68    1.34
  -1   3  -6   33.68    1.37
   1   3   7  368.63    4.34
  -1   3  -7  379.09    4.63
   1   3   7  369.17    4.25
   1   3   7  377.65    4.46
   1   3   7  380.81    4.54
   1   3   7  371.32    4.49
  -1   3  -7  364.86    4.31
  -1   3  -7  374.58    4.66
  -1   3  -7  354.14    4.21
  -1  -3  -7  368.78    4.63
   1  -3   7  375.34    4.66
  -1  -3  -7  371.30    4.44
   1   3   7  374.91    4.62
  -1   3  -8   65.67    2.05
  -1   3  -8   65.31    1.92
   1   3   8   66.15    2.03
   1   3   8   66.41    2.06
   1   3   8   66.68    2.03
  -1  -3  -8   64.23    1.96
   1   3   8   67.16    2.05
   1   3   8   65.75    1.93
  -1   3  -8   64.70    1.94
  -1   3  -8   65.29    2.11
   1   3   8   64.79    1.89
  -1  -3  -8   66.14    1.98
  -1  -3  -8   62.70    2.04
   1   3   8   66.87    2.01
   1   3   9  198.16    3.17
  -1   3  -9  205.82    3.71
  -1  -3  -9  203.72    3.43
   1   3   9  206.22    3.44
  -1   3  -9  210.44    3.53
  -1   3  -9  203.22    3.45
   1   3   9  204.72    3.52
   1   3   9  214.22    3.60
   1   3   9  202.04    3.47
  -1   3  -9  209.30    3.43
   1   3   9  208.57    3.59
  -1   3  -9  200.69    3.50
   1   3  10  113.32    2.44
   1   3  10  115.24    2.53
   1   3  10  115.19    2.50
  -1   3 -10  118.75    2.51
  -1   3 -10  115.34    2.52
  -1   3 -10  116.57    2.76
  -1  -3 -10  111.41    2.47
  -1  -3 -10  117.44    2.63
   1   3  10  116.38    2.63
  -1  -3 -11   11.10    0.79
  -1  -3 -11   13.08    0.93
   1   3  11   11.78    0.80
   1   3  11   11.78    0.85
  -1   3 -11   12.11    1.01
   1   3  11   10.42    0.78
   1   3  11   11.98    0.85
  -1   3 -11   11.18    0.79
  -1   3 -11   11.13    0.84
  -1  -3 -11   11.85    0.87
   1   3  12    7.94    0.56
   1   3  12    7.20    0.50
  -1  -3 -12    8.02    0.67
  -1  -3 -12    6.65    0.51
  -1  -3 -12    7.30    0.67
  -1   3 -12    8.18    0.56
  -1   3 -12    8.19    0.60
   1   3  12    7.24    0.64
   1   3  12    7.80    0.59
  -1  -3 -12    7.42    0.60
  -1  -3 -13    4.21    0.35
   1   3  13    3.87    0.27
   1   4 -12    1.77    0.33
   1   4 -12    1.84    0.28
   1  -4 -12    1.81    0.35
   1  -4 -11   14.12    0.86
   1   4 -11   12.97    0.78
  -1   4  11   15.03    0.82
   1   4 -11   15.75    0.86
  -1   4  11   14.31    0.76
  -1   4  10   55.65    1.54
   1  -4 -10   57.29    1.54
   1   4 -10   59.31    1.76
   1   4 -10   56.54    1.68
   1  -4 -10   59.04    1.78
  -1   4  10   58.76    1.71
  -1   4  10   54.57    1.55
  -1   4  10   56.35    1.65
  -1   4   9   80.31    1.99
  -1   4   9   82.82    2.14
  -1   4   9   84.60    2.23
   1  -4  -9   80.65    1.99
   1   4  -9   84.23    2.22
  -1   4   9   83.60    2.19
   1   4  -9   83.61    2.15
   1  -4  -9   87.11    2.25
   1   4  -8  221.27    3.52
  -1   4   8  207.29    3.47
  -1   4   8  212.51    3.59
  -1   4   8  219.71    3.71
   1   4  -8  218.22    3.71
   1   4  -8  207.25    3.39
  -1   4   8  218.43    3.53
   1   4  -8  207.64    3.49
  -1  -4   7  235.51    3.85
  -1   4   7  232.36    3.70
   1   4  -7  231.32    3.77
  -1   4   7  236.40    3.88
   1  -4  -7  228.51    3.92
  -1   4   7  236.60    3.70
   1   4  -7  243.30    3.65
   1   4  -7  234.28    3.68
  -1   4   7  228.62    3.75
  -1   4   7  228.50    3.72
   1  -4  -7  228.55    3.90
   1   4  -7  226.41    3.50
  -1   4   6  179.53    3.23
   1  -4  -6  179.26    3.25
  -1   4   6  184.10    3.22
  -1  -4   6  180.31    3.18
   1  -4  -6  180.61    3.35
  -1   4   6  184.76    3.24
   1   4  -6  184.92    3.19
   1   4  -6  178.02    3.03
  -1   4   6  180.45    3.15
   1   4  -6  179.04    3.08
  -1   4   5    7.41    0.73
  -1   4   5    7.92    0.70
   1   4  -5    7.47    0.72
   1  -4  -5    8.70    0.80
  -1  -4   5    7.98    0.69
  -1   4   5    7.36    0.77
   1   4  -5    8.08    0.79
   1   4  -5    7.38    0.69
  -1   4   5    7.89    0.75
  -1   4   4  188.42    3.03
  -1  -4   4  181.16    2.69
  -1   4   4  185.81    2.91
   1   4  -4  190.85    3.07
   1   4  -4  187.47    2.79
  -1   4   4  184.63    2.93
   1  -4  -4  181.66    2.83
  -1   4   4  194.50    2.95
  -1   4   4  181.56    2.82
  -1  -4   3  273.32    3.03
   1  -4  -3  268.52    3.26
  -1   4   2  167.93    2.43
  -1  -4   2  163.66    2.06
   1  -4  -2  164.68    2.36
   1  -4  -1   33.73    0.98
  -1  -4   1   34.68    0.93
  -1   4   1   32.41    1.05
  -1   4   1   32.63    0.82
  -1   4   0  169.06    1.98
   1  -4   0  171.91    2.05
   1  -4   1  599.62    4.74
   1  -4   1  610.89    4.39
   1  -4   1  611.09    4.15
   1  -4   2  464.92    3.56
   1   4   2  465.12    3.87
   1  -4   2  472.63    4.01
   1  -4   3  227.21    2.77
  -1  -4  -3  235.20    3.17
  -1  -4  -4   25.60    1.17
   1  -4   4   26.22    1.05
   1   4   4   26.16    1.18
   1   4   4   25.58    1.13
  -1   4  -4   26.29    1.03
  -1   4  -4   26.04    1.17
  -1   4  -4   26.64    1.22
   1   4   4   26.95    1.06
   1   4   4   27.55    1.23
   1   4   5  200.15    3.31
   1   4   5  209.66    3.16
   1   4   5  205.51    3.15
  -1   4  -5  211.76    3.24
   1  -4   5  205.24    3.23
  -1   4  -5  203.00    3.11
  -1  -4  -5  208.28    3.44
   1   4   5  213.28    3.38
  -1   4  -5  205.96    3.41
  -1   4  -5  209.33    2.92
   1   4   5  204.37    3.23
  -1   4  -6   53.11    1.79
  -1   4  -6   51.62    1.73
   1   4   6   53.36    1.79
   1  -4   6   50.34    1.75
  -1   4  -6   54.39    1.58
   1   4   6   53.04    1.81
   1   4   6   52.85    1.78
   1   4   6   53.00    1.72
   1   4   6   50.02    1.81
  -1   4  -7    3.68    0.83
  -1   4  -7    4.00    0.69
   1   4   7    4.10    0.63
   1   4   7    4.59    0.79
  -1   4  -7    3.54    0.85
  -1  -4  -7    4.08    0.72
   1  -4   7    4.70    0.71
   1   4   7    3.89    0.76
   1   4   7    3.93    0.68
   1   4   8   15.10    1.09
   1   4   8   13.86    0.95
   1   4   8   14.06    1.08
  -1   4  -8   14.93    1.19
  -1   4  -8   14.00    1.12
  -1   4  -8   13.84    1.09
   1   4   8   14.08    1.10
   1   4   8   14.07    1.07
   1   4   9  168.45    3.20
  -1   4  -9  167.98    3.09
  -1   4  -9  177.99    3.23
   1   4   9  164.57    3.07
   1   4   9  166.28    2.90
  -1   4  -9  167.81    2.80
   1   4   9  158.54    2.84
  -1   4  -9  171.44    3.21
  -1   4 -10   16.65    0.88
   1   4  10   18.38    1.03
   1   4  10   18.83    1.09
  -1   4 -10   16.35    1.07
   1   4  10   18.42    1.07
   1   4  10   16.24    0.90
  -1  -4 -11   14.90    0.90
  -1  -4 -11   15.15    0.84
   1   4  11   14.77    0.79
   1   4  11   15.55    0.85
  -1  -4 -12   18.04    0.72
   1   4  12   19.34    0.67
  -1  -4 -12   16.56    0.61
   1   4  12   20.08    0.71
   1   4  12   14.97    0.53
  -1   5  11   13.76    0.58
  -1   5  11   15.72    0.67
  -1   5  10    9.85    0.71
  -1   5  10   10.76    0.77
   1   5 -10   10.68    0.67
  -1   5  10    9.87    0.69
  -1   5  10   10.35    0.73
   1   5  -9   16.74    0.95
  -1   5   9   16.32    0.97
  -1   5   9   17.79    1.04
  -1   5   9   17.18    1.00
  -1   5   9   16.62    1.00
   1   5  -8   32.56    1.34
  -1   5   8   29.11    1.38
  -1   5   8   30.92    1.38
   1   5  -8   31.46    1.36
  -1   5   8   27.98    1.38
  -1   5   7   65.14    2.04
   1   5  -7   66.25    1.93
  -1   5   7   66.85    2.01
   1   5  -7   67.90    1.95
  -1   5   7   66.74    2.08
  -1   5   6    6.17    0.80
  -1   5   6    6.94    0.80
   1   5  -6    5.91    0.79
   1   5  -6    6.64    0.75
  -1   5   5   13.23    0.96
   1   5  -5   12.04    0.95
  -1   5   5   12.43    1.03
  -1   5   5   13.21    0.94
   1   5  -5   13.41    0.94
  -1   5   5   13.18    0.99
   1  -5  -5   10.79    0.93
  -1   5   5   13.13    1.02
   1  -5  -5   11.49    1.06
  -1   5   4  212.56    3.45
  -1   5   4  216.61    3.46
   1  -5  -4  211.99    3.47
  -1   5   4  215.18    3.46
   1   5  -4  220.14    3.28
   1  -5  -4  212.90    3.77
  -1   5   4  218.73    3.40
  -1   5   4  215.87    3.56
  -1   5   3  185.88    3.10
   1  -5  -3  171.39    2.95
  -1   5   3  187.10    3.03
   1  -5  -3  184.73    3.35
  -1   5   3  183.43    3.08
  -1   5   3  176.95    3.13
  -1   5   3  192.18    3.10
   1   5  -3  180.84    2.87
  -1   5   2  158.17    2.69
   1   5  -2  156.44    2.59
   1  -5  -2  149.98    2.87
  -1   5   2  159.68    2.78
   1  -5  -2  152.90    2.61
  -1   5   2  156.50    2.81
   1  -5  -1  116.40    2.38
  -1   5   1  115.43    2.26
  -1   5   1  115.98    2.32
  -1   5   1  120.72    2.26
  -1   5   1  120.89    2.29
  -1   5   0   62.98    1.68
  -1   5   0   63.83    1.64
   1  -5   0   61.71    1.64
  -1   5   0   63.30    1.64
  -1   5  -1  113.45    2.14
   1   5   1  109.94    2.29
  -1   5  -1  107.77    2.22
  -1  -5  -2   86.11    2.13
  -1   5  -2   85.88    1.87
  -1   5  -2   82.98    2.07
   1  -5   2   88.90    1.93
   1   5   2   84.25    1.98
  -1   5  -2   87.24    2.05
   1   5   2   82.97    2.09
  -1   5  -3   94.60    2.29
   1   5   3  100.83    2.26
   1   5   3   97.56    2.18
  -1  -5  -3   99.68    2.35
  -1   5  -3   98.76    2.27
  -1   5  -3  101.62    2.06
   1   5   3  101.54    2.43
  -1  -5  -4  179.07    3.33
  -1   5  -4  189.86    2.80
   1   5   4  185.81    3.21
  -1   5  -4  190.50    3.19
   1   5   4  183.04    3.13
  -1   5  -4  183.94    3.30
   1   5   4  187.12    3.38
   1   5   5  235.42    3.78
  -1   5  -5  229.09    3.83
   1   5   5  229.18    3.79
   1   5   5  225.20    3.35
  -1  -5  -5  225.70    3.89
  -1   5  -5  231.39    3.21
  -1   5  -5  235.43    3.65
   1   5   5  233.82    3.68
  -1   5  -6   45.48    1.75
  -1   5  -6   44.98    1.83
   1   5   6   48.61    1.82
   1   5   6   42.26    1.58
   1   5   6   45.83    1.72
   1   5   7  183.24    3.38
   1   5   7  180.26    3.40
   1   5   7  177.16    3.16
  -1   5  -7  182.10    3.24
   1   5   7  185.16    3.35
  -1   5  -7  172.60    3.03
   1   5   8   18.17    1.12
   1   5   8   16.96    1.12
  -1   5  -8   18.19    1.15
   1   5   8   17.18    1.06
   1   5   9   36.41    1.39
   1   5   9   34.99    1.31
   1   5   9   35.22    1.24
  -1   5  -9   36.45    1.43
   1   5   9   34.11    1.39
   1   5  10   12.80    0.71
  -1  -5 -10   12.93    0.77
  -1  -5 -10   13.48    0.71
   1   5  10   12.19    0.72
   1   5  10   12.58    0.78
  -1  -5 -11    4.71    0.37
   1   5  11    4.91    0.36
  -1   6  10   13.85    0.53
  -1   6  10   14.53    0.53
  -1   6   9   16.23    0.82
  -1   6   9   17.21    0.76
  -1   6   9   16.52    0.84
  -1   6   8    9.71    0.73
  -1   6   8    9.55    0.83
  -1   6   7    9.04    0.85
  -1   6   7    8.45    0.76
  -1   6   6   59.25    1.96
  -1   6   6   62.57    1.89
  -1   6   6   60.36    1.77
  -1   6   5   22.13    1.16
  -1   6   5   21.34    1.25
  -1   6   5   20.57    1.30
  -1   6   4   36.09    1.60
  -1   6   4   38.01    1.53
  -1   6   4   36.76    1.45
  -1   6   3    0.51    0.55
  -1   6   3    0.87    0.64
  -1   6   3    0.52    0.55
  -1   6   2  134.93    2.62
  -1   6   2  128.87    2.69
  -1   6   2  133.06    2.66
  -1   6   1  178.01    2.98
  -1   6   1  171.88    2.96
  -1   6   0  138.31    2.58
  -1   6   0  141.41    2.56
  -1   6  -1   47.81    1.64
   1   6   1   45.25    1.59
   1   6   2   11.69    0.96
   1   6   2   11.63    0.86
  -1   6  -2   13.07    0.94
  -1   6  -3   13.12    1.01
   1   6   3   13.21    0.96
   1   6   3   13.30    1.06
   1   6   4   68.14    2.15
  -1   6  -4   70.35    2.01
   1   6   4   66.27    1.99
   1   6   4   69.50    1.95
  -1   6  -5  245.89    3.59
   1   6   5  243.43    3.85
   1   6   5  238.20    3.69
   1   6   5  235.67    3.62
   1   6   6    5.50    0.75
   1   6   6    4.64    0.69
   1   6   6    3.88    0.54
   1   6   6    4.84    0.83
  -1   6  -6    5.59    0.83
  -1   6  -7    7.07    0.84
   1   6   7    6.05    0.58
   1   6   7    6.79    0.75
   1   6   7    6.45    0.73
   1   6   8    3.30    0.42
   1   6   8    3.21    0.60
   1   6   8    3.57    0.57
   1   6   8    3.12    0.56
  -1   6  -8    3.37    0.63
   1   6   9    0.57    0.24
   1   6   9    0.65    0.36
   1   6   9    0.60    0.40
   1   6  10    1.14    0.23
   1   6  10    1.96    0.29
  -1   7   8    6.09    0.45
  -1   7   7    9.81    0.53
  -1   7   7   10.58    0.68
  -1   7   6    1.28    0.46
  -1   7   6    1.29    0.37
  -1   7   6    1.28    0.53
  -1   7   5    1.07    0.57
  -1   7   5    0.72    0.39
  -1   7   5    1.06    0.50
  -1   7   4   12.52    0.94
  -1   7   4   12.30    0.88
  -1   7   4   12.47    0.78
  -1   7   3    3.67    0.64
  -1   7   3    3.99    0.56
  -1   7   3    3.66    0.69
  -1   7   2   54.78    1.51
  -1   7   2   54.92    1.61
  -1   7   2   54.72    1.62
  -1   7   1   65.87    1.64
  -1   7  -2    3.91    0.60
   1   7   2    3.78    0.57
  -1   7  -3   14.53    0.91
   1   7   3   13.85    0.95
   1   7   3   12.62    0.81
  -1   7  -4    5.65    0.69
   1   7   4    5.47    0.63
   1   7   4    6.02    0.76
   1   7   5    7.11    0.65
   1   7   5    7.13    0.76
  -1   7  -5    6.83    0.69
   1   7   6    0.79    0.39
  -1   7  -6    0.14    0.44
   1   7   6    0.51    0.47
   1   7   7    0.85    0.42
   1   7   7    0.91    0.36
   1   7   8    3.99    0.36
  -1   8   5    0.42    0.19
  -1   8   4    1.63    0.28
  -1   8   4    1.89    0.31
   2   0 -14    4.05    0.37
   2   0 -14    4.10    0.33
   2   0 -14    4.41    0.34
   2   0 -14    4.35    0.35
   2   0 -14    4.22    0.33
   2   0 -13   97.36    2.00
  -2   0  13   98.92    1.90
   2   0 -13   93.37    1.56
   2   0 -13  102.91    1.95
   2   0 -13  100.41    1.92
   2   0 -13   99.46    1.95
   2   0 -13   99.02    1.95
   2   0 -12  184.51    3.11
  -2   0  12  182.54    3.11
   2   0 -12  183.42    3.21
   2   0 -12  190.70    3.07
   2   0 -12  194.64    2.86
   2   0 -12  192.69    3.15
  -2   0  11  166.73    3.21
   2   0 -11  166.28    3.03
   2   0 -11  173.19    3.25
   2   0 -11  172.42    3.27
   2   0 -11  163.43    3.29
   2   0 -11  168.37    3.15
   2   0 -10   16.94    1.20
   2   0 -10   16.61    1.07
   2   0 -10   18.18    1.20
   2   0 -10   15.84    1.10
   2   0 -10   17.01    1.13
   2   0 -10   16.14    1.16
  -2   0  10   16.05    1.12
   2   0  -9  229.53    3.59
  -2   0   9  225.31    3.73
   2   0  -9  222.29    3.55
  -2   0   9  219.96    3.44
   2   0  -9  223.81    3.71
  -2   0   9  225.41    3.33
   2   0  -9  221.38    3.47
  -2   0   9  227.06    3.73
   2   0  -9  233.91    3.77
   2   0  -9  213.18    3.73
   2   0  -8  299.79    3.83
   2   0  -8  306.86    3.90
   2   0  -8  302.33    4.03
   2   0  -8  285.25    4.05
  -2   0   8  302.68    4.08
   2   0  -8  297.21    4.03
  -2   0   8  317.42    4.15
  -2   0   8  305.33    3.56
  -2   0   8  292.65    3.78
   2   0  -8  305.40    3.91
   2   0  -7  512.13    4.04
   2   0  -7  516.50    4.66
  -2   0   7  529.67    4.36
  -2   0   7  525.65    4.69
   2   0  -6  541.99    3.92
  -2   0   6  555.48    4.09
   2   0  -6  554.24    4.46
  -2   0   6  548.49    4.44
   2   0  -5   81.22    1.34
   2   0  -5   81.67    1.07
  -2   0   5   81.46    1.30
   2   0  -5   85.92    1.51
  -2   0   5   82.44    1.49
   2   0  -4   66.67    0.92
   2   0  -4   62.03    1.17
   2   0  -4   67.72    1.14
  -2   0   4   64.01    1.22
  -2   0   3 2256.38    8.65
   2   0  -3 2249.44    8.49
  -2   0   3 2242.17    7.93
   2   0  -3 2232.02    7.88
  -2   0   1 6399.46   20.04
   2   0  -1 6691.09   19.80
   2   0   0 3116.08    9.99
  -2   0   0 3137.07    9.83
  -2   0   0 3004.34   10.21
   2   0   0 3196.48    9.69
  -2   0   0 3100.40   10.12
   2   0   0 3136.91   10.35
  -2   0   0 3127.81   10.27
   2   0   0 3006.71   10.12
   2   0   2 4191.86   13.76
   2   0   2 4187.50   14.19
   2   0   3  100.98    1.28
  -2   0  -3  103.08    1.10
  -2   0  -4 1397.68    6.83
  -2   0  -4 1379.80    5.85
  -2   0  -5   21.54    0.69
   2   0   5   22.35    0.86
   2   0   6    7.66    0.63
  -2   0  -6    7.95    0.52
   2   0   7  141.89    2.56
  -2   0  -7  139.74    2.64
  -2   0  -7  136.81    2.60
   2   0   7  135.83    2.24
   2   0   7  140.99    2.38
  -2   0  -7  136.04    2.06
   2   0   7  140.65    2.46
   2   0   7  141.57    2.60
   2   0   7  142.34    2.51
   2   0   7  131.81    2.38
  -2   0  -8    7.34    0.79
   2   0   8    7.74    0.74
   2   0   8    7.12    0.62
   2   0   8    6.58    0.74
  -2   0  -8    7.15    0.79
   2   0   8    8.07    0.77
   2   0   9  142.21    2.96
  -2   0  -9  153.35    3.02
  -2   0  -9  153.29    3.14
   2   0   9  151.68    2.80
   2   0   9  148.35    2.85
  -2   0  -9  146.91    2.96
  -2   0 -10   66.83    2.16
  -2   0 -10   67.13    2.06
   2   0  10   67.14    2.09
  -2   0 -10   65.04    2.09
   2   0  10   69.95    1.95
   2   0  10   64.39    2.05
   2   0  10   64.69    1.94
   2   0  11   11.13    0.91
  -2   0 -11   10.53    0.94
  -2   0 -11    8.87    0.86
  -2   0 -11    9.51    0.96
  -2   0 -11    9.52    0.95
  -2   0 -11   10.05    0.87
   2   0  11   10.76    0.80
   2   0  11    9.73    0.82
   2   0  11    9.14    0.88
  -2   0 -12   10.25    0.78
  -2   0 -12   10.31    0.73
   2   0  12   10.81    0.70
   2   0  12   11.01    0.71
   2   0  12   12.04    0.86
  -2   0 -12   10.15    0.88
  -2   0 -12   11.26    0.86
   2   0  12   10.86    0.82
   2   0  13    4.37    0.50
  -2   0 -13    4.46    0.54
  -2   0 -13    5.35    0.55
  -2   0 -13    3.35    0.39
   2  -1 -14    3.34    0.33
   2   1 -14    4.15    0.34
   2  -1 -14    3.64    0.33
   2  -1 -14    3.67    0.34
   2   1 -14    3.77    0.29
   2   1 -14    3.83    0.33
   2   1 -13   12.26    0.75
   2   1 -13   11.21    0.68
   2   1 -13   11.50    0.73
   2  -1 -13   11.09    0.69
   2  -1 -13   10.91    0.65
   2  -1 -13   11.89    0.68
   2  -1 -13   12.42    0.78
  -2  -1  13   11.06    0.64
   2  -1 -13   11.10    0.58
   2   1 -13   12.02    0.78
   2   1 -13   11.06    0.65
   2  -1 -13   11.58    0.77
   2   1 -12   68.48    1.88
  -2  -1  12   66.55    1.78
   2  -1 -12   66.52    1.91
   2   1 -12   65.72    1.89
   2   1 -12   66.62    1.89
   2  -1 -12   63.43    1.76
   2  -1 -12   68.76    1.81
   2  -1 -12   65.78    1.93
   2   1 -12   66.71    1.81
   2  -1 -12   65.83    1.77
   2   1 -11   14.88    1.05
   2   1 -11   16.60    1.17
   2  -1 -11   14.61    1.09
   2   1 -11   14.67    1.11
   2  -1 -11   14.11    1.02
   2   1 -11   15.49    0.97
  -2  -1  11   15.48    1.03
   2  -1 -11   13.78    1.00
   2   1 -11   15.79    1.11
   2  -1 -11   15.65    1.13
   2   1 -10  288.81    3.94
   2   1 -10  297.00    4.43
   2  -1 -10  276.82    4.34
   2  -1 -10  289.14    4.10
   2   1 -10  288.10    4.36
  -2   1  10  294.43    4.02
   2   1 -10  298.00    4.27
   2   1 -10  291.57    4.28
   2   1 -10  283.85    4.15
  -2  -1  10  285.44    4.17
   2  -1 -10  283.97    4.13
   2  -1  -9  206.38    3.64
   2   1  -9  202.73    3.31
  -2  -1   9  201.28    3.46
   2   1  -9  200.37    3.53
  -2   1   9  193.65    3.55
   2   1  -9  198.13    3.24
   2   1  -9  197.16    3.43
  -2   1   9  196.47    3.25
   2  -1  -9  195.05    3.29
   2   1  -9  192.73    3.52
   2  -1  -9  202.70    3.40
  -2   1   9  201.96    3.31
   2  -1  -9  198.62    3.46
   2   1  -9  192.92    3.41
   2   1  -9  193.75    3.35
   2  -1  -8   33.78    1.23
   2  -1  -8   32.39    1.35
  -2   1   8   33.43    1.24
  -2  -1   8   35.44    1.18
  -2  -1   8   33.68    1.35
   2   1  -8   32.65    1.38
  -2   1   8   34.89    1.31
   2  -1  -8   31.79    1.40
   2   1  -8   36.25    1.44
   2  -1  -8   30.88    1.29
   2  -1  -8   33.95    1.47
   2   1  -8   33.95    1.39
  -2   1   8   31.52    1.39
  -2  -1   8   33.19    1.34
   2   1  -8   33.71    1.33
   2   1  -8   30.88    1.38
  -2   1   8   34.51    1.35
  -2  -1   8   35.36    1.42
   2  -1  -8   33.19    1.37
   2   1  -8   34.91    1.44
   2   1  -8   34.48    1.29
   2   1  -7  138.46    2.48
   2   1  -7  144.15    2.63
   2  -1  -7  151.36    2.73
  -2   1   7  148.00    2.32
  -2   1   7  151.47    2.41
   2   1  -7  142.74    2.65
   2   1  -7  139.88    2.49
   2  -1  -7  140.71    2.31
  -2   1   7  148.87    2.67
  -2  -1   7  145.70    2.57
  -2  -1   7  147.25    2.12
   2  -1  -7  144.39    2.52
   2   1  -7  143.79    2.33
  -2   1   6  431.43    3.79
  -2   1   6  419.71    3.71
   2   1  -6  420.62    3.14
  -2  -1   6  448.16    3.52
  -2  -1   6  432.45    4.10
   2  -1  -6  437.83    3.90
   2   1  -6  430.98    3.80
   2   1  -5  678.54    4.51
   2  -1  -5  697.19    4.73
  -2   1   5  682.75    4.52
   2   1  -5  696.90    4.02
  -2  -1   5  690.00    3.98
  -2   1   5  677.67    4.46
  -2   1   4  570.37    3.65
  -2  -1   4  558.36    3.06
   2   1  -4  537.42    3.32
   2  -1  -4  563.47    3.92
   2  -1  -4  537.66    3.80
  -2   1   4  569.39    3.69
   2   1  -4  526.27    3.60
  -2  -1   3 2118.69    7.12
  -2   1   3 2110.51    8.16
  -2  -1   3 2098.21    8.47
   2   1  -3 2100.17    7.97
   2  -1  -3 2107.43    8.39
   2   1  -3 2093.54    8.27
  -2   1   3 2110.78    8.18
  -2   1   2 4385.90   13.26
  -2  -1   2 4181.51   14.15
  -2   1   2 4286.73   14.17
   2   1  -2 4209.01   13.17
  -2   1   2 4162.87   14.00
   2   1  -2 4109.97   13.97
   2  -1  -2 4320.49   14.01
  -2   1   2 4272.54   14.02
  -2  -1   2 4419.86   13.15
   2  -1  -1 9999.00   30.40
  -2   1   1 9846.42   30.29
   2  -1   0 4731.09   14.28
  -2   1   0 4633.81   13.87
  -2  -1   0 4555.31   14.54
  -2   1   0 4545.67   13.40
  -2  -1   0 4365.19   13.73
  -2  -1   0 4589.22   13.82
   2   1   1  776.76    3.24
  -2  -1  -1  791.32    3.84
   2  -1   1  777.56    3.79
   2   1   1  806.15    2.96
  -2   1  -1  780.79    3.63
  -2  -1  -1  789.88    2.96
   2   1   1  768.15    3.67
   2  -1   1  790.68    3.33
   2   1   1  764.11    3.88
   2   1   2 6299.45   20.43
  -2  -1  -2 6285.02   20.34
   2  -1   2 6353.73   20.23
  -2  -1  -3 3519.18   12.30
   2  -1   3 3559.51   11.93
  -2   1  -3 3622.78   12.68
   2  -1   3 3661.40   12.97
  -2   1  -3 3612.05   10.40
   2   1   3 3631.17   12.28
   2   1   3 3598.61   12.59
   2   1   4 1317.67    6.62
   2  -1   4 1287.37    6.93
  -2  -1  -4 1311.85    6.57
  -2  -1  -4 1302.32    6.29
   2   1   4 1327.64    6.49
   2  -1   4 1328.29    5.83
  -2   1  -4 1278.87    4.84
   2   1   5 1009.06    5.95
  -2  -1  -5 1008.31    5.81
   2   1   5  979.21    5.02
   2  -1   5  973.96    6.06
  -2  -1  -5  985.81    5.93
  -2   1  -5  949.04    4.38
   2   1   6   80.63    1.75
   2  -1   6   86.04    1.76
  -2  -1  -6   81.29    1.64
   2   1   6   79.56    1.40
   2   1   6   81.99    1.72
   2  -1   7  131.83    2.34
   2   1   7  124.73    2.43
   2   1   7  127.57    2.36
  -2  -1  -7  124.76    2.41
  -2   1  -7  121.93    2.54
  -2   1  -7  126.02    2.37
   2   1   7  126.80    2.42
  -2  -1  -7  127.37    2.26
  -2   1  -7  123.42    2.50
   2  -1   7  127.89    2.33
   2  -1   7  130.81    2.48
   2  -1   7  126.07    2.37
   2   1   7  130.45    2.54
  -2   1  -7  131.40    2.42
   2  -1   7  126.45    2.48
   2   1   7  130.18    2.48
   2   1   7  126.90    2.43
   2  -1   7  128.02    2.37
   2   1   7  130.22    2.55
  -2   1  -8  374.55    4.34
   2   1   8  382.93    4.72
  -2  -1  -8  397.52    4.84
   2  -1   8  382.63    4.66
  -2  -1  -8  376.43    4.23
  -2   1  -8  389.68    4.81
   2   1   8  379.27    4.44
   2  -1   8  385.04    4.63
  -2   1  -8  399.14    4.86
   2   1   8  377.99    4.61
   2  -1   8  394.26    4.31
   2  -1   8  363.25    4.40
   2   1   8  370.67    4.67
   2   1   8  402.42    4.69
   2  -1   8  395.67    4.35
   2  -1   8  376.65    4.47
  -2   1  -8  373.37    4.47
   2   1   8  390.13    4.53
  -2  -1  -8  380.83    4.54
   2  -1   8  388.74    4.35
   2   1   9   51.95    1.74
   2  -1   9   52.10    1.81
   2  -1   9   50.83    1.74
  -2   1  -9   52.03    1.91
  -2  -1  -9   47.46    1.73
   2   1   9   52.24    1.75
  -2   1  -9   51.58    1.89
   2   1   9   50.02    1.85
   2  -1   9   52.98    1.77
   2   1   9   51.96    1.81
   2  -1   9   52.10    1.64
  -2  -1  -9   53.34    1.91
  -2   1  -9   53.23    1.82
   2  -1   9   53.36    1.68
   2  -1   9   52.27    1.77
   2   1  10  195.63    3.27
  -2  -1 -10  185.16    3.25
  -2   1 -10  197.77    3.45
   2  -1  10  187.14    3.31
   2   1  10  191.15    3.51
  -2   1 -10  197.11    3.65
  -2   1 -10  200.62    3.60
  -2  -1 -10  202.67    3.54
   2  -1  10  199.75    3.10
   2  -1  10  193.40    3.48
  -2  -1 -10  205.76    3.69
   2  -1  10  189.96    3.08
   2   1  10  194.30    3.37
   2   1  11   22.51    1.06
  -2   1 -11   24.33    1.30
  -2   1 -11   22.44    1.25
  -2   1 -11   22.64    1.26
  -2  -1 -11   24.47    1.36
   2  -1  11   20.87    1.16
   2  -1  11   21.30    0.98
   2   1  11   22.84    1.14
   2  -1  11   22.46    1.03
   2   1  11   23.24    1.26
  -2  -1 -11   23.97    1.30
   2  -1  11   23.15    1.16
  -2   1 -11   23.36    1.22
  -2  -1 -11   21.12    1.08
   2   1  11   22.32    1.17
   2   1  12    0.97    0.46
   2   1  12    0.99    0.43
  -2   1 -12    1.52    0.51
  -2  -1 -12    0.94    0.48
  -2   1 -12    1.12    0.53
   2  -1  12    1.19    0.42
   2   1  12    1.07    0.40
  -2   1 -12    0.87    0.54
  -2  -1 -12    0.96    0.53
   2  -1  12    1.24    0.49
  -2  -1 -12    1.03    0.53
   2   1  12    1.39    0.50
  -2   1 -12    0.80    0.48
  -2   1 -13   23.70    0.87
   2   1  13   23.75    0.79
   2   1  13   21.36    0.66
  -2  -1 -13   24.15    0.86
   2   1  13   23.88    0.92
   2  -1  13   22.22    0.85
  -2  -1 -13   26.05    0.94
  -2   1 -13   23.59    0.88
  -2   1 -13   24.44    0.84
  -2   1 -13   24.52    0.95
  -2  -1 -13   25.99    0.97
   2  -2 -13    2.11    0.44
   2   2 -13    2.81    0.45
   2  -2 -13    2.07    0.40
   2  -2 -13    2.56    0.40
   2  -2 -13    2.08    0.32
   2  -2 -13    2.17    0.43
  -2   2  12   15.36    0.92
   2   2 -12   14.22    0.86
  -2  -2  12   13.42    0.72
   2  -2 -12   15.63    0.95
   2  -2 -12   14.66    0.82
   2   2 -12   14.88    0.99
   2  -2 -12   13.95    0.91
   2   2 -12   14.24    0.79
   2  -2 -12   16.09    0.99
   2  -2 -11   50.15    1.63
  -2   2  11   50.49    1.77
   2  -2 -11   51.64    1.81
  -2  -2  11   49.16    1.55
   2  -2 -11   47.77    1.55
   2   2 -11   49.51    1.59
   2   2 -11   49.89    1.78
   2   2 -11   47.86    1.63
   2  -2 -11   51.67    1.80
   2   2 -11   46.15    1.50
   2   2 -10  201.21    3.46
   2  -2 -10  212.48    3.70
   2   2 -10  206.38    3.38
   2   2 -10  201.14    3.70
   2  -2 -10  201.74    3.62
   2  -2 -10  207.81    3.34
   2   2 -10  210.36    3.68
  -2   2  10  209.56    3.17
  -2  -2  10  205.57    3.30
  -2   2  10  203.75    3.42
   2  -2 -10  208.00    3.35
  -2   2   9  127.05    2.75
  -2  -2   9  124.41    2.62
   2   2  -9  119.81    2.60
   2   2  -9  129.25    2.55
  -2  -2   9  121.56    2.83
   2   2  -9  122.91    2.86
   2  -2  -9  123.67    2.84
   2  -2  -9  127.61    2.86
  -2   2   9  131.33    2.86
   2   2  -9  119.70    2.70
   2  -2  -9  127.08    2.63
   2   2  -9  127.44    2.84
  -2   2   9  126.27    2.54
   2  -2  -9  123.81    2.60
   2  -2  -9  123.52    2.84
  -2   2   9  125.98    2.72
  -2   2   9  121.74    2.60
  -2   2   8   13.96    0.98
   2  -2  -8   13.99    0.96
   2  -2  -8   14.74    1.07
  -2   2   8   14.82    0.94
  -2   2   8   14.79    0.92
  -2   2   8   13.66    1.00
   2   2  -8   14.58    1.02
   2   2  -8   15.31    1.10
   2  -2  -8   13.87    1.01
   2   2  -8   15.88    0.95
   2  -2  -8   14.01    0.95
   2   2  -8   15.66    0.99
   2   2  -8   13.06    0.92
  -2   2   8   13.98    0.90
   2  -2  -8   14.09    1.02
  -2   2   8   14.83    1.02
  -2   2   7   33.97    1.35
  -2   2   7   35.11    1.28
  -2   2   7   35.31    1.25
  -2   2   7   34.45    1.27
   2   2  -7   33.71    1.27
   2   2  -7   34.80    1.39
   2   2  -7   35.33    1.28
   2   2  -7   34.62    1.33
   2   2  -7   34.68    1.45
  -2   2   7   37.49    1.28
  -2   2   7   34.29    1.36
  -2   2   7   34.58    1.39
  -2   2   7   35.19    1.27
   2  -2  -7   35.89    1.42
   2  -2  -7   35.20    1.34
  -2  -2   6   17.51    0.68
  -2   2   6   20.17    0.92
  -2   2   6   19.26    0.87
   2  -2  -6   18.22    0.95
  -2  -2   6   17.77    0.91
   2  -2  -6   18.93    0.95
  -2   2   6   16.87    0.71
  -2   2   5   82.50    1.41
  -2  -2   5   82.52    1.23
  -2  -2   5   86.30    1.75
   2  -2  -5   82.64    1.71
  -2   2   5   84.21    1.58
   2   2  -5   83.68    1.18
   2  -2  -5   79.63    1.69
  -2   2   5   83.88    1.66
   2  -2  -4 1151.43    6.46
   2   2  -4 1221.53    5.50
   2  -2  -4 1157.09    6.62
  -2   2   4 1170.29    5.75
  -2  -2   4 1176.13    6.51
  -2   2   4 1203.13    6.45
  -2   2   4 1178.73    6.16
  -2   2   3 1157.31    5.48
   2   2  -3 1183.18    5.46
  -2   2   3 1207.62    6.09
  -2  -2   3 1178.93    6.00
  -2   2   3 1187.90    5.79
   2  -2  -3 1157.00    5.93
  -2   2   2 1680.30    7.57
  -2  -2   2 1769.92    7.30
  -2  -2   2 1742.73    5.58
  -2   2   2 1832.66    7.47
   2  -2  -2 1744.27    7.92
   2  -2  -2 1790.11    7.26
  -2  -2   1  665.46    3.32
  -2   2   1  658.40    3.71
  -2  -2   1  633.28    2.66
   2  -2  -1  689.94    3.89
   2  -2  -1  668.48    3.32
   2   2   0  562.36    2.36
  -2  -2   0  569.76    3.42
  -2   2   0  563.01    3.50
   2  -2   0  565.13    3.25
   2  -2   0  576.55    3.55
   2  -2   0  568.60    2.64
   2  -2   0  573.12    2.61
  -2  -2   0  579.41    2.66
   2  -2   1  366.55    2.82
  -2  -2  -1  363.89    2.58
  -2   2  -1  339.72    2.75
   2  -2   1  351.52    2.61
   2  -2   1  381.61    2.28
   2   2   1  350.04    2.09
   2   2   2  522.33    3.04
  -2  -2  -2  526.59    3.22
  -2   2  -2  520.17    3.60
   2  -2   2  504.45    2.34
   2  -2   2  520.08    3.23
   2  -2   2  505.21    3.57
   2  -2   3   44.75    1.11
  -2  -2  -3   46.91    0.97
   2   2   3   46.88    0.97
  -2  -2  -4  112.96    1.63
   2  -2   4  110.45    1.40
   2  -2   4  106.65    1.85
  -2  -2  -4  109.35    1.81
   2   2   4  110.16    1.68
  -2  -2  -5  621.84    4.45
   2  -2   5  625.31    4.99
   2   2   5  617.16    4.66
   2   2   6  203.62    2.86
  -2   2  -6  183.27    2.98
   2   2   6  195.08    2.94
   2   2   6  191.28    2.96
   2  -2   6  184.89    2.80
  -2  -2  -6  193.73    2.88
  -2   2  -6  191.94    2.74
   2   2   6  213.38    3.08
   2   2   7  404.95    4.33
   2  -2   7  415.81    4.32
   2  -2   7  395.19    4.49
   2   2   7  403.51    4.68
  -2   2  -7  402.42    4.61
  -2  -2  -7  372.81    4.37
   2   2   7  400.29    4.42
   2   2   7  407.31    4.66
   2   2   7  392.38    4.59
   2   2   7  403.10    4.61
  -2   2  -7  398.50    4.39
   2   2   7  389.53    4.47
  -2   2  -7  392.03    4.52
   2  -2   7  380.34    4.43
  -2   2  -7  401.51    4.31
  -2   2  -7  398.86    4.77
   2  -2   8  661.74    6.22
  -2   2  -8  641.44    6.55
   2  -2   8  672.58    6.03
  -2   2  -8  653.61    6.27
  -2   2  -8  650.41    5.98
   2   2   8  646.29    6.25
  -2  -2  -8  650.92    6.33
  -2   2  -8  638.96    6.15
   2   2   8  658.36    6.29
  -2  -2  -8  638.78    6.14
   2  -2   8  679.71    5.84
   2   2   8  654.00    6.22
   2  -2   8  625.36    6.25
  -2   2  -8  654.02    5.97
   2   2   8  663.46    6.24
   2  -2   8  665.40    5.75
   2   2   8  668.86    6.42
   2   2   8  661.09    6.18
   2   2   9  280.89    4.13
  -2   2  -9  277.37    3.96
  -2  -2  -9  287.03    4.24
   2   2   9  286.42    4.28
  -2   2  -9  292.06    3.98
   2  -2   9  298.81    3.74
  -2   2  -9  282.54    3.98
   2   2   9  279.44    4.15
   2  -2   9  284.04    4.05
  -2   2  -9  288.13    4.24
   2  -2   9  288.19    3.93
  -2   2 -10   52.56    1.65
  -2   2 -10   58.15    1.94
   2  -2  10   54.82    1.70
   2   2  10   54.95    1.85
  -2  -2 -10   59.50    1.96
   2  -2  10   58.64    1.84
  -2   2 -10   55.16    1.75
  -2   2 -10   55.00    1.79
   2   2  10   57.05    1.94
   2   2  10   55.38    1.79
   2   2  10   55.00    1.86
   2   2  11   17.02    0.95
  -2   2 -11   18.69    1.19
   2  -2  11   16.11    0.86
  -2  -2 -11   15.10    1.02
  -2   2 -11   15.04    1.03
   2   2  11   16.55    1.07
   2   2  11   16.97    1.03
  -2   2 -11   17.40    0.97
   2  -2  11   16.65    0.96
   2   2  11   16.53    1.01
   2   2  11   18.12    1.04
  -2  -2 -11   16.36    1.06
  -2   2 -11   16.07    0.97
  -2  -2 -12    7.69    0.72
   2   2  12    6.53    0.50
   2   2  12    7.54    0.67
  -2   2 -12    6.48    0.65
   2   2  12    7.47    0.65
  -2   2 -12    6.69    0.55
   2  -2  12    6.60    0.56
   2   2  12    7.07    0.64
  -2  -2 -12    7.66    0.72
   2   2  12    6.87    0.60
  -2   2 -12    7.26    0.72
  -2  -2 -12    6.90    0.66
  -2   2 -12    7.88    0.62
  -2  -2 -13   34.54    0.91
  -2   2 -13   34.91    0.90
  -2  -2 -13   35.95    1.00
  -2  -2 -13   33.43    0.96
  -2   2 -13   37.30    1.02
   2   2  13   32.68    0.78
   2   2  13   33.29    0.89
   2  -3 -13    0.66    0.27
   2  -3 -13    0.64    0.26
  -2   3  13    0.57    0.23
   2   3 -13    0.47    0.26
   2   3 -13    0.54    0.27
   2  -3 -13    0.54    0.27
   2  -3 -13    0.51    0.23
   2  -3 -12    8.32    0.60
   2  -3 -12    8.81    0.72
   2   3 -12    9.20    0.73
   2   3 -12    9.35    0.73
   2  -3 -12    9.48    0.72
  -2   3  11   41.58    1.46
   2  -3 -11   41.81    1.52
   2   3 -11   42.70    1.55
   2  -3 -11   40.89    1.45
   2  -3 -11   40.84    1.29
   2   3 -11   43.93    1.59
  -2   3  11   41.02    1.30
   2  -3 -10   24.41    1.14
   2  -3 -10   24.79    1.27
   2   3 -10   26.33    1.36
   2  -3 -10   24.59    1.33
  -2   3  10   25.43    1.27
  -2   3  10   24.56    1.11
  -2   3  10   26.07    1.19
   2   3 -10   26.30    1.35
  -2   3   9   22.87    1.16
   2   3  -9   24.49    1.34
   2  -3  -9   22.99    1.27
  -2   3   9   24.10    1.26
  -2   3   9   23.18    1.21
   2  -3  -9   24.09    1.30
   2   3  -9   23.56    1.32
  -2   3   9   23.48    1.19
   2  -3  -9   21.75    1.12
   2  -3  -8  123.40    2.70
  -2   3   8  123.64    2.57
  -2   3   8  121.84    2.60
  -2   3   8  123.38    2.70
   2   3  -8  126.40    2.76
  -2   3   8  121.19    2.53
   2   3  -8  126.24    2.85
   2  -3  -8  124.99    2.73
  -2   3   8  119.96    2.72
   2   3  -8  123.38    2.73
  -2  -3   8  124.31    2.84
   2  -3  -8  124.12    2.84
   2  -3  -8  120.82    2.80
  -2   3   7  460.47    4.92
   2   3  -7  447.34    4.78
  -2   3   7  448.31    4.85
   2   3  -7  444.20    4.99
  -2   3   7  441.15    4.83
   2   3  -7  438.78    5.01
  -2   3   7  448.48    4.92
  -2  -3   7  445.71    5.14
  -2   3   7  448.88    5.00
   2  -3  -7  451.73    5.16
   2   3  -7  456.61    5.24
   2  -3  -7  444.86    5.08
  -2   3   6   49.83    1.61
  -2   3   6   47.75    1.56
   2  -3  -6   47.74    1.58
   2   3  -6   45.84    1.50
   2   3  -6   46.46    1.56
  -2   3   6   49.30    1.37
  -2   3   6   47.36    1.51
   2   3  -6   47.83    1.62
  -2   3   6   47.69    1.53
  -2  -3   6   48.29    1.56
  -2   3   6   48.16    1.53
   2  -3  -6   46.19    1.57
  -2   3   6   47.99    1.51
   2   3  -6   46.91    1.53
   2  -3  -5  382.30    4.16
  -2  -3   5  383.94    4.02
  -2   3   4  270.79    2.81
  -2  -3   4  264.14    3.01
   2  -3  -4  264.73    3.06
   2  -3  -3  660.24    5.04
   2  -3  -3  651.09    4.60
   2  -3  -2 1406.08    6.81
  -2   3   2 1420.35    6.85
   2  -3  -2 1458.48    7.61
  -2   3   2 1408.57    7.36
  -2  -3   2 1446.67    6.65
  -2  -3   1  363.38    3.03
   2  -3  -1  355.74    2.65
  -2   3   1  373.60    3.27
  -2  -3   1  347.64    2.43
   2  -3  -1  375.56    3.20
  -2   3   1  371.80    3.01
   2  -3   0  622.00    3.96
   2  -3   0  634.20    3.27
  -2   3   0  685.96    4.24
   2  -3   0  654.59    4.35
  -2  -3   0  596.18    3.89
  -2  -3  -1   29.02    0.76
   2  -3   1   26.98    0.90
   2  -3   1   26.25    0.82
   2  -3   1   25.35    0.68
  -2   3  -1   29.55    0.87
   2   3   1   24.84    0.64
   2   3   2  132.60    1.62
  -2   3  -2  133.43    1.97
  -2  -3  -2  137.01    1.65
   2  -3   2  132.12    1.74
   2  -3   2  138.87    2.01
  -2  -3  -3 1203.56    5.89
   2  -3   3 1197.53    6.88
   2   3   4  646.45    4.73
   2  -3   4  636.15    5.12
  -2  -3  -4  633.39    5.20
   2   3   5  258.25    3.42
   2   3   5  253.30    3.39
   2   3   5  263.49    3.22
  -2  -3  -5  256.49    3.38
   2  -3   5  252.73    3.31
   2   3   5  257.30    3.47
  -2   3  -5  250.50    3.14
  -2   3  -5  246.77    3.34
   2   3   5  261.52    3.52
   2   3   6   62.97    1.83
  -2   3  -6   63.83    1.83
  -2   3  -6   62.61    1.84
   2   3   6   64.61    1.76
   2  -3   6   65.59    1.79
   2   3   6   64.40    1.76
   2   3   6   63.70    1.73
  -2   3  -6   66.43    1.74
  -2  -3  -6   64.90    1.88
   2   3   6   65.71    1.90
  -2   3  -6   66.82    1.94
   2   3   6   67.24    1.88
   2   3   6   66.84    1.89
   2   3   7  422.12    4.83
  -2  -3  -7  414.30    4.97
   2   3   7  439.36    5.06
  -2   3  -7  423.02    5.09
   2   3   7  436.55    4.83
  -2   3  -7  432.69    4.85
   2   3   7  425.86    4.87
  -2   3  -7  437.77    5.17
   2   3   7  436.41    4.93
   2   3   7  436.72    5.08
  -2  -3  -8   47.98    1.74
   2   3   8   50.96    1.71
  -2   3  -8   49.70    1.69
   2   3   8   51.53    1.77
   2  -3   8   49.04    1.82
  -2   3  -8   52.19    1.87
  -2  -3  -8   48.56    1.82
  -2   3  -8   49.43    1.90
   2   3   8   49.70    1.82
  -2   3  -8   49.48    1.82
   2   3   8   50.46    1.74
   2   3   8   49.88    1.78
   2   3   9    2.23    0.69
   2   3   9    1.61    0.64
  -2   3  -9    2.06    0.59
   2   3   9    1.81    0.55
   2   3   9    2.12    0.56
  -2  -3  -9    2.60    0.67
  -2   3  -9    1.61    0.69
   2   3   9    1.84    0.61
  -2   3  -9    2.04    0.79
  -2   3  -9    3.16    0.58
  -2   3  -9    2.67    0.71
   2   3  10   15.27    1.02
  -2   3 -10   15.96    1.12
   2   3  10   15.34    0.94
   2   3  10   14.60    0.98
  -2   3 -10   15.26    0.97
   2   3  10   15.73    1.02
  -2   3 -10   15.08    1.01
  -2   3 -10   15.50    0.91
  -2  -3 -10   15.72    1.03
   2   3  10   14.34    1.03
  -2  -3 -11    3.17    0.56
  -2   3 -11    2.58    0.45
  -2   3 -11    2.88    0.64
  -2   3 -11    2.98    0.50
   2   3  11    3.25    0.54
  -2  -3 -11    3.13    0.57
   2   3  11    2.69    0.49
   2   3  11    3.17    0.57
   2   3  11    2.83    0.50
  -2  -3 -11    3.02    0.67
   2   3  12    0.91    0.28
  -2  -3 -12    0.58    0.31
  -2   3 -12    0.60    0.27
   2   3  12    0.76    0.30
  -2  -3 -12    0.76    0.34
  -2   3 -12    1.07    0.44
   2   3  12    0.99    0.37
  -2  -3 -12    0.72    0.40
  -2  -3 -13    7.17    0.40
   2   4 -12   32.53    0.93
   2  -4 -12   27.91    0.76
   2   4 -12   30.14    0.82
  -2   4  12   31.94    0.89
   2  -4 -12   26.85    0.93
   2   4 -11   58.31    1.50
   2  -4 -11   55.94    1.44
   2   4 -11   58.43    1.54
  -2   4  11   55.42    1.35
   2  -4 -11   53.25    1.37
  -2   4  11   55.79    1.50
  -2   4  10   10.78    0.79
  -2   4  10   10.91    0.79
  -2   4  10   10.90    0.82
   2   4 -10   12.13    0.88
   2  -4 -10   12.20    0.89
   2   4 -10   11.81    0.93
  -2   4   9    8.92    0.82
   2  -4  -9    6.76    0.77
  -2   4   9    7.47    0.72
   2   4  -9    8.12    0.84
  -2   4   9    7.84    0.83
  -2   4   9    7.79    0.79
   2   4  -9    7.59    0.84
  -2   4   8  196.56    3.41
   2  -4  -8  197.43    3.33
   2   4  -8  194.96    3.37
  -2   4   8  192.81    3.18
  -2   4   8  189.44    3.31
   2   4  -8  199.87    3.51
  -2   4   8  194.41    3.33
  -2   4   7   21.24    1.26
  -2   4   7   21.66    1.22
   2  -4  -7   19.62    1.27
   2   4  -7   20.91    1.20
  -2   4   7   21.20    1.20
  -2  -4   7   21.58    1.23
   2   4  -7   22.86    1.23
   2  -4  -7   20.49    1.29
   2   4  -7   21.57    1.27
  -2   4   6  342.69    4.47
  -2   4   6  343.05    4.39
   2  -4  -6  334.16    4.43
  -2  -4   6  334.30    4.33
  -2   4   6  345.67    4.53
  -2   4   6  340.65    4.33
   2   4  -6  333.90    4.03
   2   4  -6  341.56    4.25
   2   4  -6  343.71    4.40
  -2   4   5    1.98    0.47
  -2  -4   5    2.28    0.46
   2  -4  -5    1.74    0.53
   2   4  -5    2.30    0.49
  -2   4   5    2.66    0.65
   2  -4  -5    2.14    0.61
  -2   4   5    2.05    0.52
  -2   4   5    2.60    0.60
   2   4  -5    2.38    0.55
   2  -4  -4    5.43    0.63
  -2   4   4    5.53    0.61
  -2   4   4    6.09    0.65
   2   4  -4    5.36    0.61
   2  -4  -4    5.39    0.61
  -2  -4   4    5.40    0.54
  -2   4   4    8.00    0.79
  -2   4   3   18.02    0.94
  -2   4   3   19.29    1.01
  -2   4   3   19.44    0.94
  -2   4   3   19.93    0.79
   2  -4  -3   17.75    0.98
   2   4  -3   18.88    0.94
   2  -4  -3   19.49    0.91
  -2   4   3   18.30    0.95
  -2  -4   3   18.88    0.80
  -2   4   3   19.89    1.04
  -2  -4   2  126.07    2.07
  -2   4   2  128.91    1.95
  -2   4   2  128.40    2.24
   2  -4  -2  127.85    2.30
   2  -4  -2  121.38    1.96
   2  -4  -1  172.80    2.09
  -2   4   1  179.87    2.28
   2  -4  -1  172.73    2.51
  -2  -4   1  180.75    2.34
  -2  -4   0  540.13    3.95
  -2   4   0  528.68    4.13
   2  -4   0  532.61    4.20
   2  -4   1   22.48    0.98
   2  -4   1   20.75    0.87
  -2   4  -1   21.13    0.87
   2  -4   2   18.74    0.80
   2   4   2   21.46    0.76
   2  -4   2   19.19    0.90
  -2   4  -3   21.50    1.06
   2   4   3   21.60    1.08
   2   4   3   21.23    1.09
  -2   4  -3   21.73    1.09
   2   4   3   22.27    1.05
   2   4   3   22.04    0.86
   2  -4   3   22.02    0.99
  -2   4  -3   22.48    0.99
   2   4   4  100.63    2.30
  -2   4  -4   96.02    2.20
   2  -4   4   95.47    2.13
   2   4   4   97.04    2.13
   2   4   4   99.32    2.22
  -2   4  -4  103.23    2.07
  -2   4  -4   95.74    2.28
   2   4   4  100.20    1.96
   2  -4   5   75.63    1.98
  -2   4  -5   80.82    1.96
   2   4   5   76.21    2.11
   2   4   5   75.39    1.96
  -2   4  -5   76.43    2.15
   2   4   5   76.21    2.04
   2   4   5   78.15    1.89
  -2   4  -5   80.58    2.10
   2   4   5   71.18    2.06
  -2   4  -6   72.54    1.94
   2   4   6   67.23    1.90
  -2   4  -6   65.13    1.93
  -2  -4  -6   63.27    2.07
   2   4   6   65.24    1.79
   2   4   6   69.24    2.03
   2   4   6   70.18    2.14
   2   4   6   66.26    2.07
   2   4   6   65.97    1.97
   2  -4   6   62.83    1.99
   2   4   7   86.69    2.12
   2   4   7   86.45    2.33
  -2   4  -7   88.94    2.44
   2   4   7   87.04    2.29
  -2   4  -7   85.86    2.27
   2   4   7   87.28    2.35
   2   4   8   98.08    2.41
  -2  -4  -8  100.94    2.33
  -2   4  -8  106.65    2.61
   2   4   8   92.59    2.19
  -2   4  -8   96.70    2.49
   2   4   8   98.77    2.47
   2   4   8  101.66    2.51
   2   4   9    0.81    0.54
   2   4   9    0.89    0.56
  -2   4  -9    1.16    0.56
  -2  -4  -9    0.75    0.47
   2   4   9    0.70    0.42
  -2   4  -9    0.81    0.76
  -2   4  -9    1.50    0.65
   2   4   9    1.21    0.57
   2   4   9    1.25    0.54
   2   4  10   32.77    1.32
   2   4  10   30.21    1.10
   2   4  10   31.69    1.29
  -2   4 -10   31.10    1.34
  -2   4 -11   18.13    0.92
   2   4  11   17.67    0.87
  -2  -4 -11   18.22    0.88
   2   4  11   18.46    0.84
  -2  -4 -12   13.11    0.58
  -2  -4 -12   12.45    0.52
   2   4  12   14.34    0.56
  -2   5  11    6.18    0.36
   2   5 -11    7.37    0.44
  -2   5  10    2.31    0.48
  -2   5  10    2.43    0.45
  -2   5  10    2.54    0.51
   2   5 -10    2.26    0.46
  -2   5   9    7.28    0.76
  -2   5   9    6.59    0.70
  -2   5   9    6.69    0.71
  -2   5   9    6.18    0.72
   2   5  -9    7.61    0.72
  -2   5   8   92.31    2.28
  -2   5   8   88.61    2.23
  -2   5   8   91.65    2.24
  -2   5   8   93.25    2.28
   2   5  -8   85.14    1.98
   2   5  -8   95.63    2.26
  -2   5   7   33.69    1.55
  -2   5   7   33.48    1.48
  -2   5   7   32.88    1.48
   2   5  -7   35.16    1.50
  -2   5   7   31.06    1.43
  -2   5   6   99.21    2.42
   2   5  -6   97.18    2.42
  -2   5   6   91.26    2.38
  -2   5   5   41.72    1.64
   2   5  -5   40.82    1.55
  -2   5   5   41.68    1.63
  -2   5   5   40.39    1.57
   2  -5  -5   38.57    1.58
   2  -5  -5   40.27    1.75
  -2   5   5   40.94    1.65
  -2   5   4    4.30    0.78
  -2   5   4    3.86    0.68
  -2   5   4    3.65    0.66
  -2   5   4    4.43    0.70
   2   5  -4    4.67    0.68
  -2   5   4    4.57    0.71
  -2   5   4    4.13    0.61
   2  -5  -4    3.98    0.71
  -2   5   3  336.87    4.33
   2   5  -3  332.43    4.09
  -2   5   3  341.07    4.28
  -2   5   3  334.53    4.25
  -2   5   3  331.54    4.15
  -2   5   3  329.80    4.08
   2  -5  -3  321.98    4.42
  -2   5   2   47.57    1.63
  -2   5   2   50.00    1.65
  -2   5   2   49.08    1.58
   2  -5  -2   47.98    1.68
  -2   5   2   45.00    1.55
   2   5  -2   47.21    1.54
   2  -5  -2   47.71    1.61
   2   5  -2   48.69    1.53
  -2   5   1  118.69    2.40
  -2   5   1  128.03    2.46
  -2   5   1  125.19    2.47
   2  -5  -1  121.88    2.52
   2  -5  -1  117.28    2.36
   2   5  -1  121.35    2.39
  -2   5   1  120.82    2.44
  -2   5   0  174.63    2.95
   2   5   0  177.47    2.93
   2  -5   0  170.93    2.81
  -2   5   0  179.29    2.89
  -2   5   0  182.73    2.86
   2  -5   1   22.07    1.10
   2   5   1   20.03    1.09
   2   5   1   22.72    1.15
  -2   5  -1   20.10    1.02
  -2   5  -1   22.32    1.16
  -2   5  -1   21.17    1.02
  -2   5  -2   38.54    1.50
   2   5   2   38.49    1.50
   2  -5   2   40.61    1.44
   2   5   2   39.82    1.54
  -2   5  -2   39.36    1.37
  -2   5  -2   36.93    1.41
   2   5   3   81.24    2.06
   2   5   3   85.64    2.26
   2  -5   3   79.32    2.05
  -2  -5  -3   81.52    2.26
  -2   5  -3   84.57    2.01
  -2   5  -3   85.77    2.20
  -2   5  -3   76.51    2.11
   2   5   4  362.79    4.57
  -2   5  -4  367.49    4.55
  -2  -5  -4  343.11    4.70
  -2   5  -4  351.23    4.61
  -2   5  -4  366.25    4.18
   2   5   4  338.14    4.26
   2   5   4  360.63    4.73
   2   5   5   13.47    1.06
   2   5   5   14.14    1.16
   2   5   5   12.30    0.97
  -2   5  -5   12.03    1.12
   2  -5   5   10.65    0.90
  -2   5  -5   13.18    1.12
  -2   5  -5   12.96    0.95
  -2   5  -6   92.96    2.51
   2   5   6   96.13    2.48
  -2   5  -6   95.19    2.21
  -2   5  -6   93.32    2.41
   2   5   6   92.24    2.37
   2   5   7   36.25    1.57
  -2   5  -7   32.18    1.33
   2   5   7   34.88    1.57
   2   5   7   35.59    1.51
   2   5   7   32.79    1.39
  -2   5  -7   36.14    1.63
   2   5   8   15.69    1.09
   2   5   8   14.40    0.93
  -2   5  -8   16.06    1.17
   2   5   8   15.00    1.04
  -2   5  -8   16.13    1.15
   2   5   8   14.34    1.03
  -2   5  -8   14.20    0.92
  -2   5  -9   27.70    1.26
   2   5   9   27.96    1.15
   2   5   9   27.53    1.18
   2   5   9   26.20    0.97
   2   5  10   22.74    0.86
   2   5  10   25.44    0.99
  -2  -5 -10   24.06    0.92
   2   5  10   26.01    0.98
   2   5  10   22.11    0.74
   2   5  11   16.18    0.60
   2   5  11   14.36    0.56
  -2   6  10    4.41    0.33
  -2   6  10    4.78    0.36
   2  -6 -10    4.20    0.34
  -2   6   9    3.05    0.46
  -2   6   9    2.68    0.47
  -2   6   9    2.63    0.42
  -2   6   8   20.96    1.07
  -2   6   8   21.49    1.04
  -2   6   8   22.15    0.99
   2   6  -8   21.34    0.90
  -2   6   7   15.50    0.97
   2   6  -7   14.33    0.87
  -2   6   6    8.19    0.94
  -2   6   6    9.23    0.91
  -2   6   6    7.96    0.79
   2   6  -6    8.31    0.73
  -2   6   5   17.38    1.17
  -2   6   5   17.92    1.07
  -2   6   5   15.49    0.91
   2   6  -5   15.26    0.98
  -2   6   5   16.77    1.10
  -2   6   4    3.35    0.67
  -2   6   4    3.49    0.62
  -2   6   4    3.24    0.56
  -2   6   4    3.51    0.75
  -2   6   3   17.11    1.15
  -2   6   3   17.72    1.14
  -2   6   3   17.81    1.08
  -2   6   3   16.32    1.00
  -2   6   2   79.29    2.11
  -2   6   2   79.65    2.13
  -2   6   2   82.26    2.10
  -2   6   2   79.93    2.10
  -2   6   1  179.86    3.05
  -2   6   1  181.53    3.12
  -2   6   1  187.97    3.08
  -2   6   0  190.01    3.05
  -2   6   0  196.54    3.23
  -2   6   0  187.55    3.04
  -2   6  -1   14.54    1.03
  -2   6  -1   14.61    0.96
   2   6   1   11.56    0.91
  -2   6  -2   16.49    1.00
  -2   6  -2   15.15    1.10
   2   6   2   15.22    1.05
   2   6   3   12.85    0.91
   2   6   3   15.63    1.13
  -2   6  -3   13.98    1.06
  -2   6  -3   14.13    0.95
  -2   6  -3   13.24    0.97
   2   6   4   53.35    1.74
   2   6   4   51.29    1.62
  -2   6  -4   57.22    1.67
  -2   6  -4   53.79    1.83
   2   6   4   54.82    1.91
  -2   6  -4   54.00    1.84
   2   6   5   90.43    2.27
  -2   6  -5   93.35    2.36
  -2   6  -5   98.94    2.34
  -2   6  -5   97.99    2.09
   2   6   5   95.93    2.49
   2   6   6   27.22    1.22
   2   6   6   28.26    1.30
   2   6   6   31.43    1.47
  -2   6  -6   31.68    1.42
   2   6   7    3.57    0.55
  -2   6  -7    3.23    0.72
   2   6   7    3.41    0.62
   2   6   8    5.10    0.64
   2   6   8    5.54    0.55
  -2   6  -8    5.36    0.69
   2   6   8    5.03    0.59
   2   6   9    0.49    0.35
   2   6   9    0.52    0.34
  -2  -6  -9    0.53    0.24
   2   6   9    0.67    0.32
  -2   7   8    0.12    0.18
  -2   7   7    1.08    0.47
  -2   7   7    0.86    0.39
  -2   7   7    0.87    0.33
  -2   7   6    9.13    0.72
  -2   7   6    8.43    0.61
  -2   7   6    8.16    0.73
  -2   7   5    3.38    0.62
  -2   7   5    3.59    0.53
  -2   7   5    3.65    0.59
  -2   7   4    5.76    0.73
  -2   7   4    5.52    0.66
  -2   7   4    5.64    0.64
  -2   7   3   41.58    1.43
  -2   7   3   43.28    1.47
  -2   7   3   45.62    1.41
  -2   7   2   36.12    1.36
  -2   7   2   36.81    1.31
  -2   7   1   16.90    0.97
  -2   7   1   16.53    0.92
  -2   7   1   18.22    0.96
  -2   7   0    4.34    0.62
  -2   7   0    4.08    0.60
  -2   7  -1    1.36    0.48
  -2   7  -1    0.58    0.53
   2   7   2   10.02    0.78
  -2   7  -2   11.83    0.79
  -2   7  -2   10.46    0.86
   2   7   3    2.61    0.57
  -2   7  -3    2.83    0.65
   2   7   4   20.53    1.10
  -2   7  -4   22.55    1.10
   2   7   5    3.45    0.63
   2   7   5    3.44    0.49
  -2   7  -5    3.01    0.63
   2   7   6    2.04    0.50
   2   7   6    1.93    0.38
  -2   7  -6    1.61    0.50
  -2   7  -7    3.47    0.46
   2   7   7    4.07    0.50
   2   7   7    3.85    0.40
  -2   8   5    1.35    0.24
  -2   8   4    7.07    0.44
  -2   8   3    2.81    0.35
   3   0 -14   28.25    0.67
   3   0 -14   30.81    0.75
   3   0 -13    7.86    0.64
   3   0 -13    7.76    0.54
   3   0 -13    7.01    0.63
   3   0 -13    7.10    0.62
   3   0 -13    7.10    0.57
   3   0 -13    6.89    0.58
   3   0 -12  109.98    2.24
   3   0 -12  110.61    2.22
   3   0 -12  108.36    2.26
   3   0 -12  115.48    2.41
  -3   0  12  108.95    2.31
   3   0 -12  106.83    2.39
   3   0 -11   82.58    2.15
   3   0 -11   80.43    2.21
   3   0 -11   82.12    2.27
   3   0 -11   73.55    2.21
   3   0 -11   76.83    2.05
  -3   0  11   74.18    2.15
  -3   0  10  166.32    3.22
   3   0 -10  163.21    3.19
   3   0 -10  163.57    3.25
   3   0 -10  164.38    3.07
   3   0 -10  170.00    3.19
   3   0  -9    0.41    0.54
  -3   0   9    0.13    0.38
  -3   0   9    0.41    0.50
   3   0  -9    0.29    0.53
   3   0  -9    0.79    0.54
   3   0  -9    0.63    0.48
   3   0  -9    0.54    0.57
   3   0  -8  238.82    3.46
  -3   0   8  231.25    3.08
   3   0  -8  226.89    3.59
  -3   0   8  244.40    3.74
   3   0  -8  230.93    3.44
   3   0  -8  242.49    3.63
   3   0  -8  239.33    3.66
  -3   0   8  230.87    3.43
  -3   0   7   36.32    1.30
   3   0  -7   38.75    1.35
   3   0  -7   36.30    1.36
  -3   0   7   39.36    1.17
   3   0  -7   36.77    1.19
  -3   0   7   37.53    1.39
   3   0  -7   38.05    1.33
   3   0  -6    0.08    0.40
  -3   0   6    0.22    0.34
   3   0  -6    0.12    0.34
  -3   0   6    0.05    0.23
   3   0  -5   47.08    1.16
  -3   0   5   49.62    1.03
   3   0  -5   46.10    0.91
  -3   0   5   47.98    1.23
  -3   0   4 1109.56    5.18
  -3   0   4 1116.33    6.04
   3   0  -4 1117.25    5.88
   3   0  -3  128.15    1.61
   3   0  -3  123.07    1.67
  -3   0   2 1236.67    5.62
  -3   0   2 1211.29    5.47
   3   0  -2 1216.77    5.38
   3   0  -2 1110.10    4.75
  -3   0   2 1177.80    4.69
   3   0  -2 1169.13    5.68
   3   0  -2 1164.21    5.36
   3   0  -1 1007.68    4.56
  -3   0   1 1036.58    4.85
   3   0  -1 1012.33    4.34
  -3   0   1 1023.18    4.73
   3   0  -1 1037.45    4.92
  -3   0   1 1020.09    4.88
   3   0   0  147.78    1.52
   3   0   0  148.17    1.62
  -3   0   0  144.83    1.45
   3   0   0  146.98    1.45
   3   0   1 2980.73   10.47
  -3   0  -1 2974.35   10.84
  -3   0  -1 2972.63   10.55
   3   0   1 2995.70   10.92
   3   0   2 1257.00    5.44
   3   0   2 1257.98    6.24
  -3   0  -2 1249.64    5.67
  -3   0  -2 1258.27    6.03
   3   0   2 1274.46    6.03
   3   0   3 5323.01   18.40
   3   0   3 5481.33   19.14
  -3   0  -4 6675.95   21.35
   3   0   4 6805.67   22.57
  -3   0  -5  576.81    3.69
  -3   0  -5  565.44    4.70
   3   0   6  241.53    3.18
   3   0   7   17.03    0.93
   3   0   7   17.08    0.95
   3   0   7   16.76    0.95
   3   0   7   16.93    0.98
   3   0   7   16.88    0.99
  -3   0  -7   16.96    1.04
  -3   0  -7   17.27    1.06
   3   0   7   16.95    0.86
   3   0   7   16.69    1.02
   3   0   7   17.45    1.00
   3   0   8    6.19    0.70
  -3   0  -8    4.28    0.73
   3   0   8    5.16    0.70
   3   0   8    4.53    0.58
  -3   0  -8    4.34    0.78
   3   0   8    4.82    0.67
   3   0   8    5.04    0.73
  -3   0  -9   25.53    1.42
  -3   0  -9   23.74    1.30
   3   0   9   24.46    1.30
   3   0   9   25.56    1.26
   3   0   9   25.65    1.27
  -3   0  -9   25.94    1.37
   3   0  10    1.79    0.59
  -3   0 -10    2.01    0.68
   3   0  10    2.15    0.62
  -3   0 -10    2.11    0.65
   3   0  10    1.80    0.57
  -3   0 -10    2.05    0.64
  -3   0 -11    9.76    0.94
  -3   0 -11    8.54    0.83
  -3   0 -11    8.73    0.73
   3   0  11    8.98    0.81
  -3   0 -11    9.14    0.84
   3   0  11    8.87    0.77
   3   0  11    9.44    0.79
  -3   0 -12    7.80    0.57
  -3   0 -12    8.37    0.75
   3   0  12    7.97    0.71
  -3   0 -12    7.99    0.79
  -3   0 -12    8.75    0.70
   3   0  12    9.01    0.64
  -3   0 -12    9.15    0.72
   3   0  12    8.34    0.68
   3   0  12    8.39    0.62
  -3   0 -13   27.69    0.93
  -3   0 -13   27.04    0.93
   3   0  13   26.84    0.84
   3   0  13   27.08    0.89
  -3   0 -13   26.83    0.80
   3  -1 -14   10.87    0.45
   3  -1 -14   11.10    0.44
   3  -1 -14   10.98    0.43
   3   1 -13   18.09    0.82
   3  -1 -13   15.59    0.65
   3  -1 -13   15.99    0.64
   3   1 -13   18.46    0.82
   3  -1 -13   17.67    0.86
   3   1 -13   18.64    0.86
   3  -1 -13   17.83    0.78
   3  -1 -13   18.01    0.86
   3   1 -13   16.04    0.72
   3  -1 -13   16.63    0.70
   3   1 -13   18.63    0.83
   3   1 -12   52.61    1.44
  -3  -1  12   49.29    1.48
   3   1 -12   49.56    1.54
   3  -1 -12   48.68    1.43
   3   1 -12   51.04    1.63
   3  -1 -12   49.99    1.64
   3   1 -12   50.35    1.58
   3  -1 -12   48.41    1.43
   3  -1 -12   51.14    1.54
   3   1 -12   52.38    1.60
   3   1 -12   50.91    1.60
   3  -1 -11  380.42    4.85
   3   1 -11  373.67    4.73
   3   1 -11  384.79    4.43
   3  -1 -11  370.11    4.44
   3   1 -11  380.37    4.74
   3   1 -11  380.28    4.63
   3  -1 -11  383.04    4.69
   3   1 -11  372.53    4.60
   3  -1 -11  380.74    4.38
  -3  -1  11  366.38    4.48
   3  -1 -10  129.38    2.88
   3  -1 -10  124.40    2.69
   3   1 -10  133.38    2.93
   3  -1 -10  131.52    2.92
   3   1 -10  131.84    2.84
   3  -1 -10  126.82    2.96
  -3  -1  10  123.76    2.78
   3   1 -10  126.60    2.74
   3   1 -10  127.43    2.92
   3  -1 -10  126.47    2.63
   3   1 -10  127.85    2.81
   3   1  -9  126.39    2.76
   3  -1  -9  114.55    2.58
   3   1  -9  116.08    2.74
   3  -1  -9  121.25    2.77
  -3   1   9  121.46    2.74
  -3   1   9  116.64    2.50
  -3  -1   9  113.61    2.68
   3   1  -9  122.34    2.71
   3   1  -9  118.03    2.65
  -3  -1   9  120.38    2.66
   3  -1  -9  117.82    2.84
   3   1  -9  123.70    2.68
   3   1  -9  113.98    2.73
   3  -1  -9  116.43    2.50
   3  -1  -9  118.01    2.74
   3   1  -8  114.05    2.57
   3  -1  -8  114.47    2.48
   3  -1  -8  116.34    2.60
  -3   1   8  117.46    2.35
   3  -1  -8  113.28    2.32
   3  -1  -8  117.36    2.66
   3   1  -8  117.21    2.49
   3   1  -8  112.74    2.51
  -3  -1   8  115.44    2.51
  -3  -1   8  109.89    2.48
   3   1  -8  115.28    2.49
  -3   1   8  116.78    2.39
   3   1  -8  114.28    2.63
   3  -1  -8  110.03    2.50
   3  -1  -8  113.64    2.38
   3   1  -8  111.17    2.45
   3   1  -8  117.25    2.65
  -3   1   7  343.57    4.00
   3   1  -7  345.00    3.94
   3  -1  -7  342.50    4.29
   3  -1  -7  335.12    3.99
   3  -1  -7  320.08    3.74
  -3  -1   7  334.44    4.05
   3   1  -7  335.00    4.24
   3  -1  -7  324.94    4.08
  -3   1   7  344.26    3.76
   3   1  -7  334.52    4.14
  -3  -1   7  332.79    4.04
  -3   1   7  341.14    3.83
   3   1  -7  339.92    4.01
   3   1  -7  331.60    4.05
   3  -1  -7  324.92    3.75
   3   1  -7  327.59    3.95
   3   1  -7  330.00    4.18
   3  -1  -6  285.67    3.34
  -3  -1   6  291.21    2.62
  -3   1   6  298.54    3.20
   3   1  -6  309.04    3.02
   3  -1  -6  291.27    3.45
   3  -1  -6  286.48    2.90
  -3   1   6  301.00    3.34
   3   1  -6  292.71    3.35
   3   1  -5  263.91    2.96
   3   1  -5  273.50    2.70
   3  -1  -5  260.73    2.99
  -3   1   5  265.43    2.88
  -3   1   5  265.23    2.96
  -3   1   5  258.97    2.72
   3  -1  -5  254.69    2.66
   3  -1  -5  260.47    2.99
  -3  -1   5  265.64    2.20
   3   1  -4 1366.45    7.01
   3   1  -4 1386.10    6.64
  -3  -1   4 1375.42    5.38
  -3   1   4 1320.64    6.98
  -3   1   4 1346.75    6.57
   3  -1  -4 1361.53    6.72
   3  -1  -4 1310.02    7.04
   3   1  -4 1337.42    5.25
   3  -1  -4 1355.23    6.93
  -3   1   4 1375.20    6.87
  -3  -1   4 1329.69    7.09
  -3   1   3 4422.09   14.26
  -3  -1   3 4173.29   15.16
   3   1  -3 4300.82   15.03
  -3   1   3 4290.70   14.73
  -3  -1   3 4345.95   12.82
  -3   1   3 4300.87   15.06
   3   1  -3 4349.42   13.90
   3  -1  -3 4440.74   15.07
  -3   1   2 3799.37   13.49
  -3   1   2 3764.63   13.14
   3   1  -2 3854.05   12.87
  -3   1   2 3836.30   12.69
   3  -1  -2 3780.16   13.70
  -3  -1   2 3788.22   13.46
   3  -1  -2 3870.76   13.14
   3   1  -2 3777.79   13.45
   3  -1  -1 1851.11    7.78
   3   1  -1 1883.55    6.28
   3  -1  -1 1888.62    7.70
  -3  -1   1 1857.89    6.89
  -3   1   1 1846.07    6.98
  -3   1   1 1851.03    7.28
   3   1  -1 1846.72    7.41
   3  -1  -1 1866.68    6.91
   3   1  -1 1813.70    7.67
  -3  -1   1 1889.70    7.43
  -3  -1   0 1642.26    6.33
   3   1   0 1546.26    4.99
  -3   1   0 1585.70    6.35
   3   1   0 1583.58    4.99
   3  -1   0 1598.85    6.48
   3  -1   0 1603.25    6.74
   3   1   0 1606.09    6.76
  -3  -1   0 1608.88    5.86
   3   1   0 1546.68    6.12
  -3  -1  -1  690.46    4.02
  -3   1  -1  686.03    3.82
  -3   1  -1  668.57    4.12
  -3   1  -1  675.80    2.58
   3  -1   1  674.78    4.06
  -3  -1  -1  652.38    3.15
   3  -1   1  673.35    3.48
   3   1   1  674.22    4.00
   3  -1   1  679.60    4.01
   3   1   1  686.39    3.81
  -3   1  -2  283.18    2.47
   3   1   2  286.86    2.51
  -3  -1  -2  289.08    2.02
  -3   1  -2  267.93    2.49
   3  -1   2  285.59    2.52
   3  -1   2  275.42    2.61
  -3  -1  -2  276.02    2.52
   3  -1   2  289.07    2.00
  -3   1  -3  253.58    2.65
   3   1   3  255.90    2.60
  -3  -1  -3  254.63    2.62
  -3   1  -3  254.19    2.58
   3  -1   4 1494.77    8.17
   3   1   4 1543.30    7.82
  -3  -1  -4 1453.25    7.59
  -3   1  -4 1488.17    8.00
  -3  -1  -4 1494.28    7.29
   3  -1   4 1530.42    7.20
   3   1   4 1505.56    7.43
   3   1   5  173.27    2.38
   3  -1   5  172.58    2.65
   3   1   5  173.95    2.48
   3  -1   5  181.45    2.18
  -3  -1  -5  169.16    2.52
  -3  -1  -5  181.67    2.30
   3  -1   6   52.97    1.56
   3   1   6   57.76    1.63
   3  -1   6   52.27    1.59
   3   1   6   54.08    1.46
   3   1   6   53.84    1.57
  -3  -1  -6   53.63    1.36
   3   1   6   52.08    1.52
  -3   1  -6   49.23    1.59
   3   1   7  275.52    3.84
  -3   1  -7  259.26    3.42
  -3  -1  -7  261.45    3.70
   3   1   7  263.69    3.56
  -3   1  -7  259.15    3.77
  -3   1  -7  271.82    3.67
   3  -1   7  265.51    3.59
   3  -1   7  271.60    3.57
   3   1   7  266.59    3.63
   3  -1   7  265.54    3.72
   3  -1   7  271.45    3.79
   3   1   7  273.33    3.79
  -3   1  -7  275.83    3.56
  -3  -1  -7  252.07    3.17
   3   1   7  224.99    3.40
   3   1   7  244.68    3.59
   3  -1   8   60.74    1.83
   3  -1   8   60.26    1.89
   3   1   8   59.59    1.93
   3   1   8   58.74    1.81
   3  -1   8   59.43    1.83
  -3   1  -8   59.02    1.73
  -3   1  -8   58.62    1.94
  -3  -1  -8   58.50    1.88
  -3   1  -8   59.51    1.81
   3   1   8   58.32    1.84
  -3   1  -8   60.10    2.00
   3   1   8   59.32    1.89
   3   1   8   59.73    1.83
   3  -1   8   58.83    1.78
   3   1   8   62.35    1.95
   3  -1   8   62.07    1.95
  -3   1  -8   58.60    1.78
   3  -1   8   56.62    1.78
  -3   1  -9  472.29    5.58
  -3   1  -9  478.62    5.66
   3  -1   9  453.25    5.22
   3   1   9  457.48    5.08
   3  -1   9  449.84    5.36
   3   1   9  462.17    5.44
   3  -1   9  475.87    5.09
   3   1   9  463.98    5.19
  -3   1  -9  463.03    5.09
  -3  -1  -9  451.90    5.21
   3  -1   9  461.98    5.05
   3   1   9  463.85    5.30
   3   1  10    1.79    0.64
   3  -1  10    2.05    0.56
  -3   1 -10    1.44    0.65
   3  -1  10    1.60    0.51
   3  -1  10    1.72    0.56
   3   1  10    1.91    0.61
   3  -1  10    1.54    0.57
  -3   1 -10    1.85    0.58
  -3  -1 -10    1.02    0.55
  -3   1 -10    1.46    0.67
   3   1  10    1.29    0.58
  -3  -1 -10    2.02    0.67
  -3   1 -11    7.51    0.84
  -3  -1 -11    7.55    0.86
  -3   1 -11    8.32    0.83
   3  -1  11    8.51    0.79
  -3  -1 -11    7.84    0.73
   3   1  11    8.57    0.80
  -3   1 -11    8.13    0.86
   3  -1  11    8.46    0.76
   3   1  11    7.63    0.77
   3  -1  11    8.56    0.72
   3   1  11    7.37    0.73
  -3  -1 -11    8.02    0.85
  -3   1 -11    7.62    0.72
   3  -1  11    7.13    0.65
   3   1  12    2.96    0.49
  -3  -1 -12    2.35    0.47
  -3  -1 -12    2.29    0.58
  -3   1 -12    2.36    0.53
  -3   1 -12    3.07    0.56
   3  -1  12    2.10    0.46
   3  -1  12    2.53    0.43
  -3   1 -12    2.64    0.50
   3   1  12    2.33    0.50
   3  -1  12    2.20    0.36
   3   1  12    2.99    0.48
  -3  -1 -12    2.61    0.53
  -3   1 -12    1.85    0.41
   3   1  13    3.91    0.32
   3   1  13    3.99    0.41
   3  -1  13    3.99    0.37
  -3  -1 -13    4.53    0.46
  -3   1 -13    4.12    0.42
  -3  -1 -13    3.34    0.29
  -3   1 -13    3.56    0.34
   3   1  13    4.42    0.43
  -3   1 -13    3.89    0.39
  -3  -1 -13    4.90    0.44
   3   1  13    3.99    0.34
   3  -2 -13    8.64    0.54
   3  -2 -13    9.66    0.61
   3   2 -13    8.00    0.46
  -3   2  13    7.13    0.39
   3   2 -13   10.02    0.61
   3  -2 -13    9.09    0.58
   3  -2 -13    8.83    0.60
   3  -2 -13    8.92    0.54
   3   2 -12    6.56    0.60
  -3   2  12    6.20    0.67
   3  -2 -12    6.44    0.70
   3  -2 -12    6.29    0.68
   3  -2 -12    6.95    0.68
   3  -2 -12    6.26    0.53
   3   2 -12    5.96    0.68
   3  -2 -12    6.57    0.68
   3   2 -12    5.85    0.61
   3   2 -11   30.56    1.37
   3   2 -11   27.07    1.25
  -3   2  11   29.11    1.35
   3  -2 -11   29.01    1.35
   3   2 -11   29.59    1.28
  -3  -2  11   28.89    1.15
   3  -2 -11   30.10    1.38
   3  -2 -11   29.09    1.40
   3   2 -11   27.08    1.15
   3   2 -11   29.81    1.17
   3  -2 -11   29.03    1.17
   3   2 -10  248.33    3.81
   3  -2 -10  259.60    4.05
   3  -2 -10  258.93    3.99
   3   2 -10  253.23    3.78
  -3  -2  10  249.09    3.57
   3   2 -10  265.66    3.70
   3   2 -10  240.34    3.55
   3  -2 -10  247.55    3.49
   3   2 -10  263.22    3.98
  -3   2  10  254.19    3.98
   3   2  -9  159.45    3.08
   3  -2  -9  164.80    3.22
  -3   2   9  166.53    3.30
  -3  -2   9  162.57    2.93
   3   2  -9  163.77    3.02
   3  -2  -9  169.20    3.29
   3   2  -9  158.80    2.95
   3  -2  -9  169.69    2.92
   3   2  -9  161.42    3.16
   3   2  -9  163.05    3.08
   3  -2  -8  261.83    3.88
  -3   2   8  262.54    3.77
   3   2  -8  247.93    3.95
   3  -2  -8  258.62    3.89
  -3   2   8  272.84    3.83
   3  -2  -8  259.77    3.99
   3   2  -8  264.12    3.88
   3   2  -8  260.93    3.81
   3   2  -8  267.39    3.81
  -3   2   8  267.40    3.55
   3   2  -8  259.79    3.89
   3  -2  -8  262.31    3.96
  -3   2   8  271.35    4.03
   3  -2  -7  144.91    2.51
   3  -2  -7  141.13    2.71
  -3   2   7  149.59    2.61
   3   2  -7  142.40    2.83
   3  -2  -7  143.60    2.77
   3   2  -7  139.80    2.66
  -3   2   7  149.72    2.85
   3  -2  -7  150.40    2.87
  -3  -2   7  145.98    2.78
  -3   2   7  147.87    2.64
   3   2  -7  144.36    2.71
  -3   2   7  145.85    2.41
   3   2  -7  144.54    2.67
  -3   2   7  145.41    2.54
   3  -2  -7  143.32    2.74
   3   2  -7  141.29    2.72
  -3   2   7  148.41    2.62
   3  -2  -6   86.63    2.04
   3   2  -6   83.66    1.95
   3   2  -6   85.14    2.06
  -3   2   6   84.69    1.84
  -3   2   6   86.31    1.86
  -3   2   6   84.06    1.71
   3   2  -6   83.90    1.92
  -3   2   6   89.45    2.05
   3  -2  -6   86.05    1.86
   3   2  -6   83.44    1.91
   3  -2  -6   86.42    1.97
  -3  -2   6   80.32    1.91
   3  -2  -5   12.18    0.76
  -3   2   5   12.28    0.69
  -3   2   5   11.45    0.62
  -3   2   5   11.86    0.71
   3  -2  -5   12.55    0.77
  -3  -2   5   12.58    0.75
   3   2  -5   13.49    0.63
  -3   2   4  263.13    2.71
  -3   2   4  268.89    2.88
  -3  -2   4  279.89    3.01
   3  -2  -4  287.78    3.09
   3   2  -4  285.71    2.73
   3  -2  -4  275.46    2.94
  -3   2   4  281.29    2.97
   3  -2  -3   25.99    0.96
  -3   2   3   25.36    0.80
  -3   2   3   27.19    0.87
   3  -2  -3   27.28    0.85
  -3  -2   3   26.53    0.86
   3   2  -3   27.25    0.83
  -3   2   2  605.04    2.60
  -3   2   2  631.61    4.23
   3  -2  -2  627.59    4.35
  -3   2   2  603.32    4.08
   3  -2  -2  640.84    4.39
   3  -2  -2  617.71    3.72
   3   2  -2  610.48    4.03
  -3  -2   2  577.88    3.75
   3  -2  -1 1282.76    6.28
  -3  -2   1 1266.06    6.51
  -3   2   1 1271.66    4.83
  -3   2   1 1292.65    6.31
  -3   2   1 1255.44    6.32
  -3  -2   1 1256.22    4.83
   3  -2  -1 1254.33    5.33
  -3  -2   1 1227.56    5.60
  -3  -2   0  156.77    1.43
  -3  -2   0  155.27    1.92
  -3   2   0  160.80    1.51
   3  -2   0  157.72    2.02
  -3   2   0  152.68    1.91
   3  -2   0  159.37    1.96
   3  -2   0  144.68    1.07
  -3  -2   0  144.03    0.84
   3  -2   0  154.46    1.73
  -3   2  -1  679.59    4.45
  -3  -2  -1  665.74    4.22
   3   2   1  646.88    2.95
  -3   2  -1  638.70    3.71
   3  -2   1  634.00    3.55
   3  -2   1  656.31    4.22
   3  -2   2  429.33    2.52
   3   2   2  426.29    2.74
   3  -2   2  434.10    3.63
  -3  -2  -2  429.95    3.32
   3   2   3  783.47    4.45
   3  -2   3  791.03    5.44
   3   2   4  461.56    3.69
   3  -2   4  470.02    3.63
   3  -2   4  465.88    4.40
   3   2   5   57.51    1.40
  -3  -2  -5   58.58    1.48
   3  -2   5   59.82    1.68
   3  -2   5   60.84    1.24
  -3  -2  -5   55.40    1.47
   3   2   6   68.30    1.86
   3   2   6   71.27    1.75
  -3  -2  -6   66.18    1.72
   3  -2   6   68.86    1.88
  -3   2  -6   66.15    1.74
   3   2   6   69.25    1.83
   3   2   6   69.98    1.82
  -3   2  -6   67.46    1.89
  -3   2  -6   69.61    1.79
   3  -2   6   70.54    1.79
  -3   2  -6   66.08    1.88
   3   2   6   68.13    1.67
   3   2   6   67.24    1.85
   3  -2   6   66.86    1.80
  -3  -2  -6   70.65    1.79
   3  -2   6   68.09    1.71
   3   2   6   67.44    1.84
   3   2   6   66.76    1.76
   3   2   7   74.13    1.91
  -3   2  -7   73.00    1.98
  -3   2  -7   73.04    2.17
   3  -2   7   71.29    1.95
  -3   2  -7   71.95    1.93
   3  -2   7   72.23    2.00
  -3   2  -7   72.38    2.05
   3   2   7   75.99    1.95
   3   2   7   73.24    1.98
   3   2   7   74.80    2.02
   3   2   7   75.06    2.08
  -3  -2  -7   70.32    1.90
   3   2   7   74.11    2.03
   3  -2   7   73.99    1.93
   3   2   7   73.35    2.03
   3  -2   7   73.63    1.86
  -3  -2  -7   71.69    1.94
   3   2   7   80.23    2.13
   3   2   8   46.64    1.56
   3  -2   8   45.75    1.62
   3   2   8   45.53    1.65
  -3   2  -8   44.64    1.67
  -3   2  -8   44.54    1.80
  -3  -2  -8   48.39    1.82
   3  -2   8   46.32    1.63
   3   2   8   48.63    1.77
   3  -2   8   44.17    1.67
   3  -2   8   45.49    1.53
  -3   2  -8   42.23    1.66
   3   2   8   45.73    1.71
   3   2   8   45.60    1.69
   3   2   8   46.71    1.71
   3  -2   8   42.32    1.67
  -3  -2  -8   43.96    1.60
   3  -2   8   44.87    1.62
  -3   2  -8   45.98    1.68
   3   2   8   44.37    1.74
   3  -2   9  226.84    3.52
   3   2   9  233.52    3.82
  -3  -2  -9  242.58    3.98
  -3   2  -9  231.28    3.68
   3   2   9  232.63    3.73
   3  -2   9  234.40    3.69
  -3   2  -9  229.34    3.61
   3   2   9  224.48    3.69
  -3   2  -9  234.20    3.98
  -3   2  -9  230.70    3.47
   3  -2   9  236.36    3.51
  -3   2  -9  230.00    3.37
   3   2  10   33.87    1.41
  -3  -2 -10   34.99    1.57
  -3   2 -10   34.38    1.45
   3  -2  10   35.04    1.43
   3  -2  10   36.15    1.31
  -3   2 -10   33.92    1.37
   3  -2  10   32.85    1.30
   3   2  10   34.81    1.48
  -3   2 -10   33.67    1.28
  -3   2 -10   32.73    1.34
   3   2  10   33.49    1.48
   3   2  11    5.54    0.63
  -3  -2 -11    6.12    0.74
   3   2  11    4.93    0.63
  -3   2 -11    4.90    0.63
   3  -2  11    4.92    0.61
  -3   2 -11    5.34    0.60
   3  -2  11    5.34    0.54
   3   2  11    5.15    0.68
   3   2  11    4.91    0.66
   3  -2  11    4.70    0.50
   3   2  11    5.68    0.68
  -3  -2 -11    5.43    0.76
  -3   2 -11    5.23    0.55
   3  -2  12    1.79    0.37
   3   2  12    1.75    0.34
  -3  -2 -12    1.71    0.47
  -3  -2 -12    2.15    0.46
   3   2  12    2.21    0.45
  -3   2 -12    1.90    0.40
   3   2  12    2.33    0.41
   3   2  12    2.17    0.43
  -3   2 -12    1.92    0.48
  -3  -2 -12    2.00    0.49
  -3  -2 -12    1.65    0.44
   3   2  12    2.11    0.47
  -3  -2 -13   -0.05    0.22
  -3  -2 -13    0.04    0.19
  -3   2 -13    0.04    0.23
   3   2  13    0.02    0.15
  -3  -2 -13    0.13    0.19
  -3  -2 -13    0.16    0.23
   3  -3 -13   16.10    0.58
   3  -3 -13   15.32    0.50
   3   3 -13   17.08    0.60
   3  -3 -13   17.16    0.60
   3   3 -13   16.73    0.60
  -3   3  12    0.50    0.33
   3   3 -12    0.78    0.40
   3  -3 -12    0.70    0.37
   3  -3 -12    0.97    0.45
   3  -3 -12    0.69    0.37
   3   3 -12    0.46    0.43
   3  -3 -12    0.69    0.30
   3   3 -11    1.80    0.59
   3  -3 -11    1.11    0.44
   3  -3 -11    1.54    0.52
   3  -3 -11    1.41    0.50
   3  -3 -10   71.23    1.99
   3   3 -10   69.30    1.82
  -3   3  10   68.37    1.97
   3  -3 -10   65.36    1.91
  -3   3  10   66.74    1.73
   3   3 -10   71.17    2.08
   3   3 -10   64.80    1.73
  -3   3   9  117.02    2.35
   3   3  -9  127.43    2.56
   3   3  -9  114.09    2.41
   3  -3  -9  118.07    2.64
   3   3  -9  117.32    2.76
   3   3  -9  119.84    2.52
  -3   3   9  118.74    2.43
  -3   3   9  125.31    2.73
   3  -3  -9  118.80    2.64
  -3   3   9  118.10    2.46
  -3   3   8    7.59    0.78
  -3   3   8    7.46    0.81
   3  -3  -8    6.72    0.86
  -3   3   8    7.59    0.74
  -3   3   8    8.06    0.79
  -3  -3   8    6.30    0.77
   3  -3  -8    6.90    0.79
   3  -3  -8    7.69    0.82
   3   3  -8    8.17    0.89
   3   3  -8    9.45    0.82
  -3   3   8    6.51    0.74
   3   3  -8    7.13    0.77
   3  -3  -8    6.91    0.81
  -3   3   7   40.23    1.47
   3  -3  -7   38.08    1.50
   3   3  -7   39.73    1.61
   3   3  -7   39.68    1.47
  -3   3   7   39.02    1.47
  -3   3   7   37.68    1.52
  -3   3   7   40.56    1.46
  -3   3   7   39.49    1.54
   3  -3  -7   38.46    1.54
   3   3  -7   39.43    1.48
  -3  -3   7   38.46    1.55
   3  -3  -7   39.71    1.64
   3   3  -7   33.50    1.46
  -3   3   7   39.23    1.52
   3  -3  -7   37.13    1.54
  -3   3   6  160.45    2.80
   3   3  -6  165.29    3.00
   3   3  -6  165.81    2.81
   3   3  -6  164.10    2.84
   3  -3  -6  159.73    3.04
  -3   3   6  159.55    2.84
  -3   3   6  161.36    2.86
  -3  -3   6  161.08    2.85
  -3   3   6  167.34    2.91
  -3   3   6  162.17    2.80
   3  -3  -6  152.09    2.81
  -3   3   6  163.41    2.72
   3  -3  -6  166.41    2.97
   3   3  -6  146.79    2.78
  -3   3   5  114.09    2.34
  -3   3   5  109.59    2.21
  -3   3   5  112.36    2.25
  -3   3   5  120.23    2.17
  -3   3   5  106.72    2.17
   3   3  -5  111.84    2.33
   3   3  -5  102.58    2.19
   3   3  -5  115.11    2.26
   3  -3  -5  105.02    2.15
  -3  -3   5  116.06    2.22
  -3   3   5  114.17    2.28
   3  -3  -4    6.96    0.69
  -3   3   4    6.60    0.61
  -3   3   4    6.26    0.55
   3  -3  -4    6.04    0.56
  -3  -3   4    6.62    0.55
  -3   3   3 1033.45    6.24
   3  -3  -3 1005.23    6.73
  -3  -3   3 1010.66    5.96
  -3   3   3 1013.35    6.47
   3  -3  -3 1025.87    6.76
  -3  -3   2  793.41    5.42
  -3   3   2  764.04    5.32
   3  -3  -2  752.42    4.60
   3  -3  -2  768.38    5.38
  -3  -3   2  754.52    4.56
  -3   3   2  784.84    5.18
   3  -3  -1  908.11    5.66
  -3  -3   1  928.75    5.73
   3  -3  -1  910.55    5.93
  -3   3   1  922.80    5.68
  -3  -3   1  912.40    4.61
   3  -3   0  134.86    1.85
  -3  -3   0  136.60    1.95
   3  -3   0  139.63    2.10
  -3   3  -1  828.19    5.49
   3  -3   1  824.52    5.40
  -3  -3  -2  984.78    5.71
   3   3   2  970.17    4.88
   3  -3   2 1009.10    6.06
   3  -3   2  948.00    6.43
  -3   3  -2 1009.46    6.42
   3   3   3   31.44    0.88
  -3  -3  -3   32.46    0.99
   3  -3   3   30.43    0.99
   3  -3   3   31.88    1.19
  -3   3  -3   31.72    1.15
   3   3   4  315.79    3.75
  -3   3  -4  309.92    3.65
  -3  -3  -4  308.84    3.19
   3   3   4  307.29    3.13
  -3   3  -4  311.84    3.50
   3  -3   4  304.45    3.75
  -3   3  -5  258.01    3.52
  -3   3  -5  255.41    3.55
   3   3   5  260.03    3.57
   3   3   5  266.23    3.24
  -3  -3  -5  268.03    3.18
  -3  -3  -5  260.69    3.53
  -3   3  -5  258.72    3.35
   3   3   5  264.97    3.42
   3   3   5  260.98    3.65
   3   3   5  263.04    3.59
   3  -3   5  275.18    3.80
   3   3   5  261.77    3.55
  -3   3  -6  265.40    3.91
   3   3   6  260.38    3.52
   3   3   6  266.21    3.69
   3  -3   6  266.85    3.89
   3   3   6  259.73    3.70
   3   3   6  267.45    3.83
   3   3   6  270.44    3.71
  -3   3  -6  270.88    3.73
  -3   3  -6  265.32    4.01
  -3  -3  -6  271.48    3.88
   3   3   6  272.67    3.85
  -3   3  -6  261.28    3.59
   3   3   6  262.83    3.89
   3   3   6  259.25    3.75
   3   3   7   72.70    2.04
  -3  -3  -7   72.20    2.15
   3  -3   7   75.57    2.13
   3   3   7   73.32    2.01
   3   3   7   68.40    2.01
   3   3   7   72.34    2.05
  -3   3  -7   73.43    2.22
  -3   3  -7   73.21    2.06
   3  -3   7   75.33    2.00
  -3   3  -7   72.01    2.17
   3   3   7   76.72    2.18
   3   3   7   72.83    2.14
   3   3   8  242.52    3.64
  -3  -3  -8  250.18    3.89
   3   3   8  243.57    3.79
  -3   3  -8  251.83    4.07
  -3   3  -8  246.94    3.73
   3  -3   8  242.06    3.59
   3   3   8  239.38    3.84
   3   3   8  246.56    3.75
  -3   3  -8  240.69    3.95
   3   3   8  240.40    3.59
   3   3   8  250.44    3.95
   3   3   9  131.26    2.53
  -3  -3  -9  134.65    2.82
   3   3   9  132.45    2.81
   3   3   9  129.90    2.71
   3   3   9  131.61    2.58
  -3   3  -9  133.99    2.75
  -3   3  -9  133.65    2.94
   3   3   9  131.44    2.76
   3  -3   9  142.02    2.51
   3  -3   9  135.05    2.58
  -3   3  -9  140.13    2.85
   3   3  10   17.67    1.03
  -3  -3 -10   16.71    1.04
   3  -3  10   15.66    0.87
  -3   3 -10   17.57    1.16
   3   3  10   16.41    0.93
   3   3  10   15.72    1.02
  -3   3 -10   16.13    1.01
   3   3  10   15.76    0.96
   3   3  11   10.78    0.77
  -3  -3 -11   10.04    0.75
   3   3  11   10.74    0.73
   3   3  11   11.93    0.77
   3   3  11    9.60    0.63
  -3   3 -11   11.07    0.87
   3   3  11   11.34    0.77
  -3  -3 -11   10.77    0.77
  -3  -3 -12    8.57    0.49
  -3  -3 -12    9.09    0.52
  -3  -3 -12    9.99    0.63
   3   3  12    8.77    0.48
  -3   3 -12    9.90    0.64
   3   3  12   10.77    0.59
   3  -4 -12   13.35    0.63
   3   4 -12   14.48    0.63
  -3   4  11    1.81    0.42
   3   4 -11    1.33    0.42
   3  -4 -11    1.36    0.47
   3   4 -11    1.91    0.49
   3  -4 -11    1.62    0.37
  -3   4  10   48.36    1.36
  -3   4  10   48.38    1.35
   3  -4 -10   54.10    1.52
   3   4 -10   54.73    1.65
  -3   4  10   54.07    1.58
   3  -4 -10   49.63    1.51
   3   4 -10   55.77    1.69
  -3   4   9   26.16    1.23
  -3   4   9   25.27    1.17
   3  -4  -9   27.08    1.22
   3   4  -9   29.70    1.39
  -3   4   9   28.58    1.30
   3   4  -9   28.81    1.33
   3  -4  -9   24.65    1.19
  -3   4   9   27.80    1.24
  -3   4   8   20.72    1.22
  -3   4   8   19.98    1.13
   3   4  -8   21.64    1.24
  -3   4   8   20.93    1.19
   3   4  -8   21.80    1.26
  -3   4   8   19.95    1.13
  -3   4   7  399.86    4.76
  -3   4   7  405.94    4.81
   3   4  -7  393.38    4.90
  -3   4   7  400.78    4.83
   3   4  -7  398.49    5.00
  -3   4   7  394.93    4.88
  -3   4   6   86.89    2.31
  -3   4   6   85.24    2.21
  -3   4   6   83.77    2.26
  -3  -4   6   81.97    2.16
   3   4  -6   88.57    2.26
   3  -4  -6   83.19    2.23
  -3   4   6   85.01    2.21
   3  -4  -6   88.28    2.45
   3   4  -6   91.54    2.21
  -3   4   6   85.85    2.22
   3   4  -6   85.29    2.29
  -3   4   5   94.98    2.36
  -3   4   5  100.16    2.32
   3   4  -5  105.80    2.34
   3  -4  -5  102.04    2.55
   3   4  -5  102.01    2.31
  -3  -4   5   99.92    2.21
   3  -4  -5  103.31    2.56
   3  -4  -5   96.71    2.23
  -3   4   5  100.83    2.35
   3   4  -5  101.54    2.37
  -3   4   4   61.81    1.79
  -3   4   4   64.59    1.81
   3   4  -4   65.63    1.81
   3   4  -4   62.62    1.75
  -3   4   4   64.01    1.60
   3  -4  -4   56.42    1.84
   3  -4  -4   60.39    1.65
  -3   4   4   62.13    1.88
   3  -4  -4   61.42    1.86
   3   4  -4   61.64    1.80
  -3  -4   4   59.95    1.57
  -3  -4   3   21.02    1.04
  -3   4   3   18.85    1.06
   3   4  -3   19.34    0.96
  -3   4   3   20.90    0.93
   3   4  -3   19.13    1.00
   3   4  -3   19.40    1.00
   3  -4  -3   17.37    0.83
   3  -4  -3   19.01    1.05
   3  -4  -3   19.94    1.07
  -3  -4   2    2.18    0.43
  -3   4   2    1.84    0.53
  -3   4   2    2.16    0.53
  -3   4   2    2.84    0.45
  -3   4   2    2.07    0.48
   3   4  -2    2.12    0.45
   3   4  -2    1.84    0.46
   3  -4  -2    2.11    0.53
   3  -4  -2    1.88    0.45
  -3  -4   1   44.12    1.28
  -3   4   1   45.99    1.43
  -3   4   1   46.44    1.32
  -3   4   1   43.96    1.42
  -3   4   1   42.26    1.36
   3  -4  -1   43.42    1.40
   3   4  -1   41.84    1.36
   3   4  -1   42.40    1.34
   3  -4  -1   44.43    1.37
   3  -4   0   29.55    1.00
  -3   4   0   28.19    1.16
  -3   4   0   29.96    1.14
  -3   4   0   28.24    1.07
  -3   4   0   28.09    1.12
  -3  -4   0   30.75    1.03
   3  -4   0   31.13    1.19
   3  -4   0   30.43    1.21
   3   4   0   28.82    1.15
  -3   4  -1   40.83    1.33
  -3  -4  -1   40.75    1.14
  -3   4  -1   41.31    1.33
   3   4   1   40.17    1.35
   3  -4   1   39.62    1.28
  -3   4  -1   42.79    1.33
   3  -4   1   42.57    1.41
  -3   4  -1   40.53    1.39
   3   4   1   40.34    1.38
  -3   4  -2   84.27    1.84
  -3   4  -2   80.01    1.94
   3   4   2   82.88    2.03
  -3   4  -2   85.09    1.90
   3  -4   2   81.97    1.76
  -3   4  -2   82.05    1.89
  -3   4  -2   78.62    1.93
   3  -4   2   86.39    1.99
   3   4   3  251.98    3.62
  -3   4  -3  259.60    3.21
  -3   4  -3  257.41    3.33
   3   4   3  243.82    3.14
   3   4   3  248.40    3.43
   3  -4   3  237.16    3.46
  -3   4  -3  232.21    3.49
   3   4   3  243.44    3.60
   3   4   4   21.15    1.20
  -3  -4  -4   22.30    1.18
  -3   4  -4   21.12    1.22
   3   4   4   22.61    1.16
   3   4   4   22.34    1.05
   3  -4   4   24.23    1.24
   3   4   4   22.64    1.09
  -3   4  -4   22.14    1.12
   3   4   4   23.42    1.26
   3   4   5   72.50    2.14
   3  -4   5   78.65    2.24
   3   4   5   80.37    2.19
  -3   4  -5   82.42    2.13
   3   4   5   81.90    2.00
  -3  -4  -5   77.88    2.17
   3   4   5   82.69    2.23
  -3   4  -5   77.22    2.14
  -3   4  -5   79.56    2.31
   3   4   5   77.85    2.07
   3   4   5   78.72    2.02
   3   4   6  256.76    4.01
   3   4   6  266.90    4.07
  -3   4  -6  273.48    3.78
  -3   4  -6  255.18    3.79
   3   4   6  264.84    3.72
  -3  -4  -6  258.91    4.18
  -3   4  -6  269.66    4.00
   3   4   6  265.07    3.94
   3   4   6  252.49    3.81
   3   4   7    8.60    0.92
  -3   4  -7    8.54    0.97
   3   4   7    7.95    0.80
  -3   4  -7    8.98    1.02
  -3   4  -7    9.63    0.90
   3   4   7    7.39    0.86
   3   4   7    8.88    0.89
   3   4   8    5.77    0.77
  -3  -4  -8    5.58    0.70
  -3   4  -8    6.64    0.90
   3   4   8    5.81    0.75
  -3   4  -8    5.93    0.77
  -3   4  -8    6.15    0.84
   3   4   8    6.67    0.75
   3   4   9    1.55    0.52
  -3   4  -9    1.46    0.62
  -3  -4  -9    1.06    0.48
   3   4   9    1.55    0.42
  -3   4  -9    1.42    0.70
   3   4   9    1.77    0.52
  -3   4  -9    1.13    0.55
   3   4   9    1.84    0.55
   3   4  10    3.19    0.55
   3   4  10    3.19    0.48
   3   4  10    3.80    0.57
  -3  -4 -10    2.90    0.47
   3   4  10    3.43    0.43
   3   4  10    3.43    0.57
  -3   4 -10    3.08    0.58
  -3   4 -10    3.02    0.57
   3   4  11   16.25    0.75
   3   4  11   16.13    0.74
  -3   4 -11   15.14    0.77
   3   4  11   15.98    0.74
  -3  -4 -11   16.36    0.79
  -3   5  11   33.58    0.84
   3  -5 -11   31.91    0.85
  -3   5  10    2.55    0.44
  -3   5  10    2.67    0.41
   3   5 -10    3.21    0.49
  -3   5  10    2.53    0.34
  -3   5  10    2.98    0.48
  -3   5   9    3.59    0.61
  -3   5   9    3.29    0.54
   3   5  -9    3.54    0.59
  -3   5   8   17.25    1.11
  -3   5   8   18.01    1.05
   3   5  -8   20.02    1.14
   3   5  -8   16.18    0.89
  -3   5   7    8.12    0.93
   3   5  -7    7.49    0.71
  -3   5   7    8.27    0.85
   3   5  -7    8.87    0.92
  -3   5   6   54.46    1.83
  -3   5   6   52.30    1.81
   3   5  -6   51.95    1.82
  -3   5   5  162.63    3.20
  -3   5   5  155.51    3.02
   3   5  -5  158.83    3.03
  -3   5   4   93.22    2.42
  -3   5   4   97.05    2.33
  -3   5   4   94.88    2.41
  -3   5   4   96.36    2.33
   3  -5  -4   93.26    2.57
   3   5  -4   93.16    2.31
   3   5  -4   94.61    2.23
   3  -5  -4   93.90    2.59
  -3   5   3   25.47    1.36
  -3   5   3   27.30    1.31
   3  -5  -3   25.96    1.41
   3  -5  -3   23.32    1.32
  -3   5   3   25.60    1.31
  -3   5   3   26.25    1.28
   3   5  -3   24.39    1.22
   3   5  -3   26.80    1.28
  -3   5   2  124.42    2.63
  -3   5   2  125.88    2.61
  -3   5   2  128.06    2.65
   3   5  -2  124.93    2.58
  -3   5   2  127.04    2.58
   3  -5  -2  127.40    2.77
   3   5  -2  126.56    2.56
   3  -5  -2  125.15    2.66
   3   5  -1   80.75    2.02
  -3   5   1   83.13    2.10
  -3   5   1   87.22    2.14
  -3   5   1   82.63    2.15
   3  -5  -1   86.74    2.30
   3  -5  -1   80.62    2.17
   3   5  -1   85.40    2.12
  -3   5   1   83.37    2.09
   3  -5   0  642.55    6.19
   3  -5   0  636.75    5.92
  -3   5   0  660.13    5.82
   3   5   0  623.59    5.92
  -3   5   0  663.14    5.86
  -3   5   0  654.55    6.02
   3   5   0  644.47    5.96
   3   5   1   72.62    2.00
   3   5   1   72.25    2.06
  -3   5  -1   78.73    1.95
  -3   5  -1   75.77    2.08
  -3   5  -1   74.28    1.95
   3  -5   1   75.73    2.08
   3   5   2   59.61    1.94
  -3   5  -2   57.13    1.75
  -3   5  -2   59.32    1.69
  -3   5  -2   60.60    1.89
  -3   5  -2   57.86    1.80
   3   5   2   59.73    1.92
   3  -5   2   61.23    1.92
   3   5   3   28.87    1.44
   3   5   3   28.76    1.46
   3   5   3   26.91    1.24
  -3   5  -3   29.80    1.42
  -3   5  -3   28.81    1.32
  -3   5  -3   25.64    1.32
   3  -5   3   27.94    1.37
   3   5   4  217.65    3.73
   3   5   4  200.12    3.40
  -3   5  -4  211.37    3.53
  -3   5  -4  203.39    3.61
  -3  -5  -4  198.68    3.64
  -3   5  -4  218.15    3.36
   3   5   4  204.91    3.21
   3   5   5  112.90    2.75
   3   5   5  109.77    2.59
  -3   5  -5  110.22    2.72
  -3   5  -5  117.08    2.48
  -3   5  -5  118.51    2.70
   3   5   5  109.18    2.45
   3   5   6   34.86    1.54
  -3   5  -6   36.53    1.65
   3   5   6   34.44    1.46
  -3   5  -6   36.14    1.46
   3   5   7   65.04    1.75
   3   5   7   69.72    2.06
   3   5   7   69.48    2.07
   3   5   7   68.85    1.95
  -3   5  -7   71.17    2.18
   3   5   8    3.96    0.55
   3   5   8    3.62    0.65
   3   5   8    4.45    0.69
   3   5   8    4.00    0.60
   3   5   9   12.78    0.81
   3   5   9   13.81    0.86
  -3   5  -9   13.99    0.94
   3   5   9   12.56    0.80
   3   5  10    2.28    0.36
  -3  -5 -10    3.38    0.45
   3   5  10    3.07    0.42
  -3   6  10    6.36    0.34
  -3   6   9    7.26    0.52
  -3   6   9    8.45    0.55
  -3   6   9    7.30    0.56
   3  -6  -9    6.55    0.45
  -3   6   8    5.80    0.68
  -3   6   8    5.30    0.59
  -3   6   8    5.97    0.61
   3   6  -8    5.30    0.55
  -3   6   7   18.44    1.03
   3   6  -7   19.40    0.99
  -3   6   7   18.34    0.86
  -3   6   7   20.22    1.03
  -3   6   6   10.60    0.97
  -3   6   6    9.84    0.76
  -3   6   6    9.93    0.84
   3   6  -6   10.72    0.83
  -3   6   5    7.30    0.86
  -3   6   5    7.85    0.75
  -3   6   5    7.91    0.79
   3   6  -5    8.76    0.80
  -3   6   5    8.87    0.96
  -3   6   4   18.90    1.21
  -3   6   4   18.98    1.09
  -3   6   4   17.94    1.11
  -3   6   4   20.40    1.15
  -3   6   3   23.38    1.27
  -3   6   3   23.10    1.22
  -3   6   3   22.56    1.26
  -3   6   3   24.17    1.26
  -3   6   2  100.26    2.34
  -3   6   2   95.98    2.30
  -3   6   2  100.18    2.37
  -3   6   2  100.59    2.38
  -3   6   1  134.01    2.69
  -3   6   1  142.56    2.70
  -3   6   1  141.30    2.82
  -3   6   0  107.83    2.37
  -3   6   0  113.87    2.57
  -3   6   0  111.76    2.41
   3   6   1   12.85    0.98
  -3   6  -1   14.36    0.97
  -3   6  -1   15.43    1.12
  -3   6  -1   15.18    1.02
   3   6   2   52.92    1.81
  -3   6  -2   51.91    1.57
  -3   6  -2   57.76    1.71
  -3   6  -2   56.67    1.88
   3   6   3   21.70    1.28
  -3   6  -3   22.03    1.16
  -3   6  -3   18.64    1.12
  -3   6  -3   22.45    1.27
   3   6   4   38.03    1.45
  -3   6  -4   39.67    1.59
   3   6   4   41.66    1.68
  -3   6  -4   44.22    1.49
  -3   6  -4   41.76    1.64
   3   6   5   50.11    1.82
   3   6   5   47.00    1.60
  -3   6  -5   47.91    1.72
  -3   6  -5   51.52    1.78
   3   6   6    9.98    0.93
   3   6   6    9.59    0.81
  -3   6  -6   11.47    0.99
  -3   6  -6   10.36    0.93
   3   6   6    9.72    0.71
   3   6   7    7.47    0.69
  -3   6  -7    8.46    0.87
   3   6   7    7.36    0.61
   3   6   8    3.68    0.54
   3   6   8    3.49    0.49
  -3   6  -8    3.81    0.62
   3   6   8    3.50    0.41
   3   6   9    5.52    0.42
  -3  -6  -9    4.31    0.34
  -3   7   8    0.43    0.21
  -3   7   8    0.43    0.18
  -3   7   7    6.38    0.47
  -3   7   7    6.30    0.56
  -3   7   6    1.55    0.52
  -3   7   6    1.80    0.40
  -3   7   6    1.86    0.45
  -3   7   5    0.62    0.51
  -3   7   5    0.76    0.46
  -3   7   5    0.55    0.42
  -3   7   4    3.41    0.65
  -3   7   4    3.13    0.59
  -3   7   4    2.30    0.46
  -3   7   4    3.07    0.55
  -3   7   3   16.87    0.97
  -3   7   3   18.23    1.00
  -3   7   3   16.58    0.89
  -3   7   3   18.61    0.96
  -3   7   2    6.54    0.67
  -3   7   2    7.14    0.74
  -3   7   2    6.88    0.72
  -3   7   2    7.35    0.73
  -3   7   1    7.34    0.72
  -3   7   1    7.98    0.77
  -3   7   1    9.07    0.76
  -3   7   0    5.92    0.65
  -3   7   0    5.41    0.72
  -3   7   0    6.10    0.69
  -3   7  -1   16.23    0.92
  -3   7  -1   15.74    1.00
   3   7   2   15.29    0.91
  -3   7  -2   16.53    1.04
  -3   7  -2   17.09    0.92
   3   7   3    3.93    0.61
  -3   7  -3    3.87    0.69
  -3   7  -3    4.38    0.59
   3   7   4    8.28    0.74
  -3   7  -4    8.97    0.65
  -3   7  -4    8.45    0.80
   3   7   5   15.95    0.90
  -3   7  -5   16.88    0.93
   3   7   6    2.80    0.47
   3   7   6    2.03    0.31
  -3   7  -6    2.79    0.53
  -3   7  -7    4.77    0.44
   3   7   7    5.09    0.44
  -3   8   4    8.00    0.41
  -3   8   3    7.14    0.43
  -3   8   3    7.13    0.39
  -3   8   2    0.23    0.24
  -3   8   1    1.42    0.29
  -3   8  -2    6.42    0.42
   4   0 -13   26.24    0.81
   4   0 -13   31.50    1.02
   4   0 -13   27.10    0.78
   4   0 -13   32.21    0.93
   4   0 -13   30.72    0.99
   4   0 -13   27.23    0.97
   4   0 -12   10.89    0.79
   4   0 -12    9.12    0.71
   4   0 -12   11.34    0.87
   4   0 -12    9.01    0.63
   4   0 -12    8.82    0.76
   4   0 -12    9.29    0.69
   4   0 -11    5.89    0.71
   4   0 -11    6.76    0.74
   4   0 -11    5.61    0.82
   4   0 -11    6.44    0.79
  -4   0  11    6.56    0.75
   4   0 -11    6.33    0.82
   4   0 -11    6.38    0.71
   4   0 -10   17.84    1.13
   4   0 -10   19.02    1.19
  -4   0  10   20.29    1.21
   4   0 -10   18.73    1.16
   4   0 -10   19.02    1.12
   4   0  -9  121.52    2.73
  -4   0   9  121.69    2.77
   4   0  -9  122.22    2.75
   4   0  -9  120.10    2.55
  -4   0   8  148.56    2.92
   4   0  -8  154.56    2.99
  -4   0   8  157.44    3.07
   4   0  -8  150.26    2.94
   4   0  -8  150.74    2.98
   4   0  -8  151.54    2.81
   4   0  -7  218.69    3.37
   4   0  -7  214.81    3.44
  -4   0   7  219.54    3.45
   4   0  -7  224.16    3.16
   4   0  -7  220.41    3.19
  -4   0   7  217.25    3.29
  -4   0   6  343.89    3.92
   4   0  -6  339.14    4.04
  -4   0   6  347.77    4.07
   4   0  -6  340.11    3.74
  -4   0   6  344.49    3.92
  -4   0   5   10.00    0.66
  -4   0   5    9.60    0.48
   4   0  -5    8.29    0.64
   4   0  -5    8.10    0.52
   4   0  -5    8.91    0.65
  -4   0   5   10.88    0.71
  -4   0   4  396.14    3.46
   4   0  -4  393.34    3.20
  -4   0   4  409.10    3.63
   4   0  -4  393.35    2.60
   4   0  -4  398.03    3.64
  -4   0   4  395.83    2.85
   4   0  -4  382.78    3.54
   4   0  -3   10.59    0.58
  -4   0   3   11.14    0.58
  -4   0   3   10.70    0.57
  -4   0   3   11.32    0.41
   4   0  -3   12.51    0.68
   4   0  -3    9.90    0.39
   4   0  -3   11.14    0.58
  -4   0   2  679.27    4.45
   4   0  -2  681.85    4.19
  -4   0   2  689.88    4.34
  -4   0   2  682.55    4.27
   4   0  -2  692.26    4.33
   4   0  -2  681.92    3.61
  -4   0   1  663.83    4.22
  -4   0   1  652.83    4.11
   4   0  -1  651.64    4.16
   4   0  -1  671.08    4.26
   4   0  -1  668.59    3.70
   4   0   0   24.53    0.73
  -4   0   0   25.68    0.78
  -4   0   0   24.88    0.72
   4   0   0   26.38    0.78
   4   0   0   26.06    0.86
   4   0   1  566.36    3.65
  -4   0  -1  558.80    3.88
   4   0   1  561.40    3.92
   4   0   2  122.92    1.88
   4   0   2  122.47    1.59
  -4   0  -2  125.64    1.87
  -4   0  -2  118.88    1.63
   4   0   2  120.38    1.81
   4   0   3 1205.16    7.01
  -4   0  -3 1211.20    6.34
   4   0   3 1209.55    6.72
   4   0   4 1573.59    8.85
   4   0   4 1656.88    8.40
   4   0   5 1757.34    9.68
   4   0   6   22.29    1.04
   4   0   6   20.58    1.08
   4   0   6   23.37    1.13
   4   0   6   21.06    1.09
  -4   0  -6   20.54    1.14
   4   0   6   22.72    1.07
  -4   0  -6   23.28    1.06
   4   0   7   23.86    1.18
   4   0   7   23.79    1.21
   4   0   7   22.65    1.15
  -4   0  -7   23.51    1.28
   4   0   7   22.69    1.12
   4   0   7   22.68    1.21
   4   0   7   21.59    1.13
   4   0   7   22.57    1.19
   4   0   8    6.93    0.75
   4   0   8    7.62    0.86
  -4   0  -8    8.18    0.91
   4   0   8    8.20    0.83
  -4   0  -8    8.57    0.90
   4   0   8    7.78    0.81
   4   0   8    7.73    0.74
   4   0   8    7.57    0.83
   4   0   9    0.66    0.49
  -4   0  -9    0.20    0.67
   4   0   9   -0.05    0.49
   4   0   9    0.28    0.39
  -4   0  -9    0.79    0.61
   4   0   9    0.26    0.53
  -4   0  -9    0.06    0.50
   4   0  10    1.07    0.52
   4   0  10    1.39    0.57
  -4   0 -10    0.85    0.56
   4   0  10    1.30    0.56
  -4   0 -10    1.63    0.61
  -4   0 -10    1.29    0.54
  -4   0 -11   15.30    1.03
   4   0  11   15.56    0.95
  -4   0 -11   14.87    0.97
   4   0  11   16.11    0.94
  -4   0 -11   14.09    0.86
   4   0  11   14.53    0.89
  -4   0 -12    9.34    0.66
  -4   0 -12   10.07    0.73
  -4   0 -12    9.99    0.71
   4   0  12   10.14    0.68
   4   0  12   10.21    0.61
  -4   0 -12    9.54    0.59
   4   0  12    9.90    0.60
  -4   0 -13    2.02    0.26
  -4   0 -13    2.33    0.28
   4  -1 -13   31.51    0.79
   4  -1 -13   33.71    1.02
   4   1 -13   34.22    0.98
   4  -1 -13   33.02    1.02
   4   1 -13   36.65    1.04
   4   1 -13   32.90    0.78
   4  -1 -13   35.90    1.01
   4  -1 -13   31.40    1.01
   4   1 -13   31.39    0.85
   4   1 -13   35.08    0.94
   4  -1 -12    0.32    0.43
   4   1 -12    0.24    0.43
   4   1 -12    0.70    0.46
   4   1 -12    0.56    0.47
   4  -1 -12    0.50    0.47
   4   1 -12    0.59    0.42
   4  -1 -12    0.28    0.32
   4  -1 -12    0.39    0.49
   4  -1 -12    0.44    0.33
   4   1 -12    0.39    0.42
   4  -1 -12    0.04    0.47
   4   1 -12    0.54    0.42
  -4   1  11   35.07    1.46
   4   1 -11   36.14    1.42
   4  -1 -11   35.58    1.46
   4  -1 -11   33.03    1.29
   4   1 -11   35.69    1.47
   4   1 -11   35.29    1.49
   4  -1 -11   38.00    1.55
   4   1 -11   36.57    1.55
   4  -1 -11   36.07    1.51
   4  -1 -11   33.09    1.45
   4   1 -11   37.30    1.47
   4  -1 -11   35.22    1.26
   4   1 -11   34.67    1.37
   4   1 -10   29.44    1.26
   4  -1 -10   28.05    1.30
   4   1 -10   29.55    1.47
   4  -1 -10   30.05    1.46
   4   1 -10   29.02    1.45
   4  -1 -10   29.02    1.46
   4   1 -10   29.65    1.42
  -4  -1  10   31.33    1.40
   4  -1 -10   28.38    1.43
   4   1 -10   30.19    1.44
   4  -1 -10   28.78    1.27
   4   1 -10   29.27    1.36
  -4   1  10   26.43    1.42
   4   1 -10   28.36    1.44
   4   1  -9  352.56    4.78
   4   1  -9  338.38    4.25
   4  -1  -9  333.32    4.40
   4   1  -9  350.89    4.75
   4  -1  -9  349.41    4.74
   4   1  -9  339.16    4.65
   4  -1  -9  349.86    4.77
  -4  -1   9  342.95    4.56
   4   1  -9  341.77    4.52
   4   1  -9  335.30    4.60
   4  -1  -9  348.27    4.23
   4   1  -9  337.75    4.43
  -4   1   8  362.25    4.44
   4   1  -8  371.52    4.69
   4   1  -8  365.07    4.81
   4   1  -8  364.15    4.43
   4  -1  -8  374.84    4.55
   4   1  -8  380.29    4.83
   4  -1  -8  367.93    4.74
  -4   1   8  360.96    4.63
   4   1  -8  375.09    4.81
   4  -1  -8  369.69    4.53
   4  -1  -8  378.76    4.87
   4   1  -8  376.87    4.69
  -4  -1   8  355.93    4.68
   4   1  -8  364.42    4.52
  -4  -1   8  378.93    4.66
   4   1  -7   88.46    2.17
   4   1  -7   82.42    2.21
   4  -1  -7   81.66    2.03
   4   1  -7   85.73    2.03
   4  -1  -7   82.69    2.13
   4   1  -7   87.30    2.22
  -4   1   7   86.95    2.09
   4   1  -7   85.76    2.18
  -4   1   7   89.24    1.91
  -4  -1   7   84.07    2.10
   4  -1  -7   83.03    2.19
   4   1  -7   84.25    2.11
   4   1  -7   83.91    2.05
   4  -1  -7   82.94    2.09
  -4   1   7   81.76    1.98
   4   1  -6  134.77    2.45
   4   1  -6  130.13    2.54
   4   1  -6  123.03    2.37
   4   1  -6  131.32    2.56
   4  -1  -6  130.12    2.46
  -4   1   6  127.72    2.37
   4   1  -6  128.36    2.53
   4   1  -6  134.90    2.24
   4  -1  -6  128.21    2.37
  -4   1   6  133.12    2.17
   4  -1  -6  126.54    2.51
   4   1  -6  124.83    2.33
   4  -1  -6  129.11    2.39
   4  -1  -6  127.76    2.08
   4   1  -6  127.96    2.47
   4   1  -6  127.69    2.37
  -4   1   6  129.15    2.31
  -4   1   5  430.87    4.05
  -4   1   5  414.10    3.42
   4  -1  -5  391.21    4.01
   4   1  -5  432.26    3.89
  -4   1   5  429.53    3.68
   4  -1  -5  411.08    3.71
   4  -1  -5  417.40    4.04
  -4  -1   5  411.15    4.11
  -4   1   4  592.27    4.56
  -4   1   4  575.05    3.88
  -4   1   4  595.29    4.18
   4  -1  -4  588.97    4.68
   4   1  -4  603.05    4.50
   4  -1  -4  601.42    4.43
   4   1  -4  587.06    3.58
   4  -1  -4  577.01    4.41
  -4  -1   4  589.42    4.72
  -4   1   3 3885.23   14.79
  -4  -1   3 3848.41   15.01
  -4   1   3 3840.34   13.73
  -4  -1   3 3848.73   14.20
  -4  -1   3 3869.48   14.81
   4   1  -3 3891.76   14.73
   4  -1  -3 3840.12   14.76
  -4   1   3 3776.58   13.85
   4   1  -3 3823.73   13.67
   4  -1  -3 3849.46   14.32
  -4   1   2  388.08    3.29
  -4  -1   2  385.48    3.39
  -4   1   2  381.78    2.82
   4   1  -2  378.20    2.97
  -4  -1   2  345.38    2.84
  -4   1   2  374.92    2.84
  -4   1   2  374.62    3.26
   4  -1  -2  409.31    3.22
   4   1  -2  372.38    3.23
   4  -1  -2  381.77    3.32
   4  -1  -2  386.97    3.34
   4  -1  -2  350.58    2.74
  -4  -1   2  383.74    3.19
  -4  -1   1  106.70    1.52
   4  -1  -1  110.22    1.35
  -4  -1   1  111.45    1.74
  -4   1   1  101.41    1.39
   4   1  -1  102.99    1.15
  -4  -1   1  115.12    1.43
   4  -1  -1  112.57    1.66
   4  -1  -1  112.64    1.58
   4  -1  -1  114.30    1.72
  -4   1   1  110.58    1.65
   4   1   0  539.27    3.32
  -4   1   0  530.06    3.55
  -4  -1   0  531.45    3.15
  -4   1   0  538.35    3.85
   4   1   0  540.45    3.83
   4  -1   0  535.62    3.66
  -4   1  -1   19.54    0.70
   4   1   1   18.46    0.68
   4  -1   1   19.92    0.65
   4   1   1   19.91    0.71
  -4   1  -1   20.36    0.77
  -4  -1  -1   19.86    0.56
   4  -1   1   20.17    0.81
   4   1   1   20.76    0.77
   4  -1   1   20.15    0.79
   4  -1   2  132.62    1.59
  -4  -1  -2  138.02    2.02
  -4  -1  -2  135.03    1.53
  -4   1  -2  138.08    1.92
   4   1   2  134.15    1.88
   4  -1   2  134.51    2.00
   4  -1   2  134.01    2.07
  -4   1  -2  128.55    1.90
   4  -1   3 1147.56    6.55
  -4  -1  -3 1166.03    6.87
  -4   1  -3 1088.90    6.63
   4   1   3 1157.24    6.62
  -4   1  -3 1168.84    6.70
   4   1   3 1064.02    6.53
   4  -1   3 1146.09    7.08
  -4  -1  -4  959.93    6.43
  -4   1  -4  958.26    6.52
   4   1   4  948.59    5.78
   4   1   4  966.70    6.30
   4  -1   4  959.93    6.01
   4   1   5  135.31    2.20
   4   1   5  135.93    2.38
  -4  -1  -5  139.89    2.56
   4   1   5  137.13    2.47
   4   1   5  137.97    2.43
  -4  -1  -5  139.58    2.09
   4   1   5  131.54    2.37
  -4   1  -5  134.15    2.51
   4  -1   5  145.95    2.23
   4   1   5  137.15    2.44
   4   1   6  275.38    3.63
   4   1   6  272.69    3.39
   4   1   6  279.65    3.76
  -4   1  -6  289.81    3.79
   4  -1   6  281.93    3.86
   4   1   6  287.85    3.83
  -4  -1  -6  267.92    3.74
   4  -1   6  281.54    3.80
   4  -1   6  278.55    3.71
   4   1   6  287.46    3.75
   4   1   6  262.61    3.59
  -4   1  -6  273.26    3.75
   4  -1   6  280.54    3.56
  -4   1  -6  276.43    3.91
  -4  -1  -6  275.81    3.76
   4   1   6  278.88    3.72
   4  -1   6  280.53    3.71
   4   1   6  284.85    3.86
   4   1   7   67.33    2.01
  -4   1  -7   66.83    1.97
   4  -1   7   66.65    1.98
   4   1   7   66.76    1.99
   4  -1   7   64.90    2.00
  -4  -1  -7   65.07    1.97
   4   1   7   62.91    1.78
   4  -1   7   68.64    1.96
  -4   1  -7   63.81    2.00
   4   1   7   68.24    1.94
   4   1   7   65.00    1.93
  -4   1  -7   65.41    1.91
   4   1   7   66.42    1.91
   4   1   7   67.85    1.96
   4  -1   7   65.36    1.90
   4   1   8   79.90    2.16
  -4  -1  -8   83.72    2.42
  -4   1  -8   84.97    2.34
   4  -1   8   82.24    2.32
   4   1   8   82.10    2.24
   4  -1   8   84.00    2.25
   4   1   8   85.10    2.34
   4  -1   8   80.73    2.22
   4   1   8   83.07    2.32
   4   1   8   83.00    2.22
  -4   1  -8   82.36    2.19
  -4  -1  -8   83.09    2.29
   4  -1   8   84.96    2.24
   4  -1   8   78.36    2.15
   4  -1   8   82.83    2.19
   4   1   9   55.14    1.93
   4  -1   9   54.97    1.82
  -4  -1  -9   49.12    1.90
   4  -1   9   52.06    1.81
  -4   1  -9   54.78    1.91
   4   1   9   55.63    1.91
   4  -1   9   56.38    1.90
   4   1   9   53.52    1.79
  -4   1  -9   57.03    1.75
  -4   1  -9   58.02    2.04
  -4  -1  -9   55.31    1.87
   4  -1   9   56.88    1.85
   4   1   9   54.95    1.82
  -4   1  -9   56.03    1.67
   4   1   9   54.75    1.90
  -4   1 -10   76.92    2.12
  -4  -1 -10   72.31    2.02
   4   1  10   74.12    2.10
  -4   1 -10   77.03    2.26
   4  -1  10   73.90    2.12
   4  -1  10   71.87    1.98
   4  -1  10   76.18    1.96
   4   1  10   71.46    2.01
   4   1  10   73.21    2.08
  -4  -1 -10   73.98    2.03
  -4   1 -10   70.73    1.78
   4  -1  10   75.16    1.92
   4  -1  11   12.52    0.87
  -4   1 -11   12.83    0.90
  -4   1 -11   14.84    1.00
   4  -1  11   12.83    0.83
   4   1  11   12.96    0.89
  -4  -1 -11   12.25    0.82
   4   1  11   13.34    0.85
  -4  -1 -11   14.00    0.90
   4  -1  11   13.10    0.81
  -4   1 -11   11.23    0.70
   4  -1  11   12.19    0.77
   4   1  11   14.87    0.94
  -4   1 -12   52.45    1.31
  -4  -1 -12   47.40    1.11
  -4   1 -12   48.76    1.24
   4  -1  12   51.42    1.30
   4  -1  12   49.39    1.19
   4   1  12   49.65    1.32
   4  -1  12   50.10    1.09
   4   1  12   52.22    1.26
  -4  -1 -12   54.95    1.29
  -4   1 -12   53.36    1.40
   4   1  12   50.54    1.26
  -4  -1 -13    4.32    0.33
   4   1  13    4.27    0.29
   4  -2 -13   38.40    0.93
   4   2 -13   39.96    0.99
   4  -2 -13   40.40    0.96
   4  -2 -13   38.50    0.96
   4   2 -13   39.40    0.93
   4  -2 -12   10.18    0.74
   4  -2 -12   10.09    0.72
   4   2 -12   10.17    0.75
   4   2 -12   12.01    0.73
   4   2 -12   10.83    0.61
   4  -2 -12   10.18    0.75
   4  -2 -12    9.55    0.67
   4   2 -12   10.02    0.68
   4  -2 -12   10.91    0.75
   4   2 -12   10.20    0.71
  -4   2  12    9.03    0.53
   4   2 -11   10.83    0.80
   4  -2 -11   11.64    0.88
   4   2 -11    9.54    0.88
   4  -2 -11    9.20    0.82
   4   2 -11   10.38    0.83
   4   2 -11   10.03    0.82
  -4   2  11    9.36    0.69
   4  -2 -11    9.61    0.88
   4   2 -11    9.97    0.73
   4   2 -11   11.03    0.86
   4   2 -10  107.38    2.46
   4   2 -10  102.76    2.56
   4  -2 -10  110.54    2.53
   4   2 -10  110.32    2.52
   4  -2 -10  112.35    2.57
  -4   2  10  107.29    2.57
   4   2 -10  113.74    2.47
   4   2 -10  104.41    2.31
   4   2 -10  107.50    2.52
   4  -2  -9   58.68    1.93
   4   2  -9   60.69    1.97
   4  -2  -9   58.42    1.96
   4   2  -9   57.26    1.86
  -4   2   9   60.67    2.02
   4   2  -9   56.73    1.81
   4   2  -9   58.27    1.93
   4   2  -9   57.82    1.89
  -4   2   8  544.79    5.25
   4  -2  -8  543.55    5.71
   4   2  -8  549.70    5.78
  -4   2   8  529.78    5.70
   4  -2  -8  542.16    5.88
  -4   2   8  551.74    5.99
   4  -2  -8  551.66    5.94
   4   2  -8  531.92    5.79
   4   2  -8  540.40    5.73
  -4   2   8  567.76    5.68
   4   2  -8  539.97    5.56
   4   2  -8  540.54    5.74
   4  -2  -8  544.39    5.90
  -4  -2   8  540.79    6.00
  -4   2   7  174.52    2.86
  -4   2   7  172.87    2.93
   4  -2  -7  166.25    3.09
   4  -2  -7  175.80    3.09
   4   2  -7  177.06    3.16
  -4   2   7  168.73    2.99
   4  -2  -7  174.38    3.16
  -4   2   7  173.13    3.19
  -4   2   7  177.27    2.96
   4   2  -7  171.48    3.06
   4   2  -7  171.84    2.98
   4   2  -7  171.84    3.07
   4  -2  -7  170.58    3.08
   4   2  -7  173.63    3.09
  -4  -2   7  169.89    3.10
   4   2  -6  348.95    4.19
  -4   2   6  354.31    4.01
  -4   2   6  340.73    4.06
   4  -2  -6  343.93    4.28
   4  -2  -6  346.88    4.13
   4  -2  -6  349.68    4.22
  -4   2   6  355.20    4.37
   4  -2  -6  348.36    4.00
   4   2  -6  340.79    4.15
   4   2  -6  337.51    4.17
  -4   2   6  342.31    3.84
   4   2  -6  347.85    4.05
   4   2  -6  345.04    4.15
   4  -2  -6  333.07    4.08
  -4  -2   6  343.25    4.14
  -4   2   5  171.80    2.55
   4  -2  -5  171.79    2.79
   4   2  -5  175.87    2.78
   4   2  -5  174.51    2.83
  -4   2   5  177.49    2.71
  -4   2   5  172.00    2.85
   4   2  -5  186.78    2.53
  -4  -2   5  172.65    2.70
   4  -2  -5  175.58    2.70
   4   2  -5  170.02    2.74
   4  -2  -5  170.98    2.64
  -4   2   5  182.17    2.66
  -4   2   4  991.88    6.34
  -4  -2   4 1026.58    6.59
  -4   2   4  995.36    6.59
  -4   2   4 1058.54    6.50
   4   2  -4 1072.54    6.42
   4  -2  -4 1036.26    6.79
   4  -2  -4  957.95    6.26
   4  -2  -3  811.60    5.90
  -4  -2   3  845.20    4.92
  -4   2   3  827.01    5.37
   4  -2  -3  827.72    5.86
   4   2  -3  836.30    5.53
   4  -2  -3  833.37    5.20
  -4   2   3  814.71    5.62
  -4  -2   3  846.42    5.45
  -4   2   2 2765.77   11.41
  -4  -2   2 2656.05   12.04
  -4   2   2 2726.28    9.65
   4  -2  -2 2708.71   11.80
  -4  -2   2 2777.42   10.20
  -4   2   2 2738.53   11.76
   4   2  -2 2678.37   11.59
   4  -2  -2 2766.48   12.07
   4  -2  -2 2739.42   10.59
  -4  -2   2 2798.54   11.33
  -4  -2   1  172.82    1.92
   4  -2  -1  169.20    2.30
  -4  -2   1  172.27    2.33
  -4   2   1  171.88    1.68
   4  -2  -1  167.03    2.19
  -4   2   1  167.38    2.27
  -4  -2   1  166.51    1.51
   4  -2   0  856.67    5.52
   4  -2   0  853.67    5.64
  -4  -2   0  887.15    5.58
  -4   2   0  884.74    4.64
   4  -2   0  849.04    5.03
  -4  -2  -1  946.71    5.82
  -4   2  -1  932.20    5.35
   4  -2   1  931.04    5.96
   4  -2   1  939.68    5.11
  -4  -2  -2  180.05    2.39
  -4   2  -2  172.59    2.24
   4  -2   2  171.34    1.79
   4   2   2  175.07    2.15
   4  -2   2  178.11    2.43
   4   2   3  228.26    2.24
  -4  -2  -3  235.15    2.91
   4  -2   3  228.27    2.83
   4   2   3  225.93    2.74
   4  -2   4  140.88    2.64
   4   2   4  135.49    1.95
   4  -2   4  138.05    2.19
   4  -2   5  132.00    2.70
   4   2   5  128.92    2.39
  -4  -2  -5  134.63    2.45
  -4   2  -5  131.28    2.36
   4   2   5  134.96    2.42
   4   2   5  131.01    2.47
   4  -2   5  135.40    2.44
   4   2   5  131.07    2.44
  -4   2  -5  127.70    2.55
   4   2   5  124.48    2.09
  -4  -2  -5  131.88    2.48
  -4   2  -5  132.93    2.60
   4   2   5  129.51    2.45
  -4  -2  -5  132.26    2.35
   4  -2   5  137.36    2.18
  -4   2  -5  130.02    2.34
   4  -2   5  134.58    2.48
   4   2   5  129.88    2.47
  -4   2  -6  275.48    3.68
   4   2   6  294.53    3.87
   4   2   6  282.95    3.87
   4   2   6  301.47    3.74
   4  -2   6  295.94    3.80
   4   2   6  287.80    3.94
   4  -2   6  295.43    4.15
   4   2   6  277.57    3.48
  -4  -2  -6  290.84    3.75
  -4   2  -6  291.33    4.07
  -4  -2  -6  293.71    3.89
   4  -2   6  283.83    3.87
  -4  -2  -6  291.10    3.87
  -4   2  -6  285.06    4.10
  -4   2  -6  286.38    3.64
   4   2   6  286.88    3.85
   4  -2   6  301.01    3.82
   4   2   6  284.36    3.92
   4   2   6  282.31    3.97
   4   2   7  819.77    6.73
  -4   2  -7  846.32    6.98
  -4   2  -7  858.45    7.47
   4  -2   7  856.94    7.07
   4  -2   7  858.87    7.48
   4  -2   7  847.24    7.24
   4   2   7  857.79    7.34
  -4  -2  -7  830.84    7.10
   4   2   7  833.48    7.28
   4   2   7  862.69    7.43
  -4   2  -7  828.61    6.68
  -4   2  -7  877.61    7.68
   4   2   7  839.88    7.13
   4   2   7  878.92    7.24
   4  -2   7  873.30    6.95
   4   2   7  860.49    7.32
   4   2   7  865.36    7.00
  -4  -2  -8  458.04    5.13
   4   2   8  460.05    4.90
  -4   2  -8  471.52    5.18
   4   2   8  466.05    5.33
  -4   2  -8  468.94    5.37
   4   2   8  458.01    5.25
   4  -2   8  455.64    5.13
   4   2   8  462.61    5.36
   4   2   8  460.86    5.32
  -4   2  -8  457.49    4.82
  -4   2  -8  460.18    5.61
   4  -2   8  463.98    5.12
   4   2   8  459.31    5.27
   4  -2   8  463.52    5.27
   4  -2   8  471.56    4.99
   4   2   8  459.97    5.30
  -4  -2  -9    4.91    0.67
  -4  -2  -9    5.49    0.86
  -4   2  -9    4.35    0.64
   4  -2   9    5.43    0.75
   4   2   9    4.49    0.70
  -4   2  -9    5.39    0.76
   4   2   9    4.84    0.71
   4   2   9    4.86    0.68
  -4   2  -9    4.36    0.69
   4  -2   9    4.90    0.67
  -4   2  -9    5.15    0.83
   4  -2   9    4.69    0.64
   4   2   9    4.71    0.73
   4  -2   9    4.61    0.60
   4   2   9    4.78    0.74
   4   2  10   15.00    0.97
  -4  -2 -10   17.26    1.14
   4  -2  10   17.27    0.97
  -4   2 -10   14.40    0.93
   4   2  10   17.77    1.07
   4  -2  10   15.37    0.91
   4  -2  10   15.95    0.99
  -4   2 -10   15.76    0.94
  -4  -2 -10   16.70    0.93
  -4   2 -10   17.22    1.16
  -4  -2 -11    9.00    0.79
  -4   2 -11    8.54    0.65
   4   2  11    8.84    0.72
   4  -2  11    7.49    0.56
   4   2  11    8.37    0.69
   4  -2  11    8.47    0.66
   4   2  11    8.67    0.68
   4  -2  11    9.37    0.62
   4   2  11    8.74    0.72
  -4  -2 -11    8.21    0.77
   4   2  12    8.84    0.47
  -4  -2 -12   10.70    0.65
  -4  -2 -12    9.40    0.57
  -4  -2 -12    9.30    0.61
   4   2  12    9.86    0.60
   4  -2  12    9.25    0.51
   4   2  12    9.52    0.53
   4   2  12   10.43    0.59
  -4  -2 -12    9.59    0.59
   4   2  12   10.21    0.60
   4  -3 -12    5.25    0.56
   4  -3 -12    5.84    0.46
   4   3 -12    5.27    0.53
  -4   3  12    4.49    0.36
   4  -3 -12    6.06    0.50
   4   3 -12    6.30    0.53
   4   3 -11    2.57    0.45
   4   3 -11    2.74    0.60
  -4   3  11    2.47    0.44
   4  -3 -11    2.46    0.45
   4  -3 -11    2.08    0.49
   4  -3 -11    2.74    0.61
   4  -3 -11    2.54    0.52
   4   3 -11    2.69    0.56
   4  -3 -10   65.29    1.81
   4  -3 -10   64.72    1.81
   4   3 -10   67.43    2.00
   4   3 -10   68.89    1.81
  -4   3  10   63.19    1.70
   4  -3 -10   66.45    1.96
   4   3 -10   65.98    1.71
   4   3 -10   69.98    1.78
   4  -3 -10   68.23    1.99
   4   3 -10   72.34    2.00
  -4   3   9  111.23    2.32
   4  -3  -9  112.38    2.48
   4   3  -9  113.66    2.68
   4   3  -9  116.08    2.58
   4   3  -9  106.55    2.29
  -4   3   9  109.36    2.36
   4   3  -9  119.50    2.53
   4  -3  -9  115.43    2.68
   4   3  -9  114.50    2.61
   4  -3  -9  114.59    2.51
  -4   3   8   66.14    1.95
   4  -3  -8   66.19    1.94
   4   3  -8   64.71    2.08
   4   3  -8   68.69    2.07
   4  -3  -8   65.36    1.95
   4   3  -8   67.88    2.09
  -4   3   8   63.67    1.77
   4   3  -8   67.89    2.03
   4  -3  -8   68.24    2.10
  -4   3   8   66.62    1.85
   4   3  -8   63.77    1.84
  -4   3   7   17.47    1.06
  -4   3   7   18.46    1.14
  -4   3   7   16.57    1.00
   4  -3  -7   17.47    1.21
   4  -3  -7   17.55    1.06
   4   3  -7   16.96    1.14
   4   3  -7   17.98    1.10
   4   3  -7   17.38    1.02
   4   3  -7   18.17    1.12
   4  -3  -7   16.58    1.08
   4  -3  -7   18.09    1.13
  -4   3   7   16.79    1.00
   4   3  -7   17.27    1.12
   4  -3  -7   16.97    1.10
  -4   3   7   17.67    1.06
  -4  -3   7   17.68    1.11
  -4   3   6   14.33    1.04
  -4   3   6   13.91    0.92
   4  -3  -6   12.53    1.00
   4   3  -6   14.52    1.04
   4   3  -6   13.74    0.98
  -4   3   6   15.11    0.95
  -4   3   6   13.34    0.93
  -4   3   6   15.79    0.98
   4  -3  -6   13.36    0.97
   4  -3  -6   14.88    0.99
  -4   3   6   13.80    0.91
   4  -3  -6   12.33    0.94
   4   3  -6   14.94    1.00
   4   3  -6   15.80    1.04
  -4  -3   6   14.12    0.95
  -4   3   5  188.44    3.15
  -4   3   5  190.03    2.99
   4   3  -5  192.32    3.23
   4   3  -5  194.18    3.10
  -4   3   5  190.54    3.01
  -4   3   5  181.34    2.93
  -4   3   5  188.97    3.04
   4  -3  -5  190.06    3.17
   4   3  -5  192.29    3.12
  -4   3   5  193.06    3.00
   4  -3  -5  184.41    2.91
   4   3  -5  189.84    3.14
  -4  -3   5  184.36    2.98
  -4  -3   4  248.54    3.52
   4  -3  -4  239.26    3.45
  -4   3   4  252.71    3.51
  -4   3   4  249.72    3.39
   4   3  -4  244.55    3.49
   4   3  -4  249.73    3.34
  -4   3   4  243.20    3.27
   4  -3  -4  244.52    3.46
   4   3  -4  243.33    3.38
   4  -3  -4  240.02    3.04
   4   3  -4  249.62    3.42
  -4   3   4  245.21    3.24
  -4  -3   4  242.28    3.15
  -4   3   4  243.02    3.26
  -4   3   3  125.22    2.22
  -4  -3   3  133.93    2.48
   4  -3  -3  125.28    2.36
  -4   3   3  127.60    2.40
  -4   3   3  127.80    2.26
   4  -3  -3  125.66    2.40
   4   3  -3  120.49    2.30
   4  -3  -3  122.73    1.94
   4   3  -3  125.44    2.33
  -4  -3   3  125.53    2.05
   4  -3  -2  729.37    5.63
  -4   3   2  728.07    5.49
  -4  -3   2  721.59    4.77
  -4  -3   1  149.29    2.38
   4  -3  -1  152.88    2.50
  -4   3   1  150.74    2.37
   4  -3  -1  155.99    2.57
   4  -3   0   21.76    0.83
  -4   3   0   24.91    1.02
   4  -3   0   23.60    1.02
  -4  -3   0   23.43    0.94
   4  -3   0   23.29    1.02
  -4  -3  -1  149.61    2.27
  -4   3  -1  153.29    2.44
   4  -3   1  147.06    1.93
   4  -3   1  144.66    2.36
   4  -3   2  630.28    5.20
  -4   3  -2  626.50    5.35
   4   3   3  149.28    2.65
  -4   3  -3  163.93    2.57
  -4  -3  -3  161.54    2.49
   4   3   3  152.07    2.60
   4   3   3  153.52    2.53
   4   3   3  153.97    2.62
  -4   3  -3  158.68    2.61
   4  -3   3  159.97    2.52
  -4   3  -3  153.62    2.69
  -4   3  -3  141.21    2.42
  -4   3  -3  150.99    2.73
   4  -3   3  166.14    2.87
   4   3   4   55.28    1.66
  -4  -3  -4   57.52    1.53
  -4   3  -4   52.67    1.73
   4   3   4   51.56    1.65
   4   3   4   54.21    1.65
   4   3   4   54.56    1.59
  -4   3  -4   52.08    1.61
   4  -3   4   55.46    1.49
   4   3   4   53.29    1.56
   4  -3   4   51.58    1.77
   4   3   4   53.35    1.56
  -4   3  -5   68.68    1.91
   4   3   5   68.54    1.92
  -4  -3  -5   72.39    1.85
   4  -3   5   67.58    2.08
   4   3   5   70.35    1.91
  -4  -3  -5   68.50    1.92
  -4   3  -5   68.49    1.96
   4   3   5   70.48    1.91
   4   3   5   68.32    1.98
   4  -3   5   73.23    1.85
   4  -3   5   70.80    1.85
   4   3   5   68.06    1.87
   4   3   6   23.44    1.20
   4  -3   6   25.26    1.41
  -4   3  -6   24.43    1.30
   4  -3   6   25.35    1.20
   4   3   6   24.50    1.30
   4   3   6   22.37    1.18
   4   3   6   23.17    1.22
  -4   3  -6   23.29    1.34
  -4   3  -6   25.49    1.30
  -4   3  -6   24.43    1.30
  -4  -3  -6   24.84    1.29
   4   3   6   24.18    1.26
   4   3   6   23.98    1.26
   4   3   6   24.34    1.27
   4   3   7  147.24    2.96
  -4   3  -7  159.87    3.24
   4   3   7  155.11    2.97
   4   3   7  155.74    3.08
   4  -3   7  151.85    2.88
  -4   3  -7  160.56    2.99
  -4   3  -7  153.01    3.12
   4   3   7  155.45    3.06
   4   3   7  152.10    3.02
   4   3   8   36.70    1.47
   4   3   8   34.05    1.36
   4  -3   8   35.53    1.40
  -4   3  -8   37.19    1.64
   4   3   8   35.59    1.51
  -4   3  -8   36.93    1.52
   4   3   8   37.02    1.52
  -4   3  -8   37.07    1.62
   4   3   8   34.67    1.44
   4   3   8   37.33    1.54
   4   3   9   43.28    1.46
  -4  -3  -9   43.83    1.63
   4   3   9   43.16    1.54
  -4   3  -9   44.33    1.66
   4   3   9   40.02    1.39
  -4   3  -9   44.37    1.71
   4  -3   9   43.38    1.44
  -4   3  -9   40.70    1.55
   4  -3   9   43.90    1.48
   4   3   9   43.41    1.58
   4   3   9   44.59    1.64
   4   3  10    0.82    0.50
   4   3  10    0.90    0.44
  -4   3 -10    1.05    0.59
   4   3  10    1.09    0.48
  -4  -3 -10    0.70    0.52
   4   3  10    0.81    0.36
  -4   3 -10    1.23    0.50
   4  -3  10    0.88    0.40
   4   3  10    0.79    0.50
   4  -3  10    0.93    0.36
   4   3  11   11.35    0.69
  -4  -3 -11   11.91    0.74
  -4  -3 -11   10.37    0.67
   4   3  11   10.73    0.64
  -4  -3 -11   12.15    0.77
  -4   3 -11   10.93    0.76
   4   3  11   10.74    0.70
   4   3  12    2.08    0.23
  -4  -3 -12    2.48    0.32
  -4  -3 -12    2.29    0.31
   4  -4 -12    1.35    0.26
   4  -4 -12    1.25    0.23
   4   4 -12    1.48    0.25
   4  -4 -11    4.74    0.56
   4   4 -11    5.41    0.51
   4   4 -11    4.98    0.53
  -4   4  11    4.75    0.46
   4  -4 -11    5.33    0.54
  -4   4  10    9.34    0.66
   4   4 -10    9.97    0.79
  -4   4  10    9.54    0.70
   4  -4 -10    8.99    0.78
   4   4 -10    8.79    0.78
  -4   4   9   12.25    0.88
  -4   4   9    9.24    0.73
   4   4  -9   11.61    0.93
  -4   4   9   10.77    0.84
   4   4  -9   11.76    0.77
   4   4  -9    9.62    0.88
  -4   4   8   19.45    1.16
  -4   4   8   17.91    1.04
   4   4  -8   20.42    1.20
  -4   4   8   20.11    1.12
   4   4  -8   20.25    1.10
   4   4  -8   19.05    1.19
   4   4  -7   44.48    1.53
  -4   4   7   43.32    1.71
  -4   4   7   42.32    1.58
   4   4  -7   47.09    1.75
  -4   4   7   44.03    1.62
   4   4  -7   43.39    1.68
   4   4  -7   44.17    1.63
  -4  -4   6  125.59    2.95
  -4   4   6  124.96    2.78
  -4   4   6  123.14    2.62
   4   4  -6  132.25    2.84
   4   4  -6  127.08    2.55
  -4   4   6  119.60    2.61
   4  -4  -6  130.44    3.02
   4   4  -6  127.17    2.74
   4   4  -6  121.39    2.71
  -4  -4   5  300.32    4.47
  -4   4   5  271.97    4.05
   4  -4  -5  281.30    4.29
  -4   4   5  278.46    3.92
  -4   4   5  286.00    3.97
   4   4  -5  288.88    4.09
   4   4  -5  287.62    3.79
  -4   4   5  282.31    4.05
   4  -4  -5  282.62    4.35
  -4   4   5  288.51    3.85
   4   4  -5  268.53    3.96
   4   4  -5  289.30    4.09
   4  -4  -4  199.79    3.50
   4  -4  -4  198.57    3.47
  -4   4   4  204.06    3.41
  -4   4   4  203.14    3.29
   4   4  -4  203.93    3.13
   4   4  -4  200.66    3.26
  -4  -4   4  211.06    3.53
  -4   4   4  203.22    3.14
  -4   4   4  201.93    3.20
  -4   4   4  201.70    3.31
   4   4  -4  195.85    3.28
   4   4  -4  191.58    3.26
  -4   4   3   97.27    2.21
  -4  -4   3  101.91    2.34
   4  -4  -3   91.81    2.27
  -4   4   3  100.24    2.33
   4   4  -3   95.44    2.24
  -4   4   3   92.21    2.17
   4   4  -3   93.47    2.09
   4   4  -3   95.72    2.20
  -4   4   3   96.97    2.14
   4   4  -3   92.40    2.19
   4   4  -2   76.26    1.90
  -4  -4   2   77.42    1.96
  -4   4   2   75.16    1.97
   4  -4  -2   75.04    1.94
   4   4  -2   75.22    1.96
   4   4  -2   75.95    1.86
  -4   4   2   76.87    1.91
  -4   4   2   75.78    1.96
   4  -4  -2   75.48    2.07
   4   4  -2   70.29    1.87
   4   4  -2   81.07    1.94
  -4   4   2   79.65    1.93
   4   4  -1  139.52    2.61
  -4   4   1  137.91    2.55
  -4  -4   1  140.67    2.49
  -4   4   1  139.99    2.58
   4  -4  -1  132.12    2.37
   4   4  -1  135.63    2.45
   4   4  -1  132.17    2.40
  -4   4   1  141.93    2.53
   4  -4  -1  143.04    2.73
   4   4  -1  131.51    2.55
   4   4  -1  132.22    2.51
   4   4   0   15.45    0.95
  -4   4   0   15.07    0.93
  -4  -4   0   16.65    0.88
  -4   4   0   16.18    0.97
   4   4   0   16.48    0.89
  -4   4   0   15.57    0.91
   4  -4   0   16.76    1.01
   4  -4   0   14.86    0.93
   4   4   0   15.25    0.95
   4   4   1   48.11    1.46
   4   4   1   48.88    1.63
  -4  -4  -1   48.72    1.40
  -4   4  -1   51.87    1.57
   4  -4   1   49.70    1.56
   4   4   1   48.82    1.52
  -4   4  -1   49.60    1.57
   4  -4   1   53.12    1.70
   4   4   2    3.04    0.60
  -4   4  -2    3.18    0.61
  -4  -4  -2    3.59    0.46
  -4   4  -2    3.16    0.65
   4   4   2    3.20    0.56
   4   4   2    2.85    0.48
  -4   4  -2    2.95    0.57
  -4   4  -2    3.66    0.58
  -4   4  -2    2.91    0.65
   4  -4   2    3.79    0.59
   4  -4   2    3.45    0.62
  -4   4  -3  112.80    2.33
  -4   4  -3  118.56    2.35
  -4   4  -3  112.84    2.56
   4   4   3  112.65    2.46
  -4   4  -3  114.82    2.49
   4  -4   3  114.38    2.63
   4   4   3  110.30    2.28
   4   4   4   62.92    1.92
   4   4   4   63.11    1.96
  -4   4  -4   62.48    2.02
   4   4   4   64.55    1.82
  -4   4  -4   65.21    1.98
   4  -4   4   62.54    2.09
  -4   4  -4   63.90    1.88
   4  -4   5   65.23    2.18
   4   4   5   66.42    2.01
   4   4   5   64.86    1.87
  -4   4  -5   66.12    2.14
  -4  -4  -5   63.99    2.04
  -4   4  -5   69.30    2.04
  -4   4  -5   69.35    1.98
   4   4   5   63.24    1.89
   4   4   5   65.64    2.05
   4   4   6   97.43    2.48
  -4   4  -6   96.69    2.32
   4   4   6   96.84    2.32
  -4   4  -6   95.35    2.61
  -4   4  -6  100.19    2.42
  -4   4  -6  104.54    2.49
   4   4   6   93.49    2.33
   4   4   6   99.41    2.50
   4   4   6   95.80    2.32
   4   4   7   26.44    1.36
   4   4   7   27.53    1.38
   4   4   7   26.52    1.30
  -4   4  -7   28.37    1.41
   4   4   7   26.83    1.31
  -4   4  -7   26.35    1.30
   4   4   7   26.77    1.26
   4   4   8   23.62    1.20
   4   4   8   24.00    1.32
  -4  -4  -8   23.26    1.20
   4   4   8   23.09    1.14
  -4   4  -8   24.14    1.29
  -4   4  -8   25.97    1.37
   4  -4   8   24.51    1.12
  -4   4  -8   23.51    1.21
   4   4   8   23.56    1.18
   4   4   8   21.82    1.13
   4   4   9    2.90    0.53
  -4  -4  -9    2.19    0.53
  -4   4  -9    2.30    0.68
   4   4   9    2.77    0.54
  -4   4  -9    2.22    0.55
  -4   4  -9    2.85    0.61
   4   4   9    2.85    0.52
   4   4  10    2.51    0.45
   4   4  10    2.10    0.37
   4   4  10    2.23    0.46
  -4  -4 -10    2.35    0.42
  -4   4 -10    2.03    0.49
  -4   4 -10    1.92    0.44
   4   4  10    2.55    0.46
   4   4  11    3.37    0.34
   4   4  11    4.26    0.39
   4   4  11    4.44    0.38
  -4   5  11    4.54    0.28
  -4   5  10    1.40    0.33
  -4   5  10    0.48    0.23
   4  -5 -10    0.79    0.36
  -4   5  10    1.55    0.37
  -4   5  10    1.35    0.30
   4  -5 -10    0.98    0.33
   4   5 -10    1.30    0.38
  -4   5   9   10.84    0.76
  -4   5   9   10.85    0.69
   4   5  -9   10.37    0.64
  -4   5   9   11.82    0.76
  -4   5   9   11.94    0.74
   4  -5  -9   10.91    0.75
   4   5  -9   13.28    0.83
  -4   5   8   43.99    1.52
  -4   5   8   41.93    1.39
   4   5  -8   42.23    1.35
   4   5  -8   46.54    1.57
  -4   5   8   43.81    1.47
  -4   5   7   10.42    1.00
  -4   5   7   10.58    0.87
   4   5  -7   10.40    0.80
  -4   5   7   10.33    0.87
   4   5  -7   11.48    0.80
   4   5  -7   10.64    0.90
  -4   5   6   23.97    1.29
  -4   5   6   22.81    1.24
   4   5  -6   23.95    1.18
   4   5  -6   24.70    1.19
   4   5  -6   25.23    1.32
  -4   5   5   66.45    2.10
  -4   5   5   65.45    1.97
   4   5  -5   67.58    1.87
  -4   5   5   66.59    2.03
   4   5  -5   65.47    1.94
   4   5  -5   69.49    2.09
  -4   5   4   58.01    1.97
  -4   5   4   56.35    1.90
   4   5  -4   58.64    1.74
   4   5  -4   58.36    1.89
   4   5  -4   59.96    1.92
   4  -5  -3   78.86    2.39
  -4   5   3   75.77    2.17
  -4   5   3   69.81    2.04
   4  -5  -3   71.78    2.18
   4   5  -3   75.18    2.12
  -4   5   3   76.08    2.16
   4   5  -3   77.62    1.96
   4   5  -3   78.70    2.14
  -4   5   2   36.29    1.45
  -4   5   2   35.33    1.52
  -4   5   2   36.38    1.50
   4   5  -2   36.07    1.33
   4  -5  -2   37.08    1.63
   4  -5  -2   36.24    1.62
  -4   5   2   35.89    1.53
   4   5  -2   35.91    1.51
   4   5  -1  181.22    3.18
  -4   5   1  184.75    3.19
  -4   5   1  191.17    3.23
   4   5  -1  186.98    2.97
   4  -5  -1  195.04    3.53
  -4   5   1  193.15    3.35
   4   5  -1  187.41    3.26
   4  -5  -1  198.15    3.56
  -4   5   1  192.74    3.19
   4   5   0  149.17    2.80
   4   5   0  156.71    3.06
  -4   5   0  154.06    2.75
  -4   5   0  160.71    2.96
   4   5   0  151.76    2.65
   4   5   0  157.52    3.02
  -4   5   0  163.31    2.92
  -4   5   0  157.96    3.03
   4  -5   0  162.53    3.21
   4  -5   0  156.13    3.03
   4   5   1  124.86    2.69
   4   5   1  129.39    2.84
  -4   5  -1  127.00    2.75
  -4   5  -1  131.90    2.64
  -4   5  -1  129.38    2.69
   4   5   1  133.62    2.46
  -4   5  -1  132.27    2.65
   4  -5   1  124.82    2.85
   4   5   2  194.24    3.45
  -4   5  -2  189.85    3.36
  -4   5  -2  180.79    3.21
   4   5   2  190.56    3.48
  -4   5  -2  203.92    3.21
   4   5   2  194.10    2.97
  -4   5  -2  196.15    3.21
   4  -5   2  195.85    3.62
   4   5   3   31.50    1.53
   4   5   3   31.35    1.49
  -4   5  -3   34.49    1.39
   4   5   3   32.34    1.27
  -4   5  -3   31.51    1.45
  -4   5  -3   32.38    1.42
   4   5   4    5.04    0.78
   4   5   4    5.30    0.71
  -4   5  -4    5.25    0.84
   4   5   4    4.00    0.63
   4   5   4    4.59    0.62
  -4   5  -4    5.44    0.77
   4   5   5    3.27    0.75
   4   5   5    2.57    0.65
  -4   5  -5    2.57    0.75
   4   5   5    2.62    0.55
  -4   5  -5    2.52    0.70
  -4   5  -5    2.39    0.80
   4   5   5    3.11    0.56
   4   5   6   78.70    2.14
   4   5   6   74.40    1.85
  -4   5  -6   78.00    2.28
  -4   5  -6   84.38    2.12
  -4   5  -6   83.64    2.22
   4   5   6   74.89    1.91
   4   5   7   13.86    1.04
   4   5   7   14.76    0.99
  -4  -5  -7   14.56    0.88
  -4   5  -7   14.62    1.10
  -4   5  -7   15.35    1.11
   4   5   7   14.32    0.84
   4   5   7   13.45    0.86
   4   5   8   14.58    0.75
   4   5   8   17.41    0.97
   4   5   8   17.57    0.96
  -4   5  -8   17.88    1.03
   4   5   8   15.70    0.86
   4   5   9   12.26    0.71
   4   5   9   13.02    0.74
  -4   5  -9   13.86    0.84
  -4   5  -9   13.72    0.80
   4   5   9   12.56    0.68
   4   5  10    8.24    0.47
  -4  -5 -10    7.45    0.47
  -4   6   9    2.94    0.37
  -4   6   9    2.74    0.31
  -4   6   8    9.34    0.73
  -4   6   8    8.95    0.62
  -4   6   8    9.74    0.55
  -4   6   7   25.00    1.08
  -4   6   7   24.98    1.00
  -4   6   6   18.78    1.12
  -4   6   6   19.67    1.06
  -4   6   6   18.63    0.99
  -4   6   6   19.31    1.02
  -4   6   5   11.31    0.89
  -4   6   5   11.35    0.96
   4   6  -5   11.81    0.79
  -4   6   5   13.11    0.92
  -4   6   4   14.09    1.06
  -4   6   4   13.32    1.01
  -4   6   4   16.06    1.02
  -4   6   4   14.53    0.99
   4   6  -4   13.23    0.89
  -4   6   3    5.37    0.80
  -4   6   3    5.62    0.80
  -4   6   3    4.63    0.75
  -4   6   3    5.08    0.73
   4   6  -3    6.40    0.72
  -4   6   2   23.05    1.23
  -4   6   2   25.37    1.30
  -4   6   2   25.11    1.24
  -4   6   2   24.96    1.29
   4   6  -1   98.59    2.25
  -4   6   1  101.99    2.22
  -4   6   1  103.03    2.39
  -4   6   1  109.47    2.39
  -4   6   1  108.16    2.51
   4   6   0   20.01    1.18
  -4   6   0   21.78    1.19
  -4   6   0   23.75    1.29
  -4   6   0   22.93    1.18
   4   6   1   77.47    2.04
   4   6   1   83.03    2.25
  -4   6  -1   83.85    2.04
  -4   6  -1   84.82    2.13
  -4   6  -1   84.92    2.27
   4   6   2   65.01    1.95
  -4   6  -2   67.01    1.79
  -4   6  -2   67.66    2.02
  -4   6  -2   66.61    1.91
   4   6   3    8.98    0.90
  -4   6  -3   10.25    0.91
  -4   6  -3    9.99    0.99
  -4   6  -3    8.34    0.80
   4   6   4    5.32    0.77
  -4   6  -4    5.61    0.71
  -4   6  -4    5.34    0.75
  -4   6  -4    5.55    0.86
   4   6   5   28.20    1.31
   4   6   5   26.31    1.12
  -4   6  -5   31.24    1.25
  -4   6  -5   27.59    1.30
  -4   6  -5   30.91    1.41
   4   6   6    7.17    0.78
   4   6   6    7.26    0.64
  -4   6  -6    7.22    0.75
   4   6   7    0.02    0.36
   4   6   8    8.40    0.58
   4   6   8    8.41    0.50
  -4   7   7    4.28    0.42
  -4   7   7    4.62    0.39
  -4   7   7    4.33    0.36
  -4   7   6    3.56    0.44
  -4   7   6    3.06    0.49
  -4   7   5    1.71    0.50
  -4   7   5    2.09    0.50
  -4   7   5    2.26    0.39
  -4   7   5    1.99    0.44
  -4   7   4    7.70    0.66
  -4   7   4    7.09    0.69
  -4   7   4    7.92    0.70
  -4   7   4    7.28    0.62
  -4   7   3    8.20    0.70
  -4   7   3   10.38    0.76
  -4   7   3   10.07    0.72
  -4   7   3   10.00    0.76
  -4   7   2    3.32    0.53
  -4   7   2    4.16    0.59
  -4   7   2    4.57    0.59
  -4   7   2    4.13    0.61
  -4   7   1    8.67    0.72
  -4   7   1   10.14    0.78
  -4   7   1    9.61    0.80
  -4   7   0    1.81    0.53
  -4   7   0    1.64    0.57
  -4   7   0    1.98    0.53
  -4   7  -1   17.27    1.03
  -4   7  -1   18.12    0.93
  -4   7  -2   18.13    0.89
  -4   7  -2   17.07    0.99
  -4   7  -3   31.63    1.08
  -4   7  -3   30.15    1.21
   4   7   4    3.68    0.52
  -4   7  -4    4.42    0.66
  -4   7  -4    4.57    0.54
   4   7   5   11.66    0.69
  -4   7  -5   13.09    0.78
   4   7   6    2.75    0.38
  -4   7  -6    3.27    0.45
  -4   8   2    6.25    0.37
  -4   8   1    4.40    0.35
  -4   8   0    2.76    0.30
  -4   8   0    2.59    0.29
  -4   8  -1    1.00    0.26
   5   0 -13   81.67    1.43
   5   0 -13   82.60    1.29
   5   0 -13   79.59    1.32
   5   0 -12    6.31    0.51
   5   0 -12    5.61    0.52
   5   0 -12    6.86    0.65
   5   0 -12    6.19    0.63
   5   0 -12    5.81    0.46
   5   0 -11   18.08    0.98
   5   0 -11   17.81    0.98
   5   0 -11   19.40    1.08
   5   0 -11   17.64    1.09
   5   0 -11   17.04    0.90
   5   0 -10    2.09    0.64
   5   0 -10    2.02    0.57
   5   0 -10    2.39    0.68
   5   0 -10    2.10    0.54
   5   0 -10    2.98    0.71
   5   0  -9   19.61    1.19
   5   0  -9   18.77    1.16
   5   0  -9   18.93    1.22
   5   0  -9   18.43    1.23
   5   0  -9   19.40    1.25
   5   0  -9   20.02    1.09
  -5   0   8   51.56    1.82
   5   0  -8   54.35    1.86
   5   0  -8   50.22    1.79
   5   0  -8   52.88    1.90
  -5   0   8   49.93    1.80
   5   0  -8   51.06    1.90
   5   0  -8   54.10    1.68
   5   0  -7   95.32    2.36
   5   0  -7   90.91    2.17
   5   0  -7   92.00    2.31
   5   0  -7   87.48    2.25
  -5   0   7   89.52    2.24
   5   0  -7   91.46    2.35
   5   0  -7   83.25    2.30
   5   0  -7   89.34    2.39
   5   0  -7   94.04    2.31
  -5   0   7   92.43    2.26
   5   0  -6   22.06    1.12
   5   0  -6   20.26    1.13
  -5   0   6   21.22    1.01
   5   0  -6   21.38    1.16
   5   0  -6   22.61    1.12
   5   0  -6   21.04    1.13
  -5   0   6   21.18    1.06
   5   0  -6   21.38    1.13
   5   0  -6   22.72    1.20
   5   0  -6   19.45    1.04
  -5   0   6   22.23    1.10
   5   0  -5  142.80    2.49
  -5   0   5  138.11    2.32
   5   0  -5  139.05    2.59
   5   0  -5  138.28    2.56
  -5   0   5  138.49    2.41
   5   0  -5  136.62    2.44
   5   0  -5  135.82    2.65
   5   0  -5  134.66    2.46
   5   0  -5  132.08    2.57
   5   0  -4  121.38    2.13
  -5   0   4  117.21    2.06
   5   0  -4  117.29    1.94
   5   0  -4  117.66    2.17
  -5   0   3   68.43    1.54
   5   0  -3   67.83    1.58
  -5   0   3   69.33    1.51
  -5   0   3   69.42    1.52
   5   0  -3   68.88    1.50
  -5   0   2  845.92    5.65
  -5   0   2  844.59    5.45
  -5   0   2  844.15    5.47
   5   0  -2  866.82    5.61
   5   0  -2  822.03    4.61
  -5   0   1  726.78    4.95
   5   0  -1  719.17    5.03
   5   0  -1  719.36    4.48
  -5   0   0  121.02    1.91
   5   0   0  117.92    1.99
   5   0   0  123.39    1.91
  -5   0   0  114.98    1.76
   5   0   0  119.60    1.83
   5   0   1  156.16    2.24
  -5   0  -1  161.39    2.31
  -5   0  -1  165.83    2.15
   5   0   1  162.39    2.15
   5   0   1  160.73    2.36
   5   0   2  181.25    2.60
  -5   0  -2  175.80    2.55
  -5   0  -2  176.39    2.28
   5   0   2  173.89    2.21
   5   0   3   35.77    1.25
  -5   0  -3   34.62    1.20
  -5   0  -3   35.18    1.08
   5   0   3   37.65    1.23
   5   0   4 2851.46   13.51
   5   0   4 2837.14   13.17
  -5   0  -4 2814.79   13.23
   5   0   4 2821.12   12.95
   5   0   4 2813.78   13.36
   5   0   5  284.77    3.68
  -5   0  -5  288.22    3.73
   5   0   5  274.84    3.73
   5   0   5  285.94    3.56
   5   0   6    0.14    0.44
   5   0   6    0.33    0.51
  -5   0  -6    0.12    0.45
   5   0   6   -0.09    0.43
   5   0   6    1.22    0.49
   5   0   6    0.09    0.51
   5   0   6    0.09    0.58
  -5   0  -7  332.49    4.24
   5   0   7  319.14    4.46
  -5   0  -7  326.05    4.60
   5   0   7  294.98    4.03
   5   0   7  300.96    4.19
   5   0   7  320.50    4.15
   5   0   7  309.77    4.44
   5   0   7  302.61    4.10
   5   0   7  278.50    4.04
   5   0   7  306.54    4.31
   5   0   8    2.61    0.63
  -5   0  -8    2.68    0.73
   5   0   8    2.63    0.63
   5   0   8    3.37    0.60
   5   0   8    2.65    0.63
  -5   0  -8    3.07    0.74
  -5   0  -9   15.68    1.17
   5   0   9   14.54    1.06
   5   0   9   14.30    1.02
  -5   0  -9   14.50    0.91
   5   0   9   15.10    1.07
  -5   0  -9   15.91    1.17
   5   0   9   14.59    0.89
   5   0   9   14.66    1.04
   5   0  10   12.62    0.94
  -5   0 -10   14.31    1.04
  -5   0 -10   14.25    1.04
   5   0  10   14.64    0.96
  -5   0 -10   12.89    0.79
   5   0  10   13.78    0.94
   5   0  11    7.46    0.66
  -5   0 -11    6.91    0.69
  -5   0 -11    6.68    0.68
   5   0  11    7.33    0.63
   5   0  11    7.23    0.64
  -5   0 -12    5.99    0.48
   5   0  12    5.63    0.45
  -5   0 -12    5.66    0.48
  -5   0 -12    5.43    0.44
   5   0  12    6.23    0.44
   5   0  12    5.58    0.39
   5  -1 -13   59.15    1.14
   5   1 -13   55.27    1.05
   5   1 -13   54.15    1.04
   5  -1 -13   58.10    1.08
   5  -1 -12   74.23    1.57
   5  -1 -12   72.31    1.66
   5   1 -12   73.50    1.59
   5   1 -12   75.04    1.69
   5  -1 -12   72.32    1.66
   5   1 -12   71.35    1.45
   5   1 -12   73.73    1.65
   5  -1 -12   74.38    1.65
   5   1 -12   77.11    1.63
   5   1 -12   69.65    1.54
   5  -1 -11   89.67    2.10
   5   1 -11   90.83    2.09
   5   1 -11   87.63    2.06
   5  -1 -11   88.81    2.12
   5   1 -11   94.08    2.20
   5   1 -11   91.49    2.17
   5   1 -11   89.25    2.08
   5   1 -11   85.55    1.92
   5  -1 -11   92.15    2.20
   5  -1 -10  178.71    3.25
   5   1 -10  177.27    3.17
   5  -1 -10  180.76    3.31
   5   1 -10  179.95    3.28
   5   1 -10  176.47    3.29
   5   1 -10  179.04    3.20
   5  -1 -10  176.15    3.28
   5   1 -10  170.99    3.17
   5   1 -10  177.17    3.00
   5  -1  -9   67.39    2.11
   5   1  -9   64.57    1.90
   5   1  -9   69.11    2.10
   5  -1  -9   68.08    2.13
   5   1  -9   68.31    2.14
   5   1  -9   66.96    2.15
   5  -1  -9   72.00    2.22
   5   1  -9   68.26    2.08
   5  -1  -9   69.15    2.10
   5  -1  -9   68.63    2.19
   5   1  -9   70.24    2.11
   5   1  -9   66.63    1.97
   5   1  -8   66.31    2.09
  -5   1   8   68.74    2.02
  -5  -1   8   66.31    2.05
   5   1  -8   65.94    1.96
   5   1  -8   67.20    2.10
  -5  -1   8   64.85    2.01
   5  -1  -8   65.05    2.06
   5   1  -8   67.31    2.10
  -5   1   8   65.86    2.05
   5  -1  -8   68.56    2.11
   5  -1  -8   64.94    2.07
   5  -1  -8   66.12    2.04
   5  -1  -8   68.98    2.22
   5   1  -8   68.69    2.12
   5   1  -8   67.16    1.94
   5   1  -8   65.83    2.15
  -5  -1   8   66.84    2.11
   5  -1  -8   66.12    2.07
  -5   1   7  342.07    4.37
  -5  -1   7  339.31    4.44
   5   1  -7  328.71    4.39
   5   1  -7  345.45    4.38
   5  -1  -7  346.76    4.62
   5   1  -7  346.44    4.58
  -5  -1   7  337.19    4.33
   5  -1  -7  332.34    4.44
   5   1  -7  341.40    4.61
   5  -1  -7  338.28    4.42
   5  -1  -7  343.23    4.53
   5  -1  -7  337.97    4.68
   5   1  -7  348.98    4.58
   5   1  -7  338.82    4.24
   5  -1  -7  349.31    4.48
  -5   1   6  394.21    4.48
   5   1  -6  397.30    4.37
  -5  -1   6  398.05    4.61
  -5   1   6  391.22    4.27
   5   1  -6  401.75    4.58
   5   1  -6  387.80    4.64
  -5  -1   6  397.89    4.39
   5  -1  -6  385.97    4.53
   5  -1  -6  401.46    4.78
   5   1  -6  386.08    4.73
   5  -1  -6  386.94    4.60
   5   1  -6  407.74    4.37
   5  -1  -6  396.05    4.55
   5  -1  -6  403.32    4.91
   5   1  -6  392.32    4.70
   5   1  -6  405.46    4.42
   5  -1  -6  385.81    4.32
  -5  -1   6  394.43    4.61
   5   1  -5  241.25    3.29
  -5   1   5  242.61    3.29
  -5  -1   5  240.40    3.39
  -5   1   5  232.35    3.19
   5   1  -5  245.67    3.38
   5   1  -5  233.27    3.39
  -5  -1   5  233.76    3.08
   5  -1  -5  236.37    3.32
   5   1  -5  246.70    3.39
  -5   1   5  233.66    2.74
   5   1  -5  239.54    3.49
   5  -1  -5  236.92    3.41
   5  -1  -5  235.41    3.35
   5   1  -5  233.99    3.18
   5  -1  -5  231.84    3.27
   5  -1  -5  228.40    3.02
   5  -1  -5  236.54    3.49
   5   1  -5  234.23    3.46
   5  -1  -5  225.12    3.06
  -5  -1   5  239.15    3.36
  -5   1   4  740.78    5.77
   5  -1  -4  712.39    5.88
  -5  -1   4  789.52    6.00
   5  -1  -4  763.79    5.64
  -5   1   4  761.52    4.98
   5   1  -4  785.97    5.80
  -5  -1   4  740.30    5.42
   5  -1  -4  754.43    5.04
  -5   1   4  774.34    5.00
  -5   1   4  782.94    5.86
   5  -1  -4  758.77    5.50
  -5  -1   4  785.36    5.95
  -5  -1   3 2301.15   10.89
   5  -1  -3 2296.24   10.31
  -5   1   3 2321.16   11.08
  -5  -1   3 2317.39   11.21
  -5   1   3 2226.58    9.80
  -5  -1   3 2257.10   10.28
  -5   1   3 2306.82   11.02
   5  -1  -3 2280.84   10.11
   5   1  -3 2302.37   11.03
   5  -1  -3 2333.43   11.19
   5   1  -3 2311.35   10.05
  -5   1   2   49.28    1.33
  -5  -1   2   52.72    1.41
  -5   1   2   52.17    1.15
  -5  -1   2   53.80    1.30
  -5  -1   2   54.32    1.20
   5  -1  -2   51.78    1.23
   5  -1  -2   51.65    1.40
   5   1  -2   52.96    1.26
   5  -1  -2   56.52    1.46
   5   1  -2   50.64    1.36
  -5  -1   1  100.59    1.70
  -5  -1   1   94.64    1.47
  -5  -1   1   95.83    1.81
  -5   1   1  102.71    1.61
  -5   1   1   95.40    1.76
   5  -1  -1   99.98    1.92
   5   1  -1   96.44    1.72
   5  -1  -1   99.29    1.78
   5  -1  -1   98.46    1.70
   5   1   0  757.29    5.28
  -5  -1   0  783.07    5.47
   5  -1   0  793.40    5.17
  -5   1   0  770.26    5.04
   5   1   0  778.80    4.56
  -5   1   0  781.84    5.38
  -5  -1   0  795.72    4.60
   5   1   0  761.42    5.29
   5  -1   0  796.99    5.36
  -5   1  -1  156.99    2.22
   5   1   1  153.35    2.05
  -5   1  -1  149.82    2.30
   5  -1   1  142.47    2.36
   5  -1   1  149.44    2.04
  -5  -1  -1  154.34    1.82
   5   1   1  149.09    2.28
   5  -1   1  150.01    2.31
   5  -1   2   65.89    1.32
   5   1   2   64.47    1.45
  -5  -1  -2   68.93    1.24
   5  -1   2   67.93    1.64
   5   1   2   64.13    1.53
   5  -1   2   66.80    1.68
  -5  -1  -3  389.02    4.14
  -5   1  -3  374.79    4.02
   5   1   3  364.52    3.77
   5  -1   3  391.27    4.27
   5  -1   3  375.09    3.90
  -5   1  -3  383.67    3.95
   5   1   4   69.42    1.50
   5  -1   4   70.61    1.97
  -5  -1  -4   73.17    1.84
   5  -1   4   77.78    1.89
   5   1   4   75.37    1.83
  -5   1  -4   75.58    1.93
   5   1   4   72.79    1.74
   5   1   4   72.07    1.77
   5   1   4   72.51    1.76
  -5   1  -4   71.72    1.86
  -5   1  -4   72.08    1.69
   5   1   4   74.45    1.84
  -5   1  -4   71.59    1.86
  -5  -1  -4   77.88    1.86
   5  -1   4   76.03    1.80
   5   1   4   75.31    1.88
   5   1   4   70.96    1.79
   5   1   4   72.54    1.88
   5  -1   4   75.95    1.81
   5   1   5  153.61    2.84
   5   1   5  145.72    2.37
   5  -1   5  157.25    2.96
   5  -1   5  157.33    2.82
  -5  -1  -5  160.50    2.97
   5   1   5  152.05    2.67
   5   1   5  148.34    2.63
   5   1   5  147.73    2.76
   5   1   5  152.22    2.70
  -5  -1  -5  163.72    2.74
  -5   1  -5  153.40    2.84
   5  -1   5  158.19    2.66
  -5   1  -5  140.84    2.53
  -5  -1  -5  149.83    2.86
  -5   1  -5  155.75    2.90
   5   1   5  146.94    2.70
   5  -1   5  161.43    2.66
   5  -1   5  153.20    2.84
   5   1   5  152.97    2.77
  -5   1  -6  789.28    6.89
   5   1   6  764.27    6.15
  -5  -1  -6  800.62    7.22
   5   1   6  798.79    6.89
   5   1   6  780.46    6.73
   5  -1   6  840.95    6.47
   5  -1   6  792.10    6.94
   5   1   6  789.96    6.81
   5   1   6  792.95    6.69
   5  -1   6  772.86    6.31
   5   1   6  799.65    7.02
  -5  -1  -6  794.15    7.01
  -5   1  -6  804.32    7.22
   5   1   6  787.31    6.67
   5  -1   6  792.56    6.78
   5   1   6  803.75    6.83
   5  -1   6  785.27    6.85
   5   1   7  268.00    3.73
  -5   1  -7  288.77    4.09
   5  -1   7  286.94    4.24
   5   1   7  268.73    4.04
   5   1   7  280.71    4.04
   5  -1   7  273.00    4.15
   5   1   7  281.70    4.15
   5   1   7  280.86    4.22
   5   1   7  279.02    4.09
   5   1   7  277.22    3.98
  -5  -1  -7  290.02    4.25
  -5   1  -7  289.43    4.38
  -5   1  -7  284.18    4.08
   5  -1   7  273.61    4.12
   5   1   7  273.27    3.99
   5  -1   7  276.91    4.02
  -5  -1  -8  145.08    3.13
  -5   1  -8  144.23    2.92
   5  -1   8  136.59    2.95
  -5   1  -8  139.93    2.83
   5   1   8  138.67    2.84
   5   1   8  139.20    2.98
   5   1   8  139.45    2.91
   5  -1   8  140.69    2.95
   5   1   8  144.06    3.06
  -5  -1  -8  147.30    3.03
   5  -1   8  146.87    2.93
   5   1   8  142.73    2.89
   5  -1   8  138.95    2.86
  -5  -1  -9    8.29    0.92
  -5   1  -9    8.61    0.83
   5   1   9    7.99    0.79
   5  -1   9    8.86    0.85
   5   1   9    8.50    0.84
   5   1   9    8.79    0.88
  -5   1  -9    8.48    0.78
   5  -1   9    8.57    0.84
  -5  -1  -9    9.39    0.94
   5  -1   9    9.44    0.89
   5  -1   9    8.39    0.82
  -5  -1 -10    4.21    0.73
  -5   1 -10    4.00    0.64
   5  -1  10    3.90    0.56
   5  -1  10    4.78    0.67
   5   1  10    3.89    0.61
  -5  -1 -10    4.60    0.66
   5   1  10    4.07    0.62
  -5   1 -10    4.39    0.73
   5  -1  10    4.71    0.64
  -5  -1 -10    4.44    0.62
   5  -1  10    4.39    0.59
   5   1  10    4.62    0.68
   5   1  11    1.75    0.49
   5   1  11    2.23    0.47
  -5  -1 -11    2.47    0.56
  -5   1 -11    1.76    0.44
   5  -1  11    2.31    0.45
   5  -1  11    1.94    0.42
  -5   1 -11    1.78    0.44
   5  -1  11    1.83    0.46
  -5  -1 -11    1.97    0.42
  -5   1 -11    2.06    0.58
   5   1  11    2.13    0.49
  -5  -1 -11    1.95    0.43
   5  -1  11    2.15    0.41
  -5  -1 -12   14.19    0.66
  -5   1 -12   11.85    0.48
  -5  -1 -12   12.59    0.63
   5  -1  12   11.16    0.47
   5  -1  12   13.58    0.61
   5   1  12   13.21    0.59
   5  -1  12   12.95    0.49
   5   1  12   14.19    0.59
  -5   1 -12   13.55    0.64
   5   1  12   13.92    0.60
   5  -2 -13    0.84    0.21
   5  -2 -12    8.36    0.61
   5  -2 -12    9.05    0.59
   5   2 -12    9.62    0.64
   5   2 -12    8.54    0.58
   5  -2 -12    8.06    0.56
   5   2 -12    8.24    0.55
   5   2 -12    9.15    0.54
   5  -2 -12    9.15    0.63
   5   2 -12    8.32    0.58
   5  -2 -11   64.19    1.80
   5  -2 -11   64.90    1.68
   5   2 -11   67.12    1.77
   5   2 -11   72.19    1.81
   5   2 -11   67.13    1.68
   5  -2 -11   66.02    1.72
   5  -2 -11   64.39    1.74
   5   2 -11   72.72    1.74
   5  -2 -11   68.92    1.83
   5   2 -11   59.91    1.47
   5   2 -11   64.02    1.66
   5  -2 -10   10.14    0.90
   5  -2 -10   10.23    0.95
   5  -2 -10   10.50    0.89
   5   2 -10   10.43    0.93
   5   2 -10   11.01    0.93
   5   2 -10    8.88    0.82
  -5   2  10    9.65    0.69
   5  -2 -10    9.77    0.92
   5   2 -10   11.06    0.89
   5  -2 -10   11.46    0.94
   5   2 -10    9.17    0.78
   5   2 -10   10.01    0.84
   5  -2  -9   17.52    1.12
   5   2  -9   14.87    1.09
   5   2  -9   17.73    1.15
   5  -2  -9   15.90    1.11
   5   2  -9   16.79    1.10
  -5   2   9   15.26    0.91
   5  -2  -9   15.80    1.13
   5   2  -9   18.04    1.16
   5  -2  -9   16.44    1.16
   5   2  -9   15.97    1.01
   5   2  -9   16.51    1.07
   5   2  -8  193.17    3.45
  -5   2   8  189.59    3.08
   5  -2  -8  186.49    3.33
   5   2  -8  193.54    3.53
   5   2  -8  191.17    3.51
   5  -2  -8  193.75    3.47
  -5   2   8  185.83    2.98
   5   2  -8  196.20    3.47
   5  -2  -8  192.72    3.43
   5  -2  -8  193.13    3.58
   5   2  -8  186.64    3.27
   5   2  -8  184.98    3.29
  -5   2   7  189.61    3.20
  -5  -2   7  185.14    3.50
  -5   2   7  188.17    3.13
   5   2  -7  189.22    3.10
  -5  -2   7  182.35    3.15
   5  -2  -7  187.45    3.23
   5   2  -7  191.38    3.47
   5   2  -7  195.57    3.47
  -5   2   7  185.21    3.34
  -5   2   7  189.04    3.00
   5  -2  -7  185.35    3.30
   5   2  -7  188.06    3.34
   5  -2  -7  180.50    3.36
   5   2  -7  186.14    3.35
   5  -2  -7  194.11    3.48
   5   2  -7  187.97    3.28
   5   2  -7  185.63    3.30
   5  -2  -7  181.07    3.22
  -5  -2   7  190.89    3.44
   5  -2  -7  190.69    3.40
  -5   2   6  473.31    4.99
  -5  -2   6  482.41    5.42
  -5   2   6  470.51    4.99
   5   2  -6  481.85    4.96
  -5  -2   6  468.66    4.77
   5  -2  -6  487.15    5.05
   5   2  -6  481.52    5.38
   5   2  -6  476.74    5.34
  -5   2   6  476.07    5.22
   5  -2  -6  463.96    5.14
   5   2  -6  472.73    5.22
   5  -2  -6  468.56    4.99
  -5   2   6  477.10    4.75
  -5   2   6  473.78    4.72
   5   2  -6  466.75    5.20
   5  -2  -6  491.72    5.46
   5   2  -6  472.60    5.10
   5   2  -6  468.61    5.07
   5  -2  -6  460.39    4.90
   5  -2  -6  441.77    5.21
  -5  -2   6  476.66    5.21
   5   2  -5   82.38    1.93
  -5  -2   5   85.35    2.17
   5  -2  -5   76.68    1.95
  -5   2   5   80.30    2.04
   5   2  -5   79.37    1.94
  -5  -2   5   80.46    1.80
   5   2  -5   79.05    2.12
   5   2  -5   81.41    2.13
   5   2  -5   79.02    2.03
  -5   2   5   80.42    2.00
   5  -2  -5   82.81    2.05
   5   2  -5   79.05    2.03
  -5   2   5   79.27    1.82
   5  -2  -5   73.11    2.01
  -5   2   5   78.14    1.83
   5   2  -5   83.30    1.92
   5  -2  -5   79.76    2.07
   5   2  -5   80.82    2.01
   5   2  -5   78.19    1.96
   5  -2  -5   77.15    1.84
  -5  -2   5   80.65    2.00
   5   2  -4  264.36    3.44
  -5  -2   4  279.43    3.70
  -5   2   4  269.15    3.56
   5   2  -4  262.39    3.42
  -5  -2   4  255.31    2.95
   5   2  -4  260.50    3.64
   5   2  -4  267.82    3.70
  -5   2   4  282.84    3.60
  -5   2   4  268.93    3.20
   5  -2  -4  249.63    3.53
   5  -2  -4  265.30    3.50
   5  -2  -4  264.77    3.56
   5   2  -4  268.63    3.48
   5  -2  -4  255.30    3.08
   5   2  -4  267.95    3.45
   5   2  -4  264.87    3.37
  -5  -2   4  254.99    3.31
   5   2  -4  266.08    3.52
  -5  -2   3  961.30    6.34
   5   2  -3  958.78    6.52
   5   2  -3  906.62    6.88
   5   2  -3  943.22    6.79
  -5  -2   3  965.65    5.66
   5  -2  -3 1026.45    6.78
   5  -2  -3  976.47    6.86
   5   2  -3  903.05    6.62
   5  -2  -3  939.65    6.71
  -5   2   3  944.94    6.63
   5  -2  -3  884.84    5.61
   5  -2  -2  880.55    5.14
  -5  -2   2  882.91    5.73
   5  -2  -2  870.12    6.14
   5  -2  -2  879.89    6.49
   5   2  -2  873.10    6.09
  -5  -2   1  451.87    3.70
  -5  -2   1  432.11    4.22
  -5   2   1  452.59    3.39
   5  -2  -1  433.73    4.04
   5  -2  -1  459.00    4.21
  -5  -2   0  181.50    2.64
  -5   2   0  187.98    2.23
   5  -2   0  176.50    2.75
   5  -2   0  179.90    2.66
   5  -2   0  169.81    2.35
  -5  -2  -1  447.89    4.30
  -5   2  -1  427.52    3.77
   5  -2   1  437.83    3.64
  -5   2  -1  416.46    4.29
   5  -2   1  443.53    4.43
   5  -2   1  453.16    4.41
  -5  -2  -2  686.42    5.50
  -5   2  -2  647.42    5.17
   5   2   2  635.91    4.65
  -5   2  -2  666.11    5.51
   5  -2   2  641.63    5.50
   5  -2   2  670.47    5.73
   5   2   3  113.67    2.23
  -5  -2  -3  113.35    2.25
   5   2   3  111.57    2.25
  -5   2  -3  113.07    2.19
   5   2   3  110.09    2.22
   5   2   3  113.21    2.06
  -5   2  -3  116.37    2.34
   5  -2   3  113.60    2.25
  -5   2  -3  111.40    2.09
  -5   2  -3  107.35    2.27
   5  -2   3  103.95    2.35
   5   2   3  114.68    2.27
  -5   2  -4  118.06    2.22
   5   2   4  119.55    2.34
   5  -2   4  122.06    2.32
  -5  -2  -4  122.38    2.45
   5   2   4  113.15    2.38
   5  -2   4  120.61    2.37
  -5   2  -4  111.17    2.21
   5   2   4  116.98    2.25
   5   2   4  113.22    2.38
  -5   2  -4  117.29    2.41
   5   2   4  115.81    2.26
   5   2   4  118.78    2.36
   5   2   4  117.06    2.32
   5   2   4  120.41    2.44
   5   2   5  126.41    2.48
   5  -2   5  126.81    2.90
  -5  -2  -5  124.64    2.59
   5   2   5  123.79    2.58
   5   2   5  127.42    2.49
  -5   2  -5  125.68    2.71
  -5  -2  -5  120.50    2.34
  -5   2  -5  118.58    2.33
  -5  -2  -5  122.42    2.56
   5   2   5  125.52    2.58
  -5   2  -5  117.17    2.41
  -5   2  -5  119.04    2.63
   5   2   5  120.94    2.45
   5  -2   5  128.12    2.38
   5  -2   5  125.68    2.51
   5  -2   5  122.42    2.55
   5   2   5  118.81    2.52
   5   2   6   27.68    1.22
   5  -2   6   27.14    1.45
   5   2   6   26.75    1.34
  -5  -2  -6   27.00    1.36
   5   2   6   24.34    1.30
   5   2   6   27.33    1.26
  -5   2  -6   25.58    1.31
  -5   2  -6   25.86    1.23
  -5  -2  -6   26.01    1.33
  -5   2  -6   26.35    1.42
  -5   2  -6   29.51    1.46
   5   2   6   26.53    1.30
   5  -2   6   25.98    1.29
   5  -2   6   28.73    1.33
   5  -2   6   25.93    1.25
   5   2   6   26.01    1.31
   5   2   7   49.43    1.76
   5  -2   7   51.40    1.78
  -5   2  -7   51.46    1.86
   5  -2   7   51.12    1.72
   5   2   7   50.78    1.84
  -5   2  -7   48.47    1.57
  -5  -2  -7   49.05    1.76
  -5   2  -7   50.50    1.92
   5   2   7   50.07    1.72
   5   2   7   50.66    1.76
   5  -2   7   50.64    1.72
   5   2   7   50.40    1.79
   5   2   8   70.17    1.88
   5  -2   8   65.40    2.00
   5   2   8   65.23    2.03
   5   2   8   66.48    1.95
   5   2   8   66.61    2.03
  -5   2  -8   67.91    2.07
  -5   2  -8   64.39    1.77
  -5  -2  -8   66.24    1.97
  -5   2  -8   68.27    2.20
   5  -2   8   70.79    2.04
   5   2   8   67.40    2.01
   5  -2   8   66.02    1.92
   5  -2   8   68.00    1.91
   5   2   8   65.14    2.00
  -5  -2  -9   10.10    0.99
  -5   2  -9    8.10    0.73
   5   2   9    9.08    0.83
   5  -2   9    8.47    0.75
   5   2   9    8.81    0.79
   5   2   9    9.15    0.82
  -5  -2  -9    8.88    0.79
   5  -2   9    9.13    0.79
  -5   2  -9    7.88    0.88
   5  -2   9    9.76    0.85
   5   2   9    9.48    0.84
  -5   2  -9    9.24    0.85
   5  -2   9    9.05    0.75
   5   2   9    9.20    0.88
  -5  -2 -10   16.46    1.03
   5  -2  10   14.71    0.80
   5   2  10   16.95    0.96
   5  -2  10   16.43    0.92
   5   2  10   16.25    0.91
  -5   2 -10   14.81    0.85
  -5  -2 -10   15.02    0.83
  -5   2 -10   16.28    1.06
   5  -2  10   17.34    0.91
   5   2  10   16.15    0.93
  -5  -2 -10   15.89    0.95
   5  -2  10   15.27    0.78
   5   2  10   16.32    0.97
   5   2  11   61.62    1.39
  -5  -2 -11   62.15    1.54
   5   2  11   60.93    1.43
   5  -2  11   57.70    1.34
   5   2  11   53.81    1.26
  -5   2 -11   63.33    1.55
   5  -2  11   61.54    1.27
  -5  -2 -11   57.63    1.38
  -5  -2 -12    4.90    0.37
  -5  -2 -12    4.78    0.35
   5   2  12    4.41    0.32
   5   2  12    4.82    0.34
   5  -3 -12   13.09    0.62
   5   3 -12   13.72    0.61
   5  -3 -12   13.30    0.59
   5  -3 -12   12.35    0.49
   5   3 -12   13.04    0.57
   5  -3 -11   17.25    0.76
   5   3 -11   17.01    0.77
  -5   3  11   16.06    0.64
   5  -3 -11   17.05    0.87
   5   3 -11   18.60    0.77
   5  -3 -11   17.38    0.85
   5   3 -11   17.96    0.87
   5   3 -10   19.47    0.91
   5  -3 -10   19.88    1.15
   5  -3 -10   19.93    0.97
   5   3 -10   19.94    1.13
   5   3 -10   20.38    1.01
   5  -3 -10   20.30    0.98
  -5   3  10   19.96    0.92
   5   3 -10   21.31    1.03
   5  -3 -10   20.23    1.08
   5  -3 -10   20.26    1.06
   5   3 -10   20.56    1.07
  -5   3   9   10.79    0.82
   5   3  -9   10.46    0.80
   5  -3  -9   11.25    0.85
   5   3  -9   11.33    0.98
   5   3  -9   11.16    0.88
   5   3  -9   10.86    0.88
   5  -3  -9   10.27    0.81
  -5   3   9   10.77    0.81
   5  -3  -9   11.52    0.94
   5  -3  -9   12.38    0.95
   5   3  -9   12.36    0.94
   5   3  -8   27.47    1.25
  -5   3   8   27.82    1.30
   5  -3  -8   28.15    1.27
   5   3  -8   27.61    1.43
   5   3  -8   27.77    1.36
  -5   3   8   27.39    1.24
   5  -3  -8   26.71    1.31
   5   3  -8   27.50    1.37
   5  -3  -8   28.38    1.39
   5   3  -8   29.10    1.38
  -5   3   7    5.00    0.64
  -5   3   7    3.00    0.70
   5   3  -7    3.05    0.63
   5   3  -7    3.11    0.72
  -5   3   7    3.30    0.60
   5   3  -7    3.09    0.57
   5   3  -7    3.50    0.68
   5  -3  -7    3.61    0.65
   5   3  -7    3.16    0.67
   5   3  -6   13.78    0.94
  -5   3   6   13.80    1.08
  -5   3   6   14.36    0.98
  -5   3   6   13.60    0.94
   5   3  -6   14.20    1.07
   5   3  -6   14.73    1.04
  -5   3   6   15.80    1.00
  -5   3   6   15.39    0.98
   5  -3  -6   13.72    1.05
   5   3  -6   13.79    1.02
   5  -3  -6   12.07    0.94
   5   3  -6   13.85    1.03
   5  -3  -6   11.53    0.90
  -5  -3   6   13.11    0.96
  -5  -3   5    8.47    0.83
  -5   3   5    9.57    0.95
  -5   3   5    7.56    0.77
   5   3  -5    7.54    0.85
   5   3  -5    7.20    0.79
   5   3  -5    8.39    0.74
  -5   3   5    7.88    0.76
  -5   3   5    7.35    0.73
  -5   3   5    7.87    0.72
   5  -3  -5    7.96    0.88
   5   3  -5    7.70    0.83
   5  -3  -5    7.37    0.76
   5   3  -5    8.39    0.83
   5  -3  -5    7.40    0.70
  -5  -3   5    7.95    0.73
   5   3  -4  175.76    2.91
  -5  -3   4  174.54    3.20
  -5   3   4  181.97    3.14
  -5   3   4  172.90    2.89
   5  -3  -4  172.36    3.11
   5   3  -4  177.54    3.18
   5   3  -4  179.81    3.06
   5   3  -4  176.67    2.87
  -5   3   4  178.69    2.92
  -5   3   4  174.06    2.84
   5  -3  -4  171.19    3.13
   5   3  -4  170.96    3.03
   5   3  -4  178.50    3.06
  -5   3   4  178.79    3.02
  -5  -3   4  174.13    2.79
  -5  -3   3  348.94    3.70
   5   3  -3  354.82    4.15
  -5  -3   3  367.33    4.43
  -5   3   3  341.56    4.27
  -5   3   3  349.14    4.08
   5   3  -3  356.37    4.00
   5  -3  -3  325.16    4.11
   5   3  -3  344.43    4.14
   5   3  -3  352.85    4.29
  -5   3   3  351.81    4.13
  -5   3   3  348.28    3.99
   5  -3  -3  373.95    4.45
   5  -3  -3  338.78    4.33
   5   3  -3  331.95    4.17
   5   3  -3  351.03    4.13
   5   3  -2   33.06    1.29
  -5  -3   2   36.83    1.38
  -5   3   2   36.17    1.42
  -5   3   2   34.96    1.33
  -5   3   2   34.60    1.25
   5   3  -2   35.43    1.27
   5   3  -2   34.60    1.30
   5   3  -2   34.93    1.34
   5  -3  -2   35.03    1.32
   5  -3  -2   37.89    1.42
  -5   3   2   34.48    1.30
   5   3  -2   37.13    1.33
   5   3  -1   49.61    1.54
  -5  -3   1   55.27    1.61
  -5   3   1   54.77    1.65
  -5   3   1   52.44    1.56
   5   3  -1   47.55    1.47
   5   3  -1   48.50    1.50
   5  -3  -1   48.01    1.43
  -5   3   1   49.60    1.46
   5  -3  -1   48.62    1.57
   5  -3  -1   49.65    1.61
   5   3  -1   47.81    1.51
  -5   3   1   49.37    1.52
   5   3  -1   49.78    1.48
   5   3  -1   51.88    1.56
  -5   3   1   51.51    1.57
   5   3   0   47.53    1.48
   5   3   0   47.64    1.52
  -5  -3   0   47.31    1.45
  -5   3   0   49.47    1.53
   5   3   0   46.33    1.46
   5   3   0   45.29    1.45
   5   3   0   47.61    1.47
  -5   3   0   49.88    1.54
   5  -3   0   47.83    1.56
  -5   3   0   44.72    1.36
   5  -3   0   45.39    1.55
  -5   3   0   46.10    1.47
   5  -3   0   44.91    1.30
   5   3   1  196.94    3.10
  -5   3  -1  205.74    2.91
   5   3   1  210.48    3.06
  -5  -3  -1  215.33    3.08
  -5   3  -1  212.49    3.06
   5   3   1  200.84    3.05
   5   3   1  199.08    2.94
  -5   3  -1  199.95    3.12
  -5   3  -1  203.20    3.01
   5  -3   1  199.36    3.17
   5   3   1  198.67    3.02
   5  -3   1  209.43    3.26
  -5   3  -1  190.61    3.00
   5   3   2   75.72    1.96
  -5   3  -2   81.42    1.95
  -5  -3  -2   79.62    1.92
   5  -3   2   79.40    2.02
   5   3   2   76.98    1.96
   5   3   2   83.41    1.95
  -5   3  -2   70.28    1.94
  -5   3  -2   78.14    2.02
   5   3   2   76.09    1.88
  -5   3  -2   75.03    1.80
  -5   3  -2   76.43    1.90
   5   3   2   78.02    1.94
   5   3   2   77.34    1.85
   5   3   3  309.70    3.90
   5   3   3  299.02    3.95
   5   3   3  293.78    3.93
   5   3   3  297.56    3.94
  -5   3  -3  293.11    4.11
  -5   3  -3  286.72    4.01
  -5   3  -3  301.69    3.71
  -5   3  -3  296.60    3.81
   5  -3   3  306.26    3.94
   5  -3   3  292.13    4.22
   5   3   3  290.15    3.73
   5   3   4   87.06    2.20
  -5  -3  -4   91.73    2.15
   5   3   4   87.73    2.22
   5   3   4   89.70    2.26
   5   3   4   91.81    2.19
  -5   3  -4   87.44    2.36
  -5   3  -4   90.54    2.14
  -5   3  -4   90.08    2.15
   5  -3   4   90.60    2.53
  -5   3  -5   55.10    1.77
   5   3   5   53.17    1.68
   5  -3   5   55.72    2.08
   5   3   5   55.67    1.79
  -5  -3  -5   60.01    1.86
  -5   3  -5   52.88    1.78
   5   3   5   56.06    1.85
   5   3   5   55.32    1.79
  -5   3  -5   49.52    1.89
  -5  -3  -5   51.44    1.77
  -5   3  -5   54.22    1.75
  -5  -3  -5   55.36    1.77
   5   3   5   58.19    1.78
   5  -3   5   59.80    1.80
   5   3   5   55.47    1.75
  -5   3  -6   95.38    2.34
   5   3   6  105.95    2.43
   5  -3   6  102.98    2.38
   5   3   6  101.75    2.36
   5   3   6   99.30    2.50
   5   3   6  103.64    2.52
  -5   3  -6   99.05    2.60
  -5   3  -6  101.22    2.33
  -5  -3  -6  103.99    2.35
  -5   3  -6  101.80    2.50
   5   3   6   98.67    2.37
   5  -3   6  106.01    2.35
   5   3   6  103.55    2.41
   5   3   7   54.96    1.84
  -5   3  -7   56.76    1.98
   5  -3   7   52.88    1.71
   5   3   7   52.24    1.74
   5   3   7   47.71    1.79
  -5   3  -7   52.46    1.73
  -5  -3  -7   52.53    1.68
  -5   3  -7   53.45    1.84
   5   3   7   54.40    1.80
   5  -3   7   55.01    1.66
   5   3   7   55.48    1.82
   5   3   7   50.53    1.74
   5   3   8   66.61    1.88
   5  -3   8   62.95    1.79
   5   3   8   63.64    1.81
  -5   3  -8   69.58    2.06
   5   3   8   68.07    1.98
  -5   3  -8   65.51    1.80
  -5   3  -8   66.81    2.01
   5  -3   8   66.86    1.91
   5   3   8   63.97    1.88
   5  -3   8   66.22    1.69
   5   3   8   62.14    1.85
   5   3   9    2.57    0.56
   5   3   9    2.70    0.50
  -5  -3  -9    2.04    0.63
   5   3   9    2.41    0.49
   5  -3   9    2.23    0.48
  -5   3  -9    2.38    0.60
  -5   3  -9    2.12    0.54
   5  -3   9    2.87    0.59
  -5   3  -9    2.19    0.59
   5   3   9    2.45    0.56
   5   3  10    4.04    0.55
  -5  -3 -10    3.57    0.58
   5   3  10    2.81    0.45
   5   3  10    3.09    0.49
  -5   3 -10    3.12    0.53
  -5   3 -10    3.21    0.57
   5  -3  10    3.43    0.45
   5   3  10    2.80    0.49
   5   3  11    2.86    0.37
   5   3  11    3.18    0.39
  -5  -3 -11    2.84    0.39
  -5  -3 -11    2.63    0.34
   5   3  11    2.30    0.28
  -5   3 -11    2.61    0.39
   5   3  11    3.00    0.38
  -5  -3 -11    2.97    0.40
   5  -4 -11   23.56    0.84
   5   4 -11   24.32    0.77
   5  -4 -11   22.90    0.74
   5   4 -11   23.62    0.81
   5  -4 -10   21.74    1.01
   5   4 -10   20.97    0.94
  -5   4  10   19.11    0.80
   5  -4 -10   20.96    0.91
   5   4 -10   22.22    0.99
  -5   4   9   19.35    0.98
   5  -4  -9   21.33    1.13
   5   4  -9   20.24    0.90
   5   4  -9   20.29    1.05
  -5   4   9   20.04    0.96
   5  -4  -9   20.16    1.02
   5   4  -9   21.43    1.00
   5   4  -9   21.17    1.08
  -5   4   8   79.07    2.06
  -5   4   8   75.15    1.81
   5   4  -8   79.95    1.91
  -5   4   8   76.74    1.94
   5  -4  -8   78.23    1.98
   5   4  -8   80.26    2.05
   5   4  -8   82.92    2.16
  -5   4   7   49.93    1.77
  -5   4   7   47.95    1.59
   5   4  -7   48.04    1.61
  -5   4   7   49.51    1.64
   5   4  -7   50.75    1.77
   5   4  -7   49.70    1.75
  -5   4   6  164.75    3.02
  -5   4   6  166.41    3.22
  -5   4   6  164.98    2.96
   5   4  -6  165.35    2.97
   5   4  -6  172.09    3.23
   5   4  -6  170.40    3.20
   5   4  -6  167.37    3.19
  -5   4   5   96.58    2.50
  -5   4   5  103.42    2.40
   5   4  -5  106.67    2.43
   5   4  -5  110.11    2.60
  -5   4   5   98.25    2.35
   5   4  -5  109.78    2.59
   5   4  -5  102.00    2.49
  -5   4   4  149.46    2.93
  -5  -4   4  149.85    3.14
  -5   4   4  141.42    3.00
  -5   4   4  143.04    2.83
   5  -4  -4  142.00    3.03
   5   4  -4  146.15    2.82
   5   4  -4  145.84    2.92
   5  -4  -4  145.88    3.19
   5   4  -4  145.76    2.96
  -5   4   4  137.93    2.74
   5   4  -4  143.49    2.88
   5   4  -3  262.99    3.87
   5   4  -3  258.19    3.70
  -5  -4   3  278.00    4.18
  -5   4   3  282.88    4.05
  -5   4   3  267.53    3.81
   5  -4  -3  256.44    3.93
   5   4  -3  269.91    3.75
   5   4  -3  266.38    3.86
  -5   4   3  272.08    3.98
  -5   4   3  264.74    3.74
   5  -4  -3  284.55    4.30
   5   4  -3  260.46    3.83
   5   4  -2   34.68    1.41
  -5  -4   2   37.49    1.51
  -5   4   2   35.78    1.52
  -5   4   2   34.57    1.46
  -5   4   2   35.13    1.45
   5   4  -2   34.68    1.40
   5  -4  -2   30.97    1.36
  -5   4   2   36.40    1.47
  -5   4   2   35.66    1.42
   5  -4  -2   35.48    1.53
   5  -4  -2   33.65    1.54
   5   4  -2   34.04    1.44
   5   4  -2   35.28    1.44
   5   4  -2   36.43    1.42
   5   4  -1  359.93    4.49
  -5  -4   1  373.39    4.45
  -5   4   1  377.32    4.50
   5   4  -1  361.07    4.22
   5   4  -1  357.49    4.33
   5   4  -1  364.69    4.33
  -5   4   1  355.55    4.29
  -5   4   1  380.83    4.59
  -5   4   1  354.96    4.44
   5  -4  -1  364.69    4.73
   5  -4  -1  365.01    4.73
   5   4  -1  342.26    4.37
   5   4   0   94.20    2.32
  -5   4   0   98.66    2.27
  -5  -4   0  102.97    2.28
  -5   4   0  106.18    2.39
   5   4   0   97.25    2.22
   5   4   0  101.29    2.25
   5  -4   0   96.85    2.43
  -5   4   0  100.02    2.35
  -5   4   0   93.95    2.18
  -5   4   0   97.04    2.30
   5   4   1  196.57    3.38
  -5  -4  -1  206.73    3.16
  -5   4  -1  211.71    3.32
   5   4   1  199.94    3.24
   5   4   1  207.23    3.22
  -5   4  -1  200.80    3.41
  -5   4  -1  198.76    3.13
  -5   4  -1  203.23    3.31
   5  -4   1  200.63    3.44
   5   4   1  197.07    3.28
  -5   4  -1  190.83    3.17
   5   4   2   41.53    1.62
  -5   4  -2   45.53    1.61
  -5  -4  -2   44.83    1.50
   5   4   2   42.72    1.52
   5   4   2   41.03    1.55
   5   4   2   43.83    1.52
  -5   4  -2   44.30    1.62
  -5   4  -2   44.48    1.73
  -5   4  -2   44.38    1.54
  -5   4  -2   40.20    1.59
   5  -4   2   42.33    1.60
   5  -4   2   44.23    1.81
   5   4   3   74.51    2.07
   5   4   3   75.64    2.01
  -5   4  -3   77.90    2.24
  -5   4  -3   79.64    2.14
   5  -4   3   82.10    2.47
   5   4   4  149.85    2.99
   5   4   4  141.05    2.89
   5   4   4  146.40    2.82
  -5   4  -4  144.25    3.10
  -5   4  -4  147.02    2.90
   5   4   5   45.94    1.70
   5   4   5   46.61    1.66
  -5   4  -5   44.41    1.83
  -5   4  -5   46.52    1.72
   5   4   5   45.08    1.71
   5   4   5   42.29    1.48
   5   4   6   43.77    1.71
   5   4   6   45.10    1.61
   5   4   6   43.74    1.67
  -5   4  -6   42.91    1.82
  -5   4  -6   40.20    1.59
  -5   4  -6   44.37    1.65
   5   4   6   41.66    1.51
   5   4   6   42.15    1.48
   5   4   7   24.23    1.27
   5   4   7   24.02    1.29
   5   4   7   24.24    1.21
  -5   4  -7   23.88    1.24
  -5   4  -7   21.10    1.11
   5   4   7   22.30    1.12
   5   4   7   21.97    1.09
   5   4   8   23.26    1.11
   5   4   8   24.02    1.17
  -5  -4  -8   22.64    1.14
  -5   4  -8   24.99    1.26
   5   4   8   24.71    1.13
  -5   4  -8   24.34    1.16
   5  -4   8   24.00    1.08
  -5   4  -8   20.81    1.02
   5   4   8   20.70    1.03
   5   4   8   21.83    1.03
   5   4   9    9.81    0.67
   5   4   9   11.28    0.76
  -5  -4  -9    9.63    0.72
  -5   4  -9   10.02    0.79
  -5   4  -9   10.88    0.72
   5  -4   9   10.64    0.62
  -5   4  -9    9.67    0.67
   5   4   9    9.50    0.68
   5   4   9   10.01    0.67
   5   4  10    3.57    0.37
  -5  -4 -10    3.76    0.39
  -5   4 -10    4.09    0.46
  -5   4 -10    3.63    0.36
   5   4  10    4.19    0.41
  -5   5  10   18.35    0.58
  -5   5  10   18.57    0.59
   5   5 -10   19.20    0.69
  -5   5   9    1.39    0.46
  -5   5   9    1.20    0.32
   5  -5  -9    1.59    0.40
   5   5  -9    1.47    0.33
  -5   5   9    1.23    0.38
  -5   5   9    1.71    0.42
   5   5  -9    1.48    0.43
  -5   5   8    3.78    0.64
  -5   5   8    2.88    0.50
   5  -5  -8    2.99    0.51
  -5   5   8    3.41    0.57
  -5   5   8    3.46    0.55
   5   5  -8    3.39    0.50
   5   5  -8    3.30    0.45
   5   5  -8    3.00    0.58
   5   5  -7   19.63    1.01
  -5   5   7   21.05    1.17
  -5   5   7   20.09    1.02
   5  -5  -7   19.28    0.99
  -5   5   7   22.11    1.08
  -5   5   7   22.37    1.15
   5   5  -7   19.84    1.00
   5   5  -7   20.95    1.13
  -5   5   6   35.49    1.48
  -5   5   6   36.40    1.41
  -5   5   6   32.68    1.39
   5   5  -6   35.82    1.41
   5   5  -6   32.94    1.34
   5   5  -6   33.89    1.44
  -5   5   5    7.35    0.93
  -5   5   5    7.43    0.85
  -5   5   5    7.26    0.80
  -5   5   5    7.87    0.87
   5   5  -5    7.73    0.81
   5   5  -5    7.81    0.85
   5   5  -5    7.99    0.76
  -5   5   4  108.11    2.58
  -5   5   4  106.50    2.44
   5   5  -4  102.62    2.33
  -5   5   4  107.03    2.43
  -5   5   4  101.78    2.50
   5   5  -4  104.62    2.51
   5   5  -4  102.27    2.45
  -5   5   3   47.35    1.77
   5   5  -3   43.99    1.54
  -5   5   3   45.61    1.65
   5   5  -3   47.43    1.73
  -5   5   3   45.44    1.72
   5   5  -2  102.79    2.38
  -5   5   2  109.69    2.54
  -5   5   2  107.70    2.51
  -5   5   2  109.20    2.43
  -5   5   2  104.05    2.51
   5   5  -2  108.46    2.36
   5   5  -2  107.68    2.54
   5   5  -1    9.65    0.89
  -5   5   1   10.52    0.95
  -5   5   1    9.93    0.94
   5   5  -1   10.06    0.81
   5   5  -1   10.00    0.92
   5   5   0   31.13    1.45
  -5   5   0   30.28    1.34
  -5   5   0   33.45    1.47
   5   5   0   31.31    1.29
   5   5   0   32.11    1.45
   5   5   0   30.13    1.37
   5   5   1   50.91    1.81
  -5   5  -1   53.27    1.78
   5   5   1   52.14    1.63
   5   5   1   49.51    1.80
   5   5   2   92.60    2.42
  -5   5  -2   95.47    2.28
   5   5   2   93.08    2.14
  -5   5  -2   86.71    2.25
  -5   5  -2   89.93    2.22
  -5   5  -2   93.95    2.39
   5   5   2   93.90    2.45
   5   5   3   78.07    2.25
   5   5   3   76.60    2.23
  -5   5  -3   77.99    2.08
   5   5   3   76.55    1.97
  -5   5  -3   73.38    2.15
  -5   5  -3   76.13    2.18
   5   5   4    1.66    0.50
   5   5   4    1.87    0.68
   5   5   4    1.40    0.49
   5   5   4    3.82    0.60
  -5   5  -4    1.33    0.62
  -5   5  -4    2.31    0.69
  -5   5  -4    2.55    0.78
   5   5   5    7.52    0.91
   5   5   5    6.35    0.70
   5   5   5    7.70    0.77
  -5   5  -5    6.66    0.86
   5   5   5    6.64    0.69
  -5   5  -5    7.19    0.90
  -5   5  -5    7.64    0.90
   5   5   6   20.65    1.07
   5   5   6   20.85    1.02
  -5   5  -6   20.55    1.24
  -5   5  -6   20.61    1.16
  -5   5  -6   20.66    1.20
   5   5   7   11.10    0.85
   5   5   7   11.27    0.80
  -5  -5  -7   10.94    0.73
  -5   5  -7   11.66    0.92
   5   5   7   10.76    0.72
  -5   5  -7   12.05    0.92
   5   5   7   10.84    0.66
   5   5   8   12.79    0.76
   5   5   8   12.63    0.74
  -5  -5  -8   10.63    0.60
  -5   5  -8   13.17    0.81
   5   5   8   12.22    0.60
   5   5   9   10.48    0.51
   5   5   9   12.62    0.59
  -5   6   8   10.82    0.65
  -5   6   8   10.96    0.54
  -5   6   8   11.81    0.58
  -5   6   8   11.89    0.54
  -5   6   7    6.87    0.59
  -5   6   7    7.22    0.60
  -5   6   7    7.27    0.60
  -5   6   6    4.86    0.70
  -5   6   6    4.64    0.61
  -5   6   6    4.50    0.60
  -5   6   6    4.89    0.61
   5   6  -6    5.13    0.49
  -5   6   5   -0.21    0.58
  -5   6   5    0.42    0.53
  -5   6   5    0.12    0.47
   5   6  -5    0.17    0.37
  -5   6   4   13.47    1.00
  -5   6   4   13.46    0.97
   5   6  -4   12.58    0.88
  -5   6   3   33.52    1.40
  -5   6   3   36.14    1.42
  -5   6   3   35.46    1.44
   5   6  -3   33.04    1.34
  -5   6   2   28.29    1.29
  -5   6   2   31.67    1.35
  -5   6   2   27.96    1.30
  -5   6   2   31.58    1.39
   5   6  -1    0.22    0.43
  -5   6   1    0.08    0.51
  -5   6   1    0.19    0.57
  -5   6   1    0.54    0.61
  -5   6   1   -0.03    0.54
   5   6   0    1.42    0.56
  -5   6   0    1.83    0.64
  -5   6   0    1.29    0.63
  -5   6   0    1.90    0.71
   5   6   1  118.51    2.39
   5   6   1  122.64    2.65
  -5   6  -1  126.55    2.46
  -5   6  -1  136.89    2.55
  -5   6  -1  129.72    2.70
   5   6   2    2.33    0.64
  -5   6  -2    2.72    0.67
  -5   6  -2    2.25    0.76
   5   6   3   21.59    1.18
  -5   6  -3   22.74    1.09
  -5   6  -3   25.05    1.19
   5   6   4   48.02    1.59
  -5   6  -4   49.39    1.51
   5   6   5    3.48    0.61
  -5   6  -5    3.68    0.59
  -5   6  -5    4.07    0.63
  -5   6  -5    3.91    0.69
   5   6   6    1.37    0.50
   5   6   6    1.01    0.31
  -5   6  -6    1.03    0.44
  -5   6  -6    1.46    0.56
   5   6   7    2.92    0.31
   5   6   8    5.24    0.35
  -5   7   6    1.21    0.31
  -5   7   6    1.21    0.28
  -5   7   5    4.06    0.49
  -5   7   5    4.70    0.46
  -5   7   5    4.42    0.42
  -5   7   4    3.02    0.49
  -5   7   4    3.57    0.50
  -5   7   4    3.44    0.47
  -5   7   4    3.93    0.49
  -5   7   3    1.40    0.47
  -5   7   3    1.43    0.42
  -5   7   3    1.70    0.49
  -5   7   2    4.56    0.58
  -5   7   2    4.85    0.56
  -5   7   2    5.17    0.62
  -5   7   1    4.82    0.58
  -5   7   1    5.71    0.60
  -5   7   1    5.49    0.65
  -5   7   0    0.65    0.47
  -5   7   0    0.79    0.55
  -5   7  -1    9.40    0.70
  -5   7  -1    8.65    0.76
  -5   7  -2   19.76    0.89
  -5   7  -2   17.22    0.93
  -5   7  -3   18.99    0.82
  -5   7  -3   19.13    0.91
  -5   7  -4    8.89    0.56
  -5   7  -4    8.63    0.64
   5   7   5    1.26    0.28
  -5   7  -5    1.67    0.39
   6   0 -12   36.72    1.10
   6   0 -12   35.41    1.07
   6   0 -11   15.92    0.86
   6   0 -11   17.76    1.01
   6   0 -11   17.18    0.98
   6   0 -11   17.58    1.00
   6   0 -10   47.76    1.61
   6   0 -10   47.67    1.70
   6   0 -10   46.05    1.47
   6   0 -10   45.11    1.67
   6   0  -9  158.32    2.76
   6   0  -9  160.64    3.09
   6   0  -9  156.97    2.88
   6   0  -9  152.33    3.07
   6   0  -9  160.76    3.22
   6   0  -8   32.45    1.41
   6   0  -8   32.81    1.52
   6   0  -8   31.80    1.40
   6   0  -8   33.59    1.56
   6   0  -8   31.11    1.52
   6   0  -8   35.62    1.56
   6   0  -8   31.25    1.54
   6   0  -7   72.05    2.08
  -6   0   7   70.54    2.13
   6   0  -7   70.68    2.14
   6   0  -7   69.81    2.02
   6   0  -7   72.51    2.17
  -6   0   7   72.45    2.13
   6   0  -7   75.66    2.23
   6   0  -7   75.87    2.13
   6   0  -7   73.91    2.14
   6   0  -7   70.23    2.18
  -6   0   6   53.72    1.78
   6   0  -6   58.55    1.92
   6   0  -6   54.57    1.80
   6   0  -6   57.33    1.79
   6   0  -6   57.33    1.89
  -6   0   6   55.13    1.79
   6   0  -6   59.49    1.96
   6   0  -6   56.16    1.81
   6   0  -6   54.21    1.88
  -6   0   5   12.76    0.83
   6   0  -5   11.78    0.93
   6   0  -5   13.05    0.97
   6   0  -5   12.26    0.92
   6   0  -5   12.31    0.86
  -6   0   5   12.24    0.84
   6   0  -5   12.93    0.98
   6   0  -5   11.58    0.88
  -6   0   4  148.81    2.69
  -6   0   4  148.54    2.53
   6   0  -4  154.05    2.75
   6   0  -4  154.69    2.80
  -6   0   4  153.03    2.63
   6   0  -4  156.28    2.88
   6   0  -4  150.61    2.65
   6   0  -4  148.47    2.48
   6   0  -3   73.84    1.90
  -6   0   3   82.47    1.90
  -6   0   3   79.43    1.79
   6   0  -3   80.25    2.00
   6   0  -3   82.13    1.96
  -6   0   3   82.27    1.86
   6   0  -3   80.30    1.99
   6   0  -3   80.16    1.84
   6   0  -2  181.86    2.89
  -6   0   2  183.12    2.65
   6   0  -2  180.78    2.86
  -6   0   2  180.80    2.61
   6   0  -2  184.95    2.83
   6   0  -2  183.20    2.89
   6   0  -2  187.98    2.81
   6   0  -2  183.20    2.91
   6   0  -1  246.19    2.78
  -6   0   1  243.57    3.08
  -6   0   1  245.84    2.98
   6   0  -1  253.83    3.28
   6   0  -1  250.25    3.21
   6   0   0  348.34    3.56
  -6   0   0  352.75    3.63
  -6   0   0  353.35    3.77
   6   0   0  348.19    3.70
   6   0   0  351.49    3.91
   6   0   1   14.13    0.82
   6   0   1   13.03    0.76
  -6   0  -1   13.42    0.80
  -6   0  -1   13.92    0.74
   6   0   1   13.92    0.85
   6   0   1   13.89    0.83
   6   0   2  171.04    2.74
  -6   0  -2  167.73    2.81
   6   0   2  167.35    2.70
  -6   0  -2  160.31    2.43
   6   0   2  169.43    2.83
   6   0   2  163.01    2.73
  -6   0  -3    0.03    0.33
   6   0   3   -0.14    0.42
   6   0   3    0.18    0.43
  -6   0  -3   -0.23    0.49
  -6   0  -3    0.33    0.32
   6   0   3    0.03    0.33
   6   0   3    0.48    0.42
   6   0   3   -0.16    0.39
   6   0   4  216.39    3.40
  -6   0  -4  211.05    3.45
   6   0   4  223.76    3.36
   6   0   4  225.28    3.21
   6   0   4  212.02    3.08
  -6   0  -4  215.48    3.35
  -6   0  -4  212.66    3.44
   6   0   4  212.81    3.29
   6   0   4  215.05    3.34
   6   0   4  222.03    3.45
   6   0   5  490.21    4.99
   6   0   5  512.59    4.98
   6   0   5  496.04    5.37
   6   0   5  497.23    5.23
  -6   0  -5  501.82    5.34
  -6   0  -5  499.35    5.52
   6   0   5  497.52    5.36
   6   0   6  736.45    6.82
   6   0   6  758.97    6.66
  -6   0  -6  755.38    6.73
   6   0   6  742.90    6.45
   6   0   6  745.26    6.67
   6   0   7  148.96    3.09
   6   0   7  139.93    2.97
   6   0   7  145.98    2.86
  -6   0  -7  153.02    2.92
   6   0   7  141.53    2.80
   6   0   7  143.29    2.91
  -6   0  -8    4.57    0.76
   6   0   8    5.53    0.67
   6   0   8    4.18    0.71
  -6   0  -8    4.67    0.67
   6   0   8    4.32    0.71
  -6   0  -8    5.05    0.80
   6   0   8    4.72    0.74
   6   0   8    4.81    0.75
   6   0   9    0.04    0.47
  -6   0  -9   -0.06    0.53
   6   0   9    0.28    0.48
   6   0   9   -0.03    0.38
   6   0   9    0.10    0.50
  -6   0  -9   -0.11    0.56
  -6   0 -10   16.33    0.95
   6   0  10   15.49    0.92
   6   0  10   16.22    0.94
  -6   0 -10   15.74    0.96
   6   0  10   14.72    0.88
   6   0  10   15.80    0.89
  -6   0 -11    4.59    0.48
   6   0  11    5.39    0.49
   6   0  11    4.80    0.48
  -6   0 -11    5.10    0.52
   6   0  11    5.20    0.48
   6   0  11    4.90    0.47
   6  -1 -12   23.09    0.80
   6  -1 -12   25.29    0.88
   6   1 -12   23.51    0.87
   6  -1 -12   22.21    0.82
   6   1 -12   25.09    0.87
   6   1 -12   23.82    0.85
   6   1 -12   22.25    0.76
   6  -1 -11   16.54    0.92
   6  -1 -11   16.56    0.93
   6  -1 -11   16.90    0.92
   6  -1 -11   17.08    0.92
   6   1 -11   17.98    1.01
   6   1 -11   14.81    0.84
   6   1 -11   16.02    0.91
   6   1 -11   19.04    0.97
   6   1 -11   16.73    0.91
   6   1 -11   15.75    0.73
   6  -1 -10    1.46    0.48
   6  -1 -10    1.20    0.57
   6   1 -10    1.10    0.45
   6   1 -10    1.25    0.53
   6   1 -10    1.80    0.69
   6  -1 -10    1.89    0.60
   6   1 -10    1.83    0.63
   6  -1 -10    1.75    0.58
   6  -1 -10    1.63    0.59
   6   1 -10    1.72    0.58
   6   1 -10    1.15    0.41
   6  -1 -10    1.24    0.58
   6   1 -10    1.35    0.55
   6  -1  -9    7.42    0.90
   6   1  -9    6.44    0.74
   6  -1  -9    7.02    0.83
   6   1  -9    7.29    0.79
   6  -1  -9    6.80    0.84
   6   1  -9    6.98    0.88
   6  -1  -9    6.69    0.82
   6   1  -9    7.42    0.84
   6  -1  -9    6.85    0.83
   6   1  -9    6.41    0.81
   6   1  -9    7.46    0.74
   6  -1  -8   99.44    2.55
   6   1  -8   97.00    2.39
   6   1  -8   95.46    2.42
   6  -1  -8   97.37    2.46
   6  -1  -8   95.16    2.50
   6   1  -8   99.74    2.57
   6  -1  -8   97.81    2.43
   6  -1  -8  101.14    2.63
   6   1  -8   95.30    2.51
   6   1  -8   94.67    2.23
  -6  -1   7  412.85    5.20
   6  -1  -7  449.74    5.34
   6   1  -7  440.16    4.94
  -6   1   7  423.60    5.19
  -6  -1   7  432.22    5.23
   6   1  -7  432.42    5.20
   6  -1  -7  436.48    5.12
   6   1  -7  428.89    5.18
  -6  -1   7  413.33    4.97
  -6   1   7  431.53    5.27
   6  -1  -7  443.08    5.34
   6   1  -7  438.97    5.40
   6  -1  -7  428.77    5.01
   6   1  -7  421.11    5.13
   6  -1  -7  448.47    5.49
   6   1  -7  424.29    5.33
   6   1  -7  433.53    4.79
   6  -1  -7  423.43    5.22
  -6  -1   6   58.42    1.88
   6  -1  -6   58.29    1.86
   6   1  -6   59.99    1.86
  -6   1   6   58.14    1.88
  -6  -1   6   62.04    1.92
   6   1  -6   60.43    1.92
   6  -1  -6   57.34    1.85
   6   1  -6   58.37    1.86
   6   1  -6   59.17    2.01
  -6  -1   6   55.15    1.72
  -6   1   6   58.40    1.91
   6  -1  -6   57.06    1.91
   6   1  -6   56.39    1.94
   6  -1  -6   57.14    1.80
   6   1  -6   58.56    1.90
   6  -1  -6   56.99    1.93
   6   1  -6   56.69    1.91
   6  -1  -6   56.68    1.92
   6   1  -6   58.20    1.72
   6   1  -6   59.41    1.84
  -6  -1   5  103.14    2.36
   6   1  -5  106.01    2.38
   6  -1  -5  109.03    2.34
  -6   1   5  102.76    2.36
  -6  -1   5  100.39    2.33
   6  -1  -5  106.17    2.51
   6   1  -5  104.72    2.43
   6  -1  -5  103.40    2.33
   6   1  -5  102.10    2.41
   6   1  -5  107.22    2.53
  -6  -1   5   99.77    2.18
  -6   1   5  106.45    2.41
   6  -1  -5  105.71    2.47
   6   1  -5  102.89    2.47
   6  -1  -5  104.48    2.28
   6   1  -5  100.00    2.36
   6  -1  -5   99.68    2.22
   6  -1  -5  102.65    2.41
   6  -1  -5  107.18    2.54
   6   1  -5  105.99    2.51
   6   1  -5  107.00    2.35
  -6  -1   4   14.23    0.89
   6   1  -4   14.80    0.96
  -6  -1   4   14.55    0.92
   6  -1  -4   14.64    1.00
   6   1  -4   14.66    0.97
  -6   1   4   15.48    0.94
   6  -1  -4   15.28    0.92
   6   1  -4   15.50    1.04
  -6  -1   4   14.89    0.85
   6  -1  -4   14.87    0.96
   6  -1  -4   14.29    0.88
   6   1  -4   14.50    0.94
   6  -1  -4   13.69    0.92
   6  -1  -4   15.41    1.03
   6   1  -4   14.77    0.99
   6   1  -4   14.05    0.93
   6   1  -4   13.92    0.98
   6   1  -3   46.38    1.52
  -6  -1   3   45.00    1.42
   6   1  -3   45.69    1.47
  -6  -1   3   44.99    1.47
   6   1  -3   46.60    1.44
  -6   1   3   44.11    1.23
   6  -1  -3   45.50    1.53
   6   1  -3   44.44    1.51
   6   1  -3   48.40    1.58
   6  -1  -3   49.22    1.57
   6   1  -3   63.04    1.76
   6   1  -3   44.20    1.47
  -6  -1   3   46.94    1.35
   6   1  -3   45.11    1.47
   6  -1  -3   41.74    1.44
   6   1  -3   50.04    1.35
   6  -1  -3   46.32    1.57
   6   1  -3   46.74    1.55
  -6   1   3   62.48    1.68
   6  -1  -3   46.75    1.51
   6   1  -2   82.04    1.94
  -6  -1   2   81.77    1.82
   6  -1  -2   83.87    1.94
  -6  -1   2   83.11    1.93
  -6   1   2   79.81    1.63
   6  -1  -2   83.20    1.95
   6   1  -2   82.09    1.96
   6   1  -2   79.72    1.85
   6   1  -2   80.50    1.92
   6   1  -2   82.42    1.91
  -6   1   2   80.09    1.85
  -6  -1   2   82.58    1.64
   6  -1  -2   83.42    2.00
   6   1  -2   82.08    1.98
   6   1  -2   84.42    1.79
   6  -1  -2   82.23    1.93
   6  -1  -2   81.17    1.71
   6  -1  -2   82.85    1.98
   6   1  -2   81.54    1.96
   6   1  -1  593.04    5.28
  -6  -1   1  629.36    5.38
  -6   1   1  625.42    4.84
   6  -1  -1  636.12    5.32
  -6   1   1  625.92    5.22
  -6  -1   1  632.50    4.58
   6   1  -1  622.73    5.46
   6  -1  -1  629.37    5.58
   6   1  -1  608.02    5.06
   6  -1  -1  620.52    5.03
   6   1  -1  612.68    5.40
   6   1   0  121.27    2.28
  -6  -1   0  124.66    2.35
  -6   1   0  139.05    2.26
   6   1   0  124.29    2.34
   6   1   0  123.70    2.38
  -6   1   0  143.09    2.45
   6  -1   0  126.08    2.37
  -6  -1   0  128.02    1.94
   6  -1   0  125.24    2.20
   6  -1   0  133.81    2.55
   6   1   0  122.37    2.27
   6   1   0  116.78    2.18
   6  -1   0  123.15    2.29
   6   1   0  122.60    2.28
   6   1   0  125.84    2.37
   6   1   1   53.70    1.56
   6  -1   1   54.76    1.59
   6  -1   1   58.03    1.45
  -6  -1  -1   54.89    1.59
  -6   1  -1   54.20    1.49
   6   1   1   53.36    1.56
   6   1   1   53.33    1.30
   6   1   1   55.95    1.56
  -6   1  -1   56.79    1.57
  -6   1  -1   53.51    1.57
   6   1   1   57.07    1.54
   6   1   1   52.91    1.53
   6  -1   1   56.98    1.58
   6   1   1   55.08    1.61
   6   1   1   53.81    1.55
   6  -1   1   53.94    1.61
   6  -1   2  131.28    2.58
   6   1   2  128.35    2.37
  -6   1  -2  123.35    2.33
   6   1   2  127.45    2.42
   6   1   2  127.47    2.44
   6   1   2  126.46    2.18
   6   1   2  126.06    2.32
  -6   1  -2  120.66    2.40
  -6   1  -2  122.17    2.31
   6  -1   2  132.55    2.12
   6  -1   2  129.76    2.44
   6  -1   2  124.26    2.49
   6   1   2  125.89    2.39
   6   1   2  126.81    2.33
   6  -1   2  133.83    2.45
   6   1   2  130.76    2.51
   6   1   3  357.17    4.01
   6  -1   3  355.72    4.51
  -6   1  -3  328.14    4.08
   6   1   3  347.36    4.11
   6   1   3  335.10    3.81
   6  -1   3  348.71    4.14
   6   1   3  344.14    3.97
  -6   1  -3  323.81    4.03
   6   1   3  344.01    4.16
  -6   1  -3  342.07    3.72
  -6   1  -3  334.50    4.11
   6   1   3  333.42    3.82
   6  -1   3  343.83    4.14
   6   1   3  340.08    4.03
   6  -1   3  355.69    4.15
   6   1   3  343.40    4.23
   6   1   4   81.08    2.09
   6   1   4   82.61    1.94
   6  -1   4   77.91    2.19
  -6  -1  -4   78.16    2.16
   6   1   4   79.27    2.02
  -6   1  -4   85.48    2.21
   6   1   4   74.79    2.00
   6   1   4   74.89    1.89
   6   1   4   78.56    1.96
  -6  -1  -4   81.35    2.03
  -6   1  -4   79.37    2.11
   6  -1   4   80.45    1.99
  -6   1  -4   76.16    1.86
  -6  -1  -4   78.06    2.15
  -6   1  -4   82.10    2.13
   6   1   4   72.63    1.90
   6  -1   4   78.29    2.00
   6  -1   4   76.99    2.07
   6   1   4   73.13    1.96
   6  -1   4   79.45    2.03
   6  -1   5  262.65    4.09
  -6  -1  -5  258.56    4.15
   6   1   5  253.11    3.65
   6  -1   5  256.46    3.90
   6   1   5  256.44    3.90
  -6   1  -5  260.64    3.91
   6   1   5  249.08    3.65
   6   1   5  264.07    3.86
   6   1   5  247.94    3.65
  -6  -1  -5  262.06    3.74
  -6  -1  -5  264.03    4.00
  -6   1  -5  260.82    3.99
   6   1   5  250.66    3.76
   6  -1   5  262.06    3.68
   6   1   5  246.27    3.59
   6  -1   5  267.77    3.76
   6  -1   5  256.47    3.88
   6   1   5  247.62    3.74
  -6   1  -6  373.96    4.58
   6  -1   6  384.46    5.05
  -6  -1  -6  387.58    5.27
  -6  -1  -6  385.88    4.58
   6   1   6  380.86    4.83
   6  -1   6  387.16    4.46
   6   1   6  375.68    4.77
   6  -1   6  383.58    4.95
  -6   1  -6  382.08    4.90
   6   1   6  380.24    4.76
   6   1   6  377.58    4.74
   6   1   6  380.02    4.66
  -6  -1  -6  394.70    4.99
  -6   1  -6  371.73    4.98
   6  -1   6  374.46    4.80
   6   1   6  383.68    4.66
   6  -1   6  385.70    4.83
   6   1   6  377.91    4.74
  -6   1  -7   15.55    1.03
   6   1   7   16.10    1.11
   6  -1   7   17.18    0.98
   6   1   7   16.87    1.08
   6  -1   7   15.69    1.14
   6   1   7   15.52    1.05
   6  -1   7   15.88    1.10
  -6   1  -7   15.99    1.11
   6   1   7   15.83    1.07
  -6  -1  -7   17.23    1.17
  -6   1  -7   16.48    1.21
   6   1   7   15.94    1.10
   6  -1   7   16.29    1.11
   6   1   7   15.64    1.11
  -6  -1  -8   17.31    1.19
  -6   1  -8   17.90    1.07
   6  -1   8   17.27    1.11
   6   1   8   18.63    1.14
   6  -1   8   17.37    1.14
   6   1   8   17.55    1.07
   6   1   8   18.34    1.11
  -6   1  -8   18.40    1.11
   6   1   8   18.55    1.12
  -6  -1  -8   18.17    1.19
  -6   1  -8   18.88    1.24
   6   1   8   17.77    1.12
   6  -1   8   17.70    1.11
   6   1   8   18.17    1.14
   6  -1   9    8.02    0.77
  -6  -1  -9    8.80    0.91
  -6   1  -9    7.62    0.72
   6   1   9    9.00    0.85
   6  -1   9    7.99    0.79
   6   1   9    7.88    0.75
   6   1   9    8.14    0.73
  -6   1  -9    8.12    0.73
  -6  -1  -9    8.58    0.82
   6  -1   9    8.99    0.81
   6   1   9    8.69    0.80
  -6  -1  -9    7.45    0.66
   6  -1   9    9.10    0.79
   6  -1  10   20.82    0.97
  -6  -1 -10   22.73    1.11
  -6   1 -10   21.69    0.92
   6   1  10   22.95    1.02
   6  -1  10   21.86    1.04
   6   1  10   21.68    1.02
  -6  -1 -10   22.67    1.04
   6  -1  10   23.31    1.02
   6   1  10   23.58    1.01
  -6  -1 -10   20.83    0.82
   6  -1  10   23.12    0.99
  -6  -1 -11   27.32    0.94
  -6   1 -11   22.89    0.73
   6  -1  11   25.45    0.82
   6  -1  11   25.35    0.89
   6   1  11   25.80    0.86
   6   1  11   25.09    0.89
  -6  -1 -11   21.11    0.72
  -6   1 -11   25.42    0.94
   6  -1  11   27.46    0.86
   6  -1  11   24.59    0.74
   6   1  11   26.11    0.90
   6  -2 -12   11.87    0.57
   6  -2 -12   10.47    0.44
   6   2 -12   11.81    0.52
   6   2 -12   10.89    0.55
   6  -2 -12   12.24    0.56
   6   2 -12   10.96    0.46
   6  -2 -12   11.64    0.56
   6   2 -11   45.17    1.25
   6  -2 -11   44.73    1.34
   6  -2 -11   45.41    1.25
   6   2 -11   45.52    1.31
   6  -2 -11   44.30    1.23
   6  -2 -11   45.86    1.30
   6   2 -11   45.92    1.30
   6  -2 -11   47.47    1.37
   6   2 -11   40.26    1.03
   6   2 -11   43.46    1.16
   6   2 -10   89.56    2.05
   6  -2 -10   84.87    2.13
   6  -2 -10   91.55    2.01
   6   2 -10   91.87    2.13
   6   2 -10   95.57    2.14
   6  -2 -10   90.23    2.05
   6  -2 -10   91.46    2.07
   6   2 -10   93.71    2.13
   6  -2 -10   91.15    2.17
   6   2 -10   85.50    1.87
   6   2 -10   89.22    1.93
   6  -2  -9   27.89    1.26
   6   2  -9   26.21    1.32
   6   2  -9   29.86    1.43
   6  -2  -9   28.75    1.33
   6   2  -9   27.64    1.31
   6  -2  -9   27.28    1.29
   6   2  -9   29.63    1.39
   6  -2  -9   29.33    1.42
   6   2  -9   26.37    1.22
   6   2  -9   27.72    1.25
   6  -2  -8   74.97    2.27
   6   2  -8   76.06    1.96
   6  -2  -8   74.35    2.04
   6   2  -8   76.82    2.22
   6   2  -8   79.83    2.31
   6  -2  -8   76.24    2.16
   6   2  -8   74.90    2.15
   6  -2  -8   74.99    2.11
   6   2  -8   77.54    2.19
   6  -2  -8   73.32    2.22
   6   2  -8   75.53    2.09
   6   2  -8   77.47    2.09
  -6   2   7  103.53    2.38
   6  -2  -7  104.10    2.66
   6   2  -7  103.61    2.39
   6  -2  -7  102.47    2.41
   6   2  -7  105.81    2.60
   6   2  -7  109.10    2.71
   6  -2  -7  103.61    2.50
   6   2  -7  101.88    2.54
   6   2  -7  104.76    2.57
   6  -2  -7   99.53    2.38
   6  -2  -7  100.80    2.63
   6   2  -7  101.04    2.48
   6   2  -7  102.34    2.39
   6  -2  -6  568.57    5.75
  -6  -2   6  563.02    5.98
   6   2  -6  590.97    5.69
  -6  -2   6  591.88    6.31
  -6   2   6  580.35    5.79
   6  -2  -6  565.45    6.03
   6   2  -6  562.12    5.75
   6  -2  -6  584.95    5.68
   6   2  -6  600.20    6.17
   6   2  -6  586.28    6.25
   6  -2  -6  588.22    5.99
   6   2  -6  588.26    6.09
   6  -2  -6  576.01    5.66
   6  -2  -6  570.95    6.33
  -6   2   6  602.75    6.30
   6  -2  -6  585.74    6.16
   6   2  -6  578.63    5.93
   6   2  -6  563.89    5.69
  -6  -2   5 1119.14    8.33
   6  -2  -5 1131.70    7.96
   6   2  -5 1131.36    8.15
   6   2  -5 1149.18    8.21
  -6  -2   5 1159.61    8.85
  -6   2   5 1088.91    8.33
   6  -2  -5 1137.49    8.62
   6   2  -5 1148.01    8.37
   6   2  -5 1158.82    8.76
   6   2  -5 1159.19    8.68
   6  -2  -5 1124.30    8.31
  -6   2   5 1124.67    8.54
   6   2  -5 1145.49    8.59
   6  -2  -5 1150.47    7.96
   6  -2  -5 1118.10    8.56
   6   2  -5 1105.10    8.38
   6  -2  -5 1114.96    8.62
   6   2  -5 1122.60    8.36
   6   2  -5 1117.15    8.10
  -6  -2   4  255.84    3.56
   6   2  -4  263.28    3.69
  -6  -2   4  262.52    3.92
  -6   2   4  264.22    3.79
  -6   2   4  254.27    3.34
   6  -2  -4  254.37    3.79
   6   2  -4  287.24    3.88
   6   2  -4  230.38    3.64
   6   2  -4  262.93    3.67
   6  -2  -4  265.68    3.95
   6  -2  -4  256.55    3.89
   6   2  -4  251.26    3.75
   6   2  -4  261.74    3.79
   6  -2  -4  254.71    3.76
   6   2  -4  261.23    3.71
   6   2  -4  259.63    3.58
   6  -2  -4  266.04    3.68
  -6  -2   3  401.13    4.30
   6   2  -3  405.85    4.56
   6   2  -3  404.79    4.51
  -6  -2   3  426.75    4.89
  -6   2   3  415.59    4.78
  -6   2   3  407.42    4.27
   6  -2  -3  403.63    4.54
   6   2  -3  406.35    4.59
   6   2  -3  404.93    4.67
   6  -2  -3  415.74    4.46
   6  -2  -3  410.34    4.32
   6  -2  -3  406.67    4.83
   6   2  -3  395.98    4.55
   6  -2  -3  402.65    4.70
   6  -2  -3  411.31    4.60
   6   2  -3  413.70    4.57
   6   2  -3  417.72    4.68
   6   2  -3  418.91    4.39
   6   2  -2   62.41    1.78
  -6  -2   2   67.62    1.64
  -6  -2   2   57.90    1.73
  -6   2   2   63.28    1.69
   6  -2  -2   68.10    1.80
   6   2  -2   64.69    1.81
   6   2  -2   63.72    1.80
  -6   2   2   63.77    1.77
   6   2  -2   66.22    1.81
   6  -2  -2   63.88    1.90
   6   2  -2   61.37    1.73
   6  -2  -2   64.06    1.70
   6  -2  -2   64.82    1.80
   6  -2  -2   65.19    1.76
   6   2  -2   64.93    1.76
   6   2  -2   65.04    1.68
   6  -2  -1  660.66    5.58
   6   2  -1  673.62    5.91
  -6   2   1  703.83    5.70
   6   2  -1  681.75    5.87
   6   2  -1  659.87    5.86
   6   2  -1  708.69    5.96
  -6   2   1  696.34    6.01
  -6   2   1  693.06    5.62
   6  -2  -1  682.30    6.15
   6   2  -1  670.36    5.76
   6   2  -1  690.56    5.89
   6  -2  -1  728.26    5.96
   6  -2  -1  711.98    5.81
   6   2  -1  694.25    5.83
   6   2  -1  679.29    5.61
  -6  -2   0   65.86    1.80
  -6   2   0   69.31    1.78
   6   2   0   65.23    1.78
   6  -2   0   68.59    1.67
   6   2   0   64.24    1.78
   6   2   0   66.76    1.79
  -6   2   0   70.31    1.88
  -6   2   0   68.94    1.80
  -6   2   0   66.76    1.60
  -6   2   0   66.35    1.67
   6   2   0   66.23    1.73
   6  -2   0   68.65    1.87
   6  -2   0   71.99    1.75
   6   2   0   65.49    1.73
   6   2   0   65.22    1.74
   6   2   1    5.08    0.63
  -6  -2  -1    4.93    0.61
  -6   2  -1    5.23    0.71
   6  -2   1    4.88    0.65
  -6   2  -1    4.94    0.53
   6   2   1    4.92    0.60
  -6   2  -1    4.68    0.59
  -6   2  -1    5.11    0.66
  -6   2  -1    6.09    0.62
   6   2   1    5.04    0.60
   6   2   1    5.07    0.59
   6  -2   1    5.84    0.80
   6  -2   1    5.24    0.53
   6  -2   1    4.58    0.71
   6   2   1    5.19    0.61
   6   2   2   29.06    1.26
   6  -2   2   31.34    1.27
  -6  -2  -2   31.04    1.35
  -6   2  -2   31.22    1.20
   6   2   2   30.91    1.20
   6   2   2   29.67    1.24
   6   2   2   32.38    1.27
  -6   2  -2   28.72    1.28
  -6   2  -2   30.52    1.28
  -6   2  -2   31.08    1.17
   6   2   2   31.50    1.21
   6  -2   2   31.77    1.39
   6  -2   2   31.23    1.42
   6   2   2   30.97    1.28
   6  -2   3   10.29    0.98
   6   2   3    8.27    0.77
  -6  -2  -3    9.75    0.83
   6   2   3    9.91    0.86
   6   2   3    8.67    0.79
   6  -2   3    9.77    0.80
   6   2   3    9.72    0.79
   6  -2   3    9.62    0.77
  -6   2  -3    9.07    0.88
  -6   2  -3    9.23    0.83
  -6   2  -3    8.86    0.81
  -6   2  -3    8.21    0.76
   6  -2   3    9.07    0.85
   6   2   3    9.22    0.74
   6   2   3    9.07    0.82
   6   2   3    8.85    0.74
   6   2   4   36.80    1.42
   6  -2   4   36.78    1.72
  -6  -2  -4   36.04    1.50
   6   2   4   35.99    1.46
   6   2   4   35.60    1.41
   6  -2   4   34.55    1.42
   6   2   4   34.98    1.46
   6   2   4   38.58    1.41
   6   2   4   38.90    1.49
  -6  -2  -4   39.09    1.46
  -6   2  -4   34.93    1.39
  -6   2  -4   35.30    1.46
   6   2   4   35.82    1.34
   6  -2   4   36.85    1.46
   6  -2   4   37.31    1.38
   6   2   4   35.95    1.42
   6   2   4   38.63    1.53
   6   2   5  176.10    3.03
   6  -2   5  165.24    3.47
  -6  -2  -5  181.67    3.48
   6   2   5  178.55    3.17
   6  -2   5  171.41    3.16
   6   2   5  177.96    3.22
  -6  -2  -5  186.20    3.05
  -6   2  -5  173.82    3.33
  -6   2  -5  163.01    2.91
  -6  -2  -5  177.70    3.22
   6   2   5  169.53    3.10
  -6   2  -5  174.82    3.23
   6   2   5  171.57    3.00
   6   2   5  166.44    2.94
   6  -2   5  177.02    3.22
   6   2   5  171.46    3.09
   6   2   6  272.35    4.01
   6   2   6  281.77    3.76
  -6   2  -6  287.00    4.24
   6  -2   6  278.79    4.00
   6  -2   6  266.96    4.08
   6   2   6  268.98    3.84
   6   2   6  277.03    4.00
  -6   2  -6  274.31    4.21
  -6  -2  -6  277.82    4.08
   6   2   6  268.75    3.85
   6  -2   6  277.63    4.05
   6   2   6  266.36    3.92
   6  -2   7   64.76    1.92
   6   2   7   63.71    1.97
   6   2   7   64.14    2.03
   6  -2   7   67.73    2.02
   6   2   7   65.30    1.92
  -6   2  -7   71.63    2.17
   6   2   7   67.02    2.04
  -6  -2  -7   66.53    1.98
  -6   2  -7   69.67    2.14
   6   2   7   66.29    1.92
   6  -2   7   68.73    1.96
   6   2   7   63.56    1.91
   6   2   8   21.72    1.08
   6  -2   8   23.21    1.14
   6   2   8   22.23    1.18
   6  -2   8   23.18    1.20
   6   2   8   22.96    1.24
  -6   2  -8   23.88    1.26
   6   2   8   22.74    1.23
   6   2   8   22.39    1.12
  -6  -2  -8   22.09    1.19
  -6   2  -8   21.96    1.27
   6  -2   8   23.25    1.25
   6   2   8   21.32    1.14
   6  -2   8   23.75    1.16
   6   2   8   22.06    1.16
   6  -2   9    1.61    0.46
   6   2   9    1.38    0.53
   6   2   9    1.61    0.43
   6  -2   9    1.63    0.44
   6   2   9    1.38    0.51
   6  -2   9    1.14    0.45
  -6   2  -9    1.27    0.49
  -6  -2  -9    1.32    0.48
  -6   2  -9    1.40    0.57
   6  -2   9    1.59    0.55
   6   2   9    1.61    0.51
   6   2   9    1.29    0.48
   6  -2  10    3.77    0.41
   6   2  10    4.71    0.53
   6  -2  10    4.48    0.51
   6   2  10    3.80    0.45
  -6   2 -10    4.12    0.46
  -6  -2 -10    3.69    0.44
  -6   2 -10    4.46    0.59
   6  -2  10    4.83    0.53
   6   2  10    4.15    0.51
  -6  -2 -10    4.13    0.49
   6  -2  10    4.42    0.44
   6   2  10    4.68    0.56
   6   2  11   12.06    0.54
  -6  -2 -11   11.96    0.59
   6   2  11   12.32    0.54
  -6   2 -11   12.64    0.63
   6  -2  11   12.21    0.48
   6   2  11   13.48    0.57
   6   2  11   12.83    0.57
   6  -3 -11   21.38    0.85
   6   3 -11   21.31    0.70
   6   3 -11   20.78    0.84
   6  -3 -11   21.25    0.78
   6   3 -11   22.44    0.72
   6  -3 -11   20.41    0.71
   6   3 -11   22.15    0.76
   6  -3 -10   39.84    1.36
   6   3 -10   38.91    1.23
   6   3 -10   37.42    1.32
   6  -3 -10   35.37    1.18
   6   3 -10   38.93    1.24
   6  -3 -10   38.18    1.25
   6   3 -10   35.65    1.18
   6   3 -10   35.82    1.07
   6  -3  -9   56.05    1.81
   6   3  -9   56.56    1.67
  -6   3   9   51.42    1.33
   6   3  -9   54.59    1.52
   6  -3  -9   54.20    1.61
   6   3  -9   59.45    1.75
   6  -3  -9   56.20    1.71
   6   3  -9   59.70    1.69
   6   3  -8    6.49    0.69
  -6   3   8    6.16    0.76
   6  -3  -8    5.71    0.82
   6   3  -8    6.99    0.81
  -6   3   8    7.00    0.65
   6  -3  -8    6.55    0.72
   6   3  -8    7.50    0.82
   6  -3  -8    6.27    0.74
   6   3  -8    7.11    0.78
  -6   3   7    1.51    0.65
   6  -3  -7    0.97    0.59
   6   3  -7    2.23    0.69
   6   3  -7    1.33    0.52
  -6   3   7    1.79    0.50
   6  -3  -7    1.51    0.55
   6   3  -7    1.45    0.60
   6   3  -7    1.22    0.55
   6  -3  -7    1.34    0.52
   6   3  -6   25.81    1.26
  -6   3   6   25.23    1.36
  -6   3   6   23.50    1.12
   6  -3  -6   27.22    1.38
   6   3  -6   27.38    1.39
  -6   3   6   26.05    1.19
   6  -3  -6   25.11    1.19
   6   3  -6   23.94    1.34
   6  -3  -6   26.35    1.29
   6   3  -6   26.16    1.31
   6   3  -5   82.19    2.10
  -6   3   5   76.23    2.25
  -6   3   5   75.31    1.96
   6  -3  -5   81.72    2.25
   6   3  -5   82.54    2.07
   6   3  -5   80.37    2.12
   6   3  -5   83.71    2.31
   6   3  -5   77.06    2.27
  -6   3   5   82.07    2.27
   6  -3  -5   79.74    2.40
  -6   3   5   79.22    1.99
   6  -3  -5   78.08    2.31
   6   3  -5   80.72    2.25
   6  -3  -5   79.40    2.12
   6   3  -5   81.73    2.18
   6   3  -4  186.29    3.22
  -6  -3   4  191.52    3.56
  -6   3   4  189.72    3.37
  -6   3   4  178.30    3.01
   6  -3  -4  194.60    3.27
   6   3  -4  189.23    3.14
  -6   3   4  186.21    3.33
   6   3  -4  186.71    3.33
   6   3  -4  181.55    3.37
   6   3  -4  196.93    3.24
  -6   3   4  187.79    2.99
   6  -3  -4  189.78    3.50
   6  -3  -4  199.58    3.39
   6  -3  -4  185.21    3.50
   6   3  -4  188.01    3.23
   6   3  -3  476.96    5.23
  -6  -3   3  486.66    5.56
  -6   3   3  479.30    5.33
  -6   3   3  486.48    5.05
   6  -3  -3  487.02    5.03
   6   3  -3  487.97    5.10
   6   3  -3  493.65    5.33
   6   3  -3  489.37    5.45
  -6   3   3  490.69    5.40
  -6   3   3  489.55    4.87
   6  -3  -3  479.59    5.40
   6  -3  -3  483.57    5.35
   6  -3  -3  467.95    5.52
   6   3  -3  455.19    5.20
   6   3  -3  485.73    5.10
   6   3  -3  498.30    5.10
   6   3  -2  185.99    3.02
   6   3  -2  185.29    3.20
   6   3  -2  186.70    3.18
  -6  -3   2  192.86    3.35
  -6   3   2  197.91    3.38
  -6   3   2  188.93    3.08
   6   3  -2  182.47    3.08
   6   3  -2  183.29    3.18
  -6   3   2  184.70    3.28
  -6   3   2  181.66    2.88
  -6   3   2  177.78    3.04
   6  -3  -2  202.17    3.38
   6  -3  -2  178.84    3.38
   6  -3  -2  185.72    3.20
   6   3  -2  178.61    3.15
   6   3  -2  184.37    2.93
   6   3  -2  185.74    3.07
   6   3  -1  124.46    2.62
  -6  -3   1  133.91    2.74
  -6   3   1  135.15    2.72
  -6   3   1  127.74    2.55
   6   3  -1  124.45    2.54
   6   3  -1  124.08    2.59
   6   3  -1  126.58    2.59
  -6   3   1  129.52    2.76
  -6   3   1  123.59    2.34
  -6   3   1  122.72    2.48
   6  -3  -1  124.00    2.81
   6   3  -1  120.64    2.54
   6  -3  -1  135.13    2.76
   6  -3  -1  121.96    2.44
   6   3  -1  124.22    2.39
   6   3   0   16.64    1.00
   6   3   0   18.62    1.10
  -6  -3   0   16.01    0.99
  -6   3   0   16.86    1.03
   6   3   0   15.34    1.00
   6   3   0   15.53    0.91
  -6   3   0   15.55    1.02
  -6   3   0   14.22    0.93
  -6   3   0   15.99    0.94
  -6   3   0   16.30    1.00
   6  -3   0   14.88    1.12
   6   3   0   14.70    0.95
   6  -3   0   15.66    1.10
   6   3   0   15.39    0.91
  -6  -3  -1  129.70    2.65
   6  -3   1  134.58    2.57
   6   3   1  126.59    2.62
   6   3   1  133.00    2.62
   6   3   1  126.64    2.48
  -6   3  -1  120.00    2.57
  -6   3  -1  127.17    2.42
  -6   3  -1  124.46    2.51
   6  -3   1  123.19    2.74
   6   3   1  124.14    2.53
   6  -3   1  131.69    2.87
   6   3   1  127.24    2.49
   6   3   2  153.96    2.95
  -6  -3  -2  159.01    3.01
   6   3   2  157.61    2.95
   6   3   2  157.99    2.91
   6   3   2  163.96    2.94
  -6   3  -2  152.86    3.00
  -6   3  -2  154.30    2.69
  -6   3  -2  155.51    2.82
   6   3   2  167.76    2.91
   6  -3   2  159.86    3.12
   6  -3   2  162.29    3.31
   6   3   2  158.28    2.86
   6   3   3   46.78    1.67
  -6  -3  -3   49.16    1.75
   6  -3   3   48.34    1.58
  -6   3  -3   47.09    1.57
   6   3   3   46.76    1.71
   6   3   3   45.56    1.67
   6   3   3   47.67    1.67
  -6   3  -3   47.84    1.81
  -6   3  -3   43.02    1.74
   6  -3   3   45.99    1.71
  -6   3  -3   48.77    1.64
   6   3   3   46.46    1.62
   6  -3   3   47.63    1.95
   6   3   4  128.10    2.75
  -6  -3  -4  131.74    2.80
   6   3   4  131.74    2.80
   6   3   4  133.42    2.77
  -6   3  -4  128.79    2.94
  -6   3  -4  128.98    2.58
  -6   3  -4  132.74    2.60
   6  -3   4  134.41    2.60
   6  -3   5  161.28    2.85
   6   3   5  156.07    2.94
   6   3   5  154.90    2.85
   6   3   5  161.01    3.14
   6   3   5  166.38    3.13
  -6   3  -5  156.08    3.24
  -6   3  -5  162.19    2.95
  -6   3  -5  155.67    2.79
  -6  -3  -5  152.30    2.94
  -6   3  -5  155.36    2.93
   6   3   5  149.30    2.72
   6  -3   5  162.90    3.03
   6   3   5  148.75    2.80
   6   3   6   57.80    1.81
   6  -3   6   58.32    1.82
   6  -3   6   56.59    1.69
   6   3   6   58.19    1.94
   6   3   6   55.86    1.74
   6   3   6   59.14    1.88
  -6   3  -6   58.53    1.82
  -6   3  -6   56.66    1.70
  -6  -3  -6   54.70    1.73
  -6   3  -6   56.36    1.82
   6   3   6   55.53    1.70
   6  -3   6   58.47    1.80
   6   3   6   55.47    1.74
   6   3   7   33.97    1.48
   6   3   7   36.90    1.50
  -6   3  -7   36.28    1.56
   6   3   7   33.97    1.34
  -6   3  -7   32.86    1.28
  -6  -3  -7   34.16    1.35
  -6   3  -7   33.33    1.45
   6   3   7   33.98    1.34
   6  -3   7   37.91    1.37
   6  -3   7   36.10    1.41
   6   3   7   34.12    1.38
   6   3   7   35.35    1.42
   6   3   8    4.86    0.62
  -6  -3  -8    5.06    0.76
   6   3   8    4.86    0.57
  -6   3  -8    5.66    0.76
   6   3   8    5.55    0.69
  -6   3  -8    4.14    0.58
  -6  -3  -8    4.39    0.57
  -6   3  -8    4.60    0.67
   6  -3   8    5.08    0.58
   6  -3   8    5.22    0.69
   6   3   8    4.88    0.61
   6  -3   8    5.37    0.58
   6   3   8    4.71    0.62
   6   3   9   20.53    0.82
  -6  -3  -9   23.18    1.10
   6   3   9   20.44    0.89
   6  -3   9   21.97    0.89
  -6   3  -9   22.17    1.05
  -6   3  -9   21.55    1.02
   6  -3   9   23.53    1.00
   6   3   9   23.48    0.96
   6   3   9   21.02    0.95
  -6  -3 -10    2.46    0.43
   6   3  10    2.19    0.29
  -6   3 -10    2.32    0.36
  -6   3 -10    2.10    0.39
   6  -3  10    2.45    0.34
   6   3  10    2.46    0.36
  -6  -3 -10    2.05    0.38
   6   3  10    2.42    0.36
  -6   4  11    3.81    0.28
   6  -4 -10    8.53    0.59
   6   4 -10    8.74    0.57
  -6   4  10    9.59    0.60
   6  -4 -10    7.19    0.45
   6   4 -10    8.70    0.56
   6  -4  -9   22.63    1.05
   6   4  -9   21.92    0.87
   6   4  -9   22.61    1.04
  -6   4   9   21.38    0.82
   6  -4  -9   20.73    0.86
   6   4  -9   24.82    0.98
   6   4  -9   23.50    1.02
  -6   4   8    7.53    0.76
  -6   4   8    6.50    0.58
   6  -4  -8    7.74    0.76
   6   4  -8    7.38    0.67
   6   4  -8    7.45    0.75
  -6   4   8    6.54    0.60
   6  -4  -8    6.92    0.62
   6   4  -8    7.36    0.71
   6   4  -8    7.77    0.75
  -6   4   7   25.87    1.31
  -6   4   7   24.36    1.09
   6  -4  -7   23.32    1.22
   6   4  -7   25.94    1.19
   6   4  -7   26.48    1.29
  -6   4   7   24.56    1.11
   6   4  -7   26.82    1.29
   6   4  -7   26.58    1.26
  -6   4   6  100.79    2.47
  -6   4   6   96.60    2.18
   6  -4  -6   99.08    2.33
   6   4  -6   98.73    2.31
   6   4  -6  101.12    2.47
   6   4  -6   96.41    2.40
  -6   4   6   94.34    2.17
   6   4  -6  100.53    2.40
  -6   4   5   18.41    1.21
  -6   4   5   18.45    1.10
   6  -4  -5   18.30    1.06
   6   4  -5   20.75    1.16
   6   4  -5   20.04    1.18
  -6   4   5   19.10    1.07
   6   4  -5   18.74    1.17
   6   4  -5   20.88    1.20
   6   4  -4   38.08    1.58
   6   4  -4   35.84    1.42
  -6   4   4   36.50    1.63
  -6   4   4   36.38    1.49
   6   4  -4   38.28    1.53
  -6   4   4   37.03    1.43
   6   4  -4   37.10    1.58
   6   4  -4   38.68    1.56
   6   4  -3  439.29    5.03
  -6   4   3  458.25    5.28
  -6   4   3  427.03    4.91
   6   4  -3  447.29    5.13
  -6   4   3  424.11    4.77
  -6   4   3  433.73    5.06
   6   4  -3  447.40    5.20
   6   4  -3  454.30    5.16
   6   4  -3  451.00    5.20
   6   4  -2  292.42    4.22
  -6  -4   2  311.82    4.51
  -6   4   2  320.58    4.42
  -6   4   2  300.67    4.11
   6   4  -2  298.62    3.97
   6   4  -2  303.84    4.14
   6   4  -2  307.61    4.22
  -6   4   2  311.50    4.48
  -6   4   2  290.12    3.89
  -6   4   2  299.40    4.18
   6  -4  -2  302.69    4.70
   6  -4  -2  317.44    4.65
   6   4  -1   54.05    1.87
  -6   4   1   59.93    1.92
  -6  -4   1   58.36    1.92
  -6   4   1   52.83    1.76
   6   4  -1   52.75    1.73
  -6   4   1   56.15    1.91
  -6   4   1   53.40    1.70
  -6   4   1   55.78    1.83
   6  -4  -1   52.82    2.05
   6   4  -1   50.25    1.76
   6  -4  -1   56.54    2.03
   6   4  -1   56.96    1.82
   6   4   0   22.14    1.26
  -6  -4   0   23.29    1.21
   6   4   0   22.24    1.17
   6   4   0   22.23    1.19
  -6   4   0   24.29    1.32
  -6   4   0   23.90    1.20
  -6   4   0   23.38    1.24
   6  -4   0   22.79    1.36
   6   4   0   22.68    1.22
   6  -4   0   25.15    1.41
   6   4   1   49.51    1.78
  -6   4  -1   51.50    1.77
  -6  -4  -1   52.70    1.77
   6   4   1   48.96    1.72
   6   4   1   51.61    1.71
  -6   4  -1   47.89    1.68
  -6   4  -1   49.85    1.85
  -6   4  -1   47.71    1.63
  -6   4  -1   50.03    1.73
   6  -4   1   48.01    1.88
   6   4   1   49.78    1.75
   6  -4   1   49.06    1.94
   6   4   2   43.65    1.66
   6   4   2   44.27    1.58
   6   4   2   47.09    1.63
  -6   4  -2   45.63    1.72
  -6   4  -2   46.29    1.62
  -6   4  -2   47.28    1.69
   6   4   3   79.52    2.22
   6   4   3   77.87    2.14
   6   4   3   82.64    2.18
  -6   4  -3   81.09    2.29
  -6   4  -3   78.41    2.10
  -6   4  -3   81.65    2.14
   6   4   4   39.99    1.61
   6   4   4   38.67    1.53
   6   4   4   40.72    1.55
  -6   4  -4   41.09    1.75
  -6   4  -4   39.60    1.55
  -6  -4  -4   37.21    1.42
  -6   4  -4   42.11    1.58
   6   4   5    4.25    0.69
   6   4   5    4.67    0.69
   6   4   5    4.54    0.70
  -6   4  -5    3.97    0.77
  -6   4  -5    4.38    0.79
  -6   4  -5    4.31    0.75
   6  -4   5    4.06    0.60
   6   4   6   21.77    1.21
   6   4   6   22.04    1.17
   6   4   6   22.97    1.15
  -6   4  -6   21.90    1.29
  -6   4  -6   22.32    1.22
  -6   4  -6   21.14    1.14
   6  -4   6   21.82    0.98
   6   4   7   29.01    1.25
   6   4   7   29.21    1.24
   6   4   7   30.66    1.26
  -6   4  -7   26.98    1.18
   6   4   7   26.42    1.03
   6   4   7   27.56    1.03
   6   4   8   20.56    0.95
   6   4   8   20.84    0.97
  -6  -4  -8   20.76    0.99
  -6   4  -8   19.69    1.03
   6   4   8   21.89    0.96
  -6   4  -8   19.39    0.86
   6  -4   8   22.27    0.95
   6   4   8   20.86    0.84
   6   4   8   19.23    0.78
   6   4   9    3.89    0.34
   6   4   9    4.24    0.39
   6   4   9    5.39    0.49
  -6  -4  -9    4.97    0.49
  -6   4  -9    5.08    0.52
   6  -4   9    5.08    0.40
   6   4   9    4.26    0.37
   6   5  -9    7.01    0.41
  -6   5   9    7.01    0.40
  -6   5   8    8.16    0.67
  -6   5   8    6.10    0.47
   6   5  -8    7.63    0.56
  -6   5   8    7.26    0.54
  -6   5   8    8.40    0.65
   6   5  -8    7.51    0.53
  -6   5   7   13.52    0.92
  -6   5   7   11.74    0.75
   6   5  -7   12.36    0.78
  -6   5   7   12.69    0.77
  -6   5   7   13.45    0.86
   6   5  -7   14.18    0.82
   6   5  -7   14.12    0.89
  -6   5   6    0.63    0.50
   6   5  -6    0.68    0.43
  -6   5   6    0.58    0.46
  -6   5   6    0.73    0.54
   6   5  -6    0.15    0.45
   6   5  -5   24.73    1.16
  -6   5   5   24.34    1.32
  -6   5   5   22.33    1.12
  -6   5   5   22.72    1.10
  -6   5   5   21.35    1.19
   6   5  -5   24.74    1.22
  -6   5   4   39.28    1.62
  -6   5   4   38.83    1.47
   6   5  -4   36.61    1.43
  -6   5   4   39.79    1.44
   6   5  -4   39.35    1.54
   6   5  -3   87.38    2.08
  -6   5   3   89.95    2.33
  -6   5   3   84.88    2.27
   6   5  -3   88.44    2.16
  -6   5   3   88.17    2.13
   6   5  -3   87.74    2.27
   6   5  -2   18.75    1.10
  -6   5   2   19.52    1.23
   6   5  -2   19.36    1.07
  -6   5   2   20.03    1.11
  -6   5   2   18.66    1.18
   6   5  -2   20.22    1.21
   6   5  -1   27.07    1.33
  -6   5   1   27.71    1.35
   6   5  -1   28.27    1.26
  -6   5   1   28.81    1.30
  -6   5   1   27.92    1.37
   6   5  -1   25.40    1.31
   6   5   0   17.85    1.14
  -6   5   0   18.43    1.17
   6   5   0   16.75    0.98
   6   5   0   17.92    1.04
  -6   5   0   17.40    1.08
  -6   5   0   20.09    1.21
   6   5   0   16.69    1.06
   6   5   1   13.19    1.03
  -6   5  -1   14.37    1.04
   6   5   1   12.25    0.86
  -6   5  -1   12.83    1.02
  -6   5  -1   12.63    1.03
   6   5   1   12.94    0.98
   6   5   2   37.70    1.55
   6   5   2   36.31    1.37
  -6   5  -2   35.07    1.43
  -6   5  -2   37.76    1.49
  -6   5  -2   39.41    1.56
   6   5   2   37.38    1.55
   6   5   3    7.13    0.86
   6   5   3    7.25    0.72
  -6   5  -3    6.23    0.79
  -6   5  -3    8.37    0.94
   6   5   4   29.35    1.38
  -6   5  -4   29.61    1.37
   6   5   4   27.49    1.33
   6   5   4   25.75    1.14
   6   5   4   29.00    1.21
  -6   5  -4   28.70    1.34
   6   5   5   51.90    1.69
   6   5   5   46.54    1.37
   6   5   5   49.30    1.47
  -6   5  -5   49.07    1.69
  -6   5  -5   48.10    1.60
   6   5   6    3.91    0.51
   6   5   6    4.43    0.55
  -6   5  -6    3.60    0.65
  -6   5  -6    3.73    0.65
   6   5   7   13.26    0.78
   6   5   7   13.24    0.68
  -6  -5  -7   12.76    0.69
  -6   5  -7   13.73    0.86
   6   5   7   14.32    0.70
  -6   5  -7   12.89    0.76
   6  -5   7   13.74    0.72
   6   5   8    9.93    0.55
   6   5   8    9.72    0.49
   6  -6  -8    2.47    0.29
  -6   6   7    3.30    0.37
  -6   6   7    3.52    0.38
  -6   6   7    4.14    0.44
  -6   6   6    0.76    0.46
  -6   6   6    0.80    0.39
  -6   6   6    0.37    0.36
  -6   6   6    0.77    0.41
  -6   6   5    4.98    0.65
  -6   6   5    4.60    0.58
   6   6  -5    4.43    0.42
  -6   6   5    4.05    0.52
  -6   6   5    4.67    0.60
   6   6  -5    4.87    0.53
  -6   6   4   21.48    1.08
  -6   6   4   21.46    1.02
   6   6  -4   20.64    0.85
  -6   6   4   22.22    1.00
  -6   6   4   21.66    1.05
   6   6  -4   21.02    0.99
  -6   6   3    2.06    0.63
   6   6  -3    2.37    0.42
  -6   6   3    2.02    0.55
  -6   6   3    2.37    0.60
  -6   6   2    6.60    0.77
   6   6  -2    5.84    0.56
  -6   6   2    6.83    0.69
  -6   6   2    6.27    0.74
   6   6  -1    1.74    0.49
  -6   6   1    2.01    0.60
   6   6  -1    2.31    0.42
   6   6   0   10.77    0.85
  -6   6   0   11.97    0.91
   6   6   0   11.27    0.71
   6   6   1   16.15    0.91
   6   6   1   15.97    1.00
   6   6   1   17.09    0.83
   6   6   2   32.56    1.27
   6   6   2   33.89    1.10
  -6   6  -2   33.35    1.27
   6   6   3   19.91    1.01
   6   6   3   21.04    0.84
  -6   6  -3   20.32    1.02
  -6   6  -3   19.90    1.08
   6   6   4   13.28    0.83
  -6   6  -4   12.54    0.74
  -6   6  -4   14.34    0.85
  -6   6  -4   13.99    0.87
   6   6   5    5.67    0.58
  -6   6  -5    5.27    0.52
  -6   6  -5    6.08    0.63
   6   6   6   -0.01    0.32
  -6   6  -6    0.21    0.37
   6  -6   6    0.03    0.21
  -6   7   5    1.68    0.27
  -6   7   5    1.58    0.25
  -6   7   5    1.55    0.23
  -6   7   4    0.55    0.31
  -6   7   4    0.44    0.30
  -6   7   3    6.02    0.51
  -6   7   3    6.78    0.53
  -6   7   2    3.27    0.44
  -6   7   2    3.61    0.48
  -6   7   1    0.62    0.39
  -6   7   1    0.30    0.40
  -6   7   0    2.46    0.44
  -6   7   0    2.73    0.49
  -6   7  -1   33.14    0.98
  -6   7  -1   31.91    1.03
  -6   7  -2   12.72    0.63
  -6   7  -2   11.95    0.67
  -6   7  -3   18.55    0.65
   7   0 -12   84.76    1.20
   7   0 -12   82.51    1.24
   7   0 -11    3.30    0.49
   7   0 -11    3.58    0.45
   7   0 -11    4.30    0.54
   7   0 -11    3.01    0.35
   7   0 -11    4.21    0.52
   7   0 -10   25.32    1.11
   7   0 -10   26.78    1.21
   7   0 -10   24.15    1.00
   7   0 -10   26.19    1.20
   7   0 -10   24.67    1.13
   7   0 -10   26.23    1.21
   7   0  -9   37.55    1.33
   7   0  -9   34.42    1.46
   7   0  -9   38.68    1.55
   7   0  -9   35.32    1.49
   7   0  -9   37.95    1.51
   7   0  -9   36.61    1.52
   7   0  -8  130.97    2.67
   7   0  -8  132.62    2.85
   7   0  -8  136.46    2.93
   7   0  -8  127.94    2.86
   7   0  -8  131.14    2.77
   7   0  -8  128.13    2.87
   7   0  -7   40.11    1.63
   7   0  -7   41.28    1.71
   7   0  -7   43.23    1.74
   7   0  -7   38.68    1.65
   7   0  -7   45.46    1.71
   7   0  -7   39.14    1.70
   7   0  -6  177.53    3.30
   7   0  -6  170.36    3.34
   7   0  -6  183.26    3.42
   7   0  -6  178.21    3.43
   7   0  -6  170.81    3.17
  -7   0   5    0.26    0.40
   7   0  -5    0.20    0.59
   7   0  -5    0.13    0.48
   7   0  -5    0.14    0.52
  -7   0   5    0.46    0.42
   7   0  -5    0.51    0.46
   7   0  -5    0.43    0.55
   7   0  -5    0.88    0.53
   7   0  -4    0.92    0.60
  -7   0   4    0.30    0.34
   7   0  -4   -0.05    0.47
   7   0  -4    1.09    0.55
  -7   0   4    0.66    0.42
   7   0  -4   -0.17    0.43
   7   0  -4    0.55    0.46
   7   0  -4    0.72    0.51
   7   0  -3    0.05    0.49
  -7   0   3    0.48    0.37
   7   0  -3    0.88    0.48
  -7   0   3    1.95    0.45
   7   0  -3    0.27    0.37
   7   0  -3   -0.17    0.44
   7   0  -3    0.25    0.46
   7   0  -3    0.44    0.49
   7   0  -2    5.51    0.72
   7   0  -2    5.16    0.65
  -7   0   2    4.83    0.60
   7   0  -2    4.65    0.66
   7   0  -2    5.40    0.62
   7   0  -2    4.38    0.57
  -7   0   2    5.37    0.59
   7   0  -2    5.06    0.68
   7   0  -2    6.03    0.71
   7   0  -2    4.36    0.67
   7   0  -2    5.07    0.68
   7   0  -1   81.88    2.09
  -7   0   1   82.48    1.98
   7   0  -1   84.82    2.12
   7   0  -1   84.46    2.06
   7   0  -1   84.22    2.00
   7   0  -1   86.78    2.14
  -7   0   1   84.34    1.96
   7   0  -1   83.37    2.10
   7   0  -1   82.81    2.14
   7   0  -1   84.21    2.14
   7   0   0  193.41    3.10
  -7   0   0  198.32    3.16
   7   0   0  194.97    3.16
   7   0   0  198.70    3.01
   7   0   0  191.65    2.84
  -7   0   0  197.81    2.97
   7   0   0  196.49    3.21
   7   0   0  196.09    3.22
   7   0   0  196.51    3.12
   7   0   0  197.74    3.26
   7   0   1  124.89    2.48
  -7   0  -1  124.49    2.58
   7   0   1  120.99    2.49
   7   0   1  126.51    2.31
  -7   0  -1  118.46    2.29
   7   0   1  122.77    2.38
   7   0   1  123.28    2.58
   7   0   1  125.00    2.60
   7   0   2   20.68    1.04
   7   0   2   20.59    1.11
  -7   0  -2   18.77    1.10
   7   0   2   19.60    1.12
   7   0   2   18.79    1.03
   7   0   2   20.19    0.99
   7   0   2   19.10    1.10
   7   0   3   61.45    1.86
  -7   0  -3   59.30    1.92
   7   0   3   60.97    1.78
   7   0   3   62.87    1.89
   7   0   3   61.71    1.70
  -7   0  -3   59.30    1.88
  -7   0  -3   62.64    1.95
   7   0   3   60.03    1.90
   7   0   3   61.82    1.89
   7   0   3   61.97    1.92
   7   0   3   63.50    1.93
  -7   0  -4  193.63    3.66
   7   0   4  196.85    3.15
   7   0   4  194.51    3.37
   7   0   4  183.48    3.34
   7   0   4  193.38    3.30
   7   0   4  191.63    3.05
  -7   0  -4  199.49    3.40
  -7   0  -4  188.43    3.43
   7   0   4  198.59    3.51
   7   0   4  193.76    3.37
   7   0   4  197.86    3.40
   7   0   5  121.44    2.62
  -7   0  -5  120.66    2.68
   7   0   5  116.87    2.44
  -7   0  -5  115.38    2.75
   7   0   5  116.05    2.59
   7   0   5  117.47    2.72
   7   0   6  393.49    4.80
   7   0   6  404.49    5.10
   7   0   6  396.07    4.53
  -7   0  -6  393.02    5.08
   7   0   6  400.96    4.79
   7   0   6  391.71    4.92
  -7   0  -7   86.44    2.20
   7   0   7   89.43    2.20
   7   0   7   84.13    2.31
  -7   0  -7   88.51    2.18
   7   0   7   85.37    2.05
   7   0   7   88.30    2.19
  -7   0  -8   85.33    2.08
   7   0   8   81.72    2.15
   7   0   8   85.03    1.94
   7   0   8   77.98    2.10
  -7   0  -8   80.92    1.92
   7   0   8   84.57    2.07
  -7   0  -9   76.25    1.75
   7   0   9   74.44    1.84
   7   0   9   72.88    1.82
   7   0   9   73.76    1.50
  -7   0  -9   75.85    1.91
   7   0   9   77.35    1.77
   7   0   9   74.33    1.79
  -7   0 -10    3.99    0.42
   7   0  10    5.05    0.50
   7   0  10    4.87    0.50
  -7   0 -10    4.18    0.51
   7   0  10    4.24    0.48
   7   0  10    4.44    0.49
   7   0  11    3.52    0.28
   7   0  11    3.33    0.27
   7   1 -12    4.63    0.30
   7   1 -12    5.18    0.32
   7  -1 -11   60.37    1.37
   7  -1 -11   60.22    1.32
   7   1 -11   55.45    1.24
   7   1 -11   59.36    1.39
   7  -1 -11   59.53    1.37
   7  -1 -11   63.53    1.39
   7   1 -11   62.82    1.42
   7  -1 -11   58.92    1.40
   7   1 -11   60.12    1.31
   7  -1 -10   42.65    1.23
   7   1 -10   44.75    1.45
   7  -1 -10   46.02    1.47
   7   1 -10   44.32    1.27
   7  -1 -10   46.85    1.45
   7   1 -10   41.37    1.36
   7  -1 -10   44.83    1.45
   7  -1 -10   45.19    1.40
   7  -1 -10   43.28    1.48
   7   1 -10   45.58    1.43
   7  -1  -9    3.79    0.66
   7  -1  -9    4.43    0.75
   7   1  -9    3.50    0.61
   7  -1  -9    3.50    0.61
   7  -1  -9    4.11    0.64
   7   1  -9    3.92    0.69
   7  -1  -9    4.72    0.68
   7  -1  -9    4.31    0.72
   7   1  -9    3.32    0.64
   7  -1  -8    5.07    0.81
   7   1  -8    5.57    0.64
   7  -1  -8    4.98    0.78
   7   1  -8    4.63    0.71
   7  -1  -8    5.15    0.74
   7   1  -8    5.01    0.78
   7   1  -8    4.86    0.77
   7  -1  -8    5.06    0.75
   7  -1  -8    4.63    0.70
   7   1  -8    5.02    0.77
   7  -1  -8    4.32    0.78
   7   1  -8    4.86    0.73
   7  -1  -7    2.38    0.72
   7   1  -7    3.38    0.66
   7   1  -7    2.60    0.70
   7  -1  -7    3.46    0.68
   7   1  -7    2.65    0.72
   7   1  -7    2.26    0.69
   7  -1  -7    2.50    0.65
   7   1  -7    3.40    0.69
   7  -1  -7    2.26    0.62
   7  -1  -7    2.50    0.67
   7   1  -7    2.32    0.64
   7   1  -6   30.34    1.42
   7  -1  -6   28.92    1.50
   7   1  -6   29.67    1.44
   7  -1  -6   29.92    1.40
   7   1  -6   30.94    1.51
   7  -1  -6   29.96    1.46
   7   1  -6   30.08    1.52
   7  -1  -6   27.82    1.31
   7   1  -6   30.98    1.46
   7  -1  -6   28.52    1.49
   7   1  -6   28.61    1.45
   7   1  -5  688.89    6.53
  -7  -1   5  670.35    6.62
  -7  -1   5  668.73    6.51
   7  -1  -5  662.97    6.79
   7  -1  -5  666.86    6.69
   7   1  -5  675.67    6.65
   7   1  -5  690.11    6.62
   7  -1  -5  691.66    6.40
   7   1  -5  687.56    6.67
   7   1  -5  665.08    6.50
   7   1  -5  681.21    6.70
   7  -1  -5  671.74    6.56
   7   1  -5  663.63    5.94
   7  -1  -5  670.96    6.14
   7   1  -5  676.69    6.47
   7  -1  -5  695.49    6.82
   7   1  -5  679.54    6.74
  -7   1   5  673.78    6.64
   7   1  -4  135.45    2.78
  -7  -1   4  127.92    2.73
  -7  -1   4  130.20    2.78
   7  -1  -4  133.71    2.85
   7   1  -4  136.78    2.89
   7   1  -4  141.48    2.89
   7  -1  -4  135.13    2.64
   7   1  -4  134.00    2.83
   7   1  -4  137.71    2.82
   7  -1  -4  135.00    2.81
   7   1  -4  135.00    2.89
  -7   1   4  131.97    2.77
   7   1  -4  132.89    2.61
   7   1  -4  134.48    2.76
   7  -1  -4  129.18    2.77
   7  -1  -4  129.26    2.83
   7   1  -4  135.23    2.91
   7  -1  -3   44.81    1.70
   7   1  -3   42.89    1.62
  -7  -1   3   41.63    1.55
   7  -1  -3   43.07    1.62
   7   1  -3   42.43    1.60
   7   1  -3   42.53    1.58
   7  -1  -3   44.61    1.68
   7   1  -3   41.31    1.54
   7  -1  -3   42.63    1.59
  -7   1   3   39.65    1.50
   7   1  -3   46.02    1.65
   7   1  -3   43.75    1.54
   7   1  -3   43.33    1.65
   7   1  -3   42.15    1.53
   7  -1  -3   42.07    1.67
   7  -1  -3   41.69    1.59
   7   1  -3   41.86    1.62
   7  -1  -2  216.55    3.50
  -7  -1   2  213.54    3.39
   7  -1  -2  211.31    3.38
   7   1  -2  209.46    3.31
   7   1  -2  208.53    3.30
   7   1  -2  212.55    3.47
  -7   1   2  215.89    3.35
   7   1  -2  206.46    3.25
   7  -1  -2  215.38    3.40
   7  -1  -2  215.87    3.45
  -7   1   2  211.15    3.16
   7   1  -2  216.35    3.25
   7  -1  -2  208.78    3.53
   7   1  -2  213.48    3.19
   7  -1  -2  215.86    3.45
   7   1  -2  209.00    3.43
   7  -1  -1  118.29    2.50
   7   1  -1  115.34    2.49
  -7  -1   1  122.96    2.57
  -7   1   1  115.47    2.26
   7  -1  -1  115.25    2.43
   7   1  -1  111.52    2.49
   7   1  -1  114.52    2.51
   7   1  -1  111.46    2.40
   7   1  -1  115.41    2.45
   7   1  -1  118.63    2.43
  -7   1   1  120.04    2.51
  -7   1   1  110.76    2.34
   7   1  -1  114.07    2.43
   7   1  -1  117.04    2.34
   7  -1  -1  118.54    2.48
   7  -1  -1  116.52    2.65
   7   1  -1  115.18    2.38
   7  -1  -1  111.92    2.45
   7   1  -1  117.82    2.54
   7  -1  -1  114.53    2.45
   7  -1   0  326.50    4.16
   7  -1   0  326.45    4.05
   7   1   0  308.88    4.08
   7  -1   0  321.46    3.95
  -7  -1   0  316.00    4.17
  -7   1   0  322.86    3.91
   7  -1   0  329.95    4.04
   7   1   0  312.36    4.11
   7   1   0  316.44    4.02
   7  -1   0  327.28    4.21
  -7   1   0  318.91    4.07
   7   1   0  317.10    4.08
  -7   1   0  308.87    4.00
   7   1   0  316.75    3.93
   7  -1   0  329.60    4.44
   7   1   0  314.58    4.02
   7  -1   0  321.54    4.13
   7   1   0  318.67    4.21
   7  -1   1  741.77    6.04
   7  -1   1  715.61    6.52
   7   1   1  688.39    6.14
  -7  -1  -1  704.14    6.52
  -7   1  -1  689.15    6.10
   7  -1   1  725.71    6.05
   7   1   1  679.72    6.26
   7   1   1  694.63    6.00
  -7   1  -1  697.62    6.14
  -7   1  -1  692.05    6.21
   7   1   1  691.48    6.27
   7   1   1  696.57    6.27
   7  -1   1  711.95    6.30
   7   1   1  688.43    6.41
   7  -1   1  719.21    6.38
   7  -1   1  734.10    5.99
   7   1   2   66.73    1.92
   7   1   2   66.08    1.86
   7  -1   2   68.35    2.11
  -7  -1  -2   66.75    2.03
  -7   1  -2   65.34    1.87
   7   1   2   66.19    1.92
   7   1   2   67.17    1.94
   7   1   2   69.35    1.86
  -7   1  -2   68.59    1.99
  -7   1  -2   64.54    1.88
  -7   1  -2   66.39    1.90
   7  -1   2   69.37    1.95
   7  -1   2   69.08    2.06
   7   1   2   67.69    1.98
   7   1   2   65.05    1.84
   7  -1   2   68.29    1.93
   7   1   2   65.47    1.97
   7   1   3   91.92    2.18
   7  -1   3   95.59    2.51
   7   1   3   92.16    2.26
  -7   1  -3   92.48    2.42
   7  -1   3   90.70    2.38
   7   1   3   90.46    2.30
   7  -1   3   91.35    2.27
   7   1   3   95.25    2.21
  -7  -1  -3   99.54    2.38
  -7   1  -3   90.01    2.28
  -7   1  -3   89.66    2.27
   7  -1   3   93.20    2.41
   7   1   3   90.01    2.22
   7  -1   3   94.96    2.30
   7   1   4   67.97    1.86
   7  -1   4   66.53    2.15
   7   1   4   66.20    2.01
   7   1   4   64.41    1.94
  -7   1  -4   63.69    2.08
   7  -1   4   65.05    2.03
   7  -1   4   63.46    1.90
   7   1   4   61.84    1.93
   7   1   4   66.30    1.93
  -7  -1  -4   65.90    1.98
  -7   1  -4   66.21    2.02
  -7   1  -4   64.11    2.00
   7   1   4   61.78    1.80
   7  -1   4   67.04    2.02
   7   1   4   64.09    1.92
   7  -1   4   65.90    1.94
   7   1   5  350.13    4.44
   7  -1   5  364.42    4.49
   7   1   5  351.18    4.57
   7   1   5  342.62    4.55
   7   1   5  358.07    4.45
  -7  -1  -5  359.22    4.55
  -7   1  -5  368.84    4.75
   7  -1   5  362.83    4.72
  -7  -1  -5  368.91    4.88
  -7   1  -5  360.07    4.75
   7   1   5  339.62    4.25
   7   1   5  347.92    4.65
   7   1   5  343.92    4.49
   7  -1   6  179.14    3.36
   7   1   6  179.72    3.29
   7  -1   6  188.62    3.10
   7   1   6  183.12    3.29
   7   1   6  175.32    3.23
  -7  -1  -6  182.79    3.10
  -7   1  -6  180.49    3.30
   7   1   6  176.34    3.17
  -7  -1  -6  186.77    3.45
  -7   1  -6  182.26    3.43
   7   1   6  179.87    3.10
   7  -1   6  179.73    3.31
   7   1   6  172.06    3.23
   7   1   7   69.35    2.06
  -7   1  -7   65.41    1.79
   7  -1   7   65.60    1.98
   7  -1   7   70.90    1.78
   7   1   7   68.77    1.95
   7   1   7   66.59    1.95
  -7  -1  -7   70.91    1.82
  -7   1  -7   71.36    2.02
   7   1   7   64.41    1.87
  -7  -1  -7   72.59    2.15
  -7   1  -7   67.90    2.11
   7  -1   7   69.27    2.02
   7   1   7   66.13    1.88
   7  -1   7   67.71    2.02
   7   1   7   65.96    1.97
  -7  -1  -8    9.04    0.87
  -7   1  -8    7.62    0.65
   7  -1   8    9.35    0.80
   7   1   8    8.44    0.82
   7  -1   8    9.02    0.83
   7   1   8    8.06    0.74
   7   1   8    8.71    0.76
  -7   1  -8    8.12    0.78
   7   1   8    8.46    0.75
  -7  -1  -8    9.44    0.88
  -7   1  -8    8.70    0.88
   7  -1   8    8.73    0.84
   7   1   8    8.64    0.78
   7  -1   8    8.13    0.77
   7   1   8    8.84    0.82
  -7  -1  -9   27.77    1.18
   7  -1   9   26.25    1.09
   7  -1   9   25.67    1.13
   7   1   9   26.55    1.10
   7   1   9   25.77    1.02
   7   1   9   27.36    1.12
  -7   1  -9   24.03    0.95
  -7  -1  -9   26.35    1.14
  -7   1  -9   25.08    1.18
   7   1   9   27.50    1.06
   7  -1   9   27.47    1.08
   7   1   9   27.26    1.11
   7  -1  10    1.75    0.35
  -7  -1 -10    2.15    0.41
   7  -1  10    1.72    0.34
   7   1  10    2.00    0.38
   7   1  10    1.91    0.35
   7  -1  10    1.66    0.37
   7  -1  10    2.14    0.39
   7   1  10    2.02    0.38
  -7  -1 -10    1.67    0.37
   7  -2 -11    3.58    0.44
   7   2 -11    3.29    0.40
   7   2 -11    3.17    0.39
   7  -2 -11    3.22    0.31
   7   2 -11    3.29    0.35
   7  -2 -11    4.11    0.40
   7   2 -11    3.98    0.42
   7  -2 -11    3.61    0.40
   7  -2 -10    0.41    0.41
   7  -2 -10    0.55    0.33
   7   2 -10    0.45    0.42
   7  -2 -10    0.87    0.38
   7   2 -10    0.36    0.40
   7  -2 -10    0.69    0.39
   7   2 -10    0.47    0.41
   7   2 -10    0.35    0.38
   7   2 -10    0.38    0.29
   7  -2 -10    0.62    0.44
   7   2 -10    0.12    0.28
   7  -2  -9   22.44    1.13
   7  -2  -9   22.15    1.17
   7   2  -9   21.99    0.93
   7  -2  -9   23.26    1.04
   7   2  -9   21.17    1.13
   7   2  -9   22.23    1.11
   7   2  -9   21.22    1.08
   7  -2  -9   22.17    1.07
   7  -2  -9   21.52    1.05
   7   2  -9   22.86    1.15
   7  -2  -9   21.80    1.13
   7   2  -9   20.06    0.99
   7   2  -9   20.12    0.92
   7  -2  -8   18.91    1.19
   7   2  -8   18.39    0.99
   7  -2  -8   18.93    1.04
   7   2  -8   19.00    1.16
   7   2  -8   17.72    1.14
   7  -2  -8   18.87    1.09
   7   2  -8   18.49    1.11
   7  -2  -8   17.76    1.04
   7  -2  -8   20.57    1.19
   7   2  -8   17.95    1.04
   7   2  -8   18.15    0.98
   7   2  -7   24.51    1.16
   7  -2  -7   25.55    1.40
   7   2  -7   25.28    1.23
   7  -2  -7   25.98    1.21
   7   2  -7   25.74    1.37
   7   2  -7   25.84    1.32
   7  -2  -7   27.06    1.29
   7   2  -7   26.62    1.34
   7  -2  -7   25.59    1.23
   7  -2  -7   25.55    1.35
   7   2  -7   24.10    1.22
   7   2  -7   24.50    1.18
   7   2  -6   50.55    1.69
   7  -2  -6   48.45    1.83
   7   2  -6   49.79    1.74
   7   2  -6   48.53    1.80
   7  -2  -6   49.18    1.71
   7   2  -6   49.39    1.81
   7  -2  -6   46.41    1.57
   7   2  -6   51.57    1.85
   7  -2  -6   48.23    1.79
   7   2  -6   50.14    1.77
   7   2  -6   47.03    1.60
   7   2  -5  285.51    4.08
   7   2  -5  290.02    4.30
   7  -2  -5  293.57    4.29
   7   2  -5  293.17    4.16
   7   2  -5  284.15    4.23
   7  -2  -5  285.74    4.04
   7   2  -5  295.27    4.26
   7  -2  -5  285.01    4.20
   7   2  -5  294.43    4.16
   7   2  -5  279.05    3.82
   7  -2  -4  613.38    6.45
   7   2  -4  617.97    6.08
  -7  -2   4  614.27    6.06
  -7  -2   4  637.11    6.53
   7  -2  -4  617.96    6.20
   7   2  -4  619.26    6.16
   7   2  -4  597.21    6.23
   7   2  -4  634.41    6.31
   7   2  -4  624.77    6.15
   7  -2  -4  590.81    6.36
   7  -2  -4  609.13    5.95
   7  -2  -4  629.84    6.18
   7   2  -4  615.42    6.14
   7   2  -4  618.76    5.66
  -7   2   4  613.57    6.34
   7   2  -3   23.26    1.26
   7  -2  -3   21.30    1.12
   7  -2  -3   23.50    1.29
  -7  -2   3   24.51    1.30
  -7   2   3   22.44    1.09
   7  -2  -3   23.97    1.23
   7   2  -3   22.95    1.23
   7   2  -3   23.79    1.29
   7   2  -3   21.97    1.23
   7   2  -3   22.59    1.25
  -7   2   3   23.41    1.24
   7   2  -3   23.44    1.23
   7  -2  -3   21.89    1.35
   7  -2  -3   23.27    1.22
   7   2  -3   22.72    1.22
   7   2  -2   54.04    1.79
  -7  -2   2   55.04    1.84
  -7   2   2   52.14    1.64
   7  -2  -2   51.51    1.68
   7   2  -2   51.70    1.77
   7  -2  -2   51.62    1.77
   7   2  -2   53.01    1.64
   7   2  -2   57.12    1.84
   7   2  -2   54.87    1.80
   7   2  -2   53.22    1.76
  -7   2   2   56.00    1.85
  -7   2   2   52.15    1.61
   7   2  -2   54.52    1.74
   7  -2  -2   53.00    1.95
   7  -2  -2   54.48    1.74
   7   2  -2   52.72    1.74
   7  -2  -2   51.43    1.64
   7  -2  -1   49.07    1.67
  -7  -2   1   45.47    1.67
  -7   2   1   49.42    1.62
   7  -2  -1   47.44    1.56
   7   2  -1   47.98    1.67
   7   2  -1   49.67    1.69
   7   2  -1   47.30    1.65
   7   2  -1   48.05    1.59
   7  -2  -1   47.78    1.63
  -7   2   1   49.98    1.77
  -7   2   1   45.85    1.55
  -7   2   1   45.54    1.49
   7   2  -1   47.33    1.59
   7  -2  -1   47.69    1.84
   7  -2  -1   47.39    1.71
   7  -2  -1   51.22    1.65
   7   2  -1   48.85    1.66
   7   2  -1   46.29    1.65
   7  -2   0  134.27    2.59
   7   2   0  130.68    2.61
   7   2   0  125.29    2.68
   7   2   0  127.37    2.68
   7   2   0  127.63    2.69
   7   2   0  134.48    2.67
   7  -2   0  134.51    2.75
  -7   2   0  133.75    2.83
  -7   2   0  123.78    2.56
   7   2   0  127.33    2.54
   7  -2   0  135.06    2.57
   7  -2   0  136.57    2.62
   7  -2   0  133.80    2.92
   7   2   0  129.00    2.69
   7   2   1   22.69    1.20
  -7  -2  -1   24.29    1.27
   7   2   1   21.83    1.08
   7   2   1   23.78    1.18
  -7   2  -1   23.04    1.24
  -7   2  -1   23.77    1.23
  -7   2  -1   23.76    1.08
   7   2   1   24.31    1.13
   7  -2   1   23.91    1.36
   7  -2   1   23.62    1.13
   7  -2   1   24.47    1.24
   7   2   1   22.98    1.20
   7  -2   1   24.41    1.39
   7   2   1   24.62    1.21
   7  -2   2  144.37    3.23
   7   2   2  144.59    2.86
  -7  -2  -2  161.70    3.21
   7   2   2  152.29    2.96
   7  -2   2  155.46    2.92
   7   2   2  155.93    2.94
   7   2   2  152.68    2.88
  -7   2  -2  151.74    2.97
  -7   2  -2  150.16    3.05
  -7   2  -2  152.43    2.61
   7   2   2  163.77    2.76
   7  -2   2  158.03    3.20
   7   2   2  149.56    2.79
   7  -2   2  157.79    2.81
   7   2   2  156.91    3.00
   7   2   3   52.23    1.71
   7   2   3   55.22    1.77
   7  -2   3   56.37    2.10
  -7  -2  -3   57.45    1.98
   7   2   3   56.62    1.84
   7  -2   3   52.87    1.79
   7   2   3   54.39    1.83
   7   2   3   55.67    1.79
   7  -2   3   55.00    1.76
  -7   2  -3   52.68    1.86
  -7   2  -3   55.55    1.93
  -7   2  -3   56.46    1.70
  -7   2  -3   53.34    1.72
   7  -2   3   54.63    1.92
   7   2   3   53.79    1.67
   7   2   3   56.19    1.86
   7  -2   3   55.48    1.69
   7   2   4   31.80    1.35
   7   2   4   32.25    1.42
   7  -2   4   31.93    1.32
   7  -2   4   31.71    1.42
   7   2   4   32.78    1.41
   7   2   4   32.18    1.44
   7   2   4   30.93    1.31
   7   2   4   29.75    1.39
  -7  -2  -4   33.09    1.41
  -7   2  -4   32.06    1.51
  -7   2  -4   30.76    1.33
  -7  -2  -4   32.22    1.47
  -7   2  -4   31.43    1.41
   7  -2   4   32.58    1.51
   7   2   4   30.33    1.32
   7   2   4   32.04    1.46
   7   2   5   49.79    1.61
   7  -2   5   48.86    1.71
   7   2   5   47.99    1.74
   7  -2   5   49.86    1.55
   7   2   5   48.99    1.75
  -7  -2  -5   51.91    1.66
  -7  -2  -5   49.55    1.82
  -7   2  -5   47.21    1.73
   7   2   5   48.71    1.63
   7   2   5   47.54    1.55
   7  -2   5   50.70    1.82
   7   2   5   47.46    1.64
   7  -2   6   59.83    1.85
   7   2   6   59.63    1.86
   7  -2   6   57.92    1.92
   7   2   6   57.53    1.71
   7   2   6   61.42    1.90
  -7   2  -6   65.75    2.07
  -7  -2  -6   62.98    1.94
  -7   2  -6   60.74    1.93
   7   2   6   58.92    1.73
   7  -2   6   60.68    1.91
   7   2   6   57.97    1.81
   7  -2   7   22.58    1.14
   7   2   7   22.63    1.15
   7  -2   7   24.00    1.18
   7   2   7   23.53    1.23
   7   2   7   22.22    1.08
  -7   2  -7   24.78    1.30
   7   2   7   23.61    1.23
  -7  -2  -7   22.62    1.20
  -7   2  -7   23.25    1.21
   7   2   7   23.77    1.12
   7  -2   7   24.08    1.20
   7   2   7   21.85    1.10
   7   2   8   19.24    0.89
  -7  -2  -8   19.81    1.13
   7  -2   8   20.40    0.99
   7   2   8   19.73    1.01
   7  -2   8   21.32    1.05
   7   2   8   18.48    0.90
   7   2   8   21.36    1.06
  -7   2  -8   18.71    1.06
   7   2   8   20.71    1.06
  -7  -2  -8   19.75    1.03
  -7   2  -8   18.77    1.06
   7  -2   8   19.87    1.07
   7   2   8   19.10    0.96
   7  -2   8   21.10    1.01
   7   2   8   19.51    1.01
  -7  -2  -9   14.64    0.89
   7  -2   9   12.74    0.67
   7   2   9   14.01    0.76
   7  -2   9   15.13    0.81
   7   2   9   12.87    0.65
   7   2   9   14.43    0.79
  -7   2  -9   14.53    0.77
  -7  -2  -9   14.08    0.74
  -7   2  -9   13.48    0.83
   7  -2   9   16.09    0.83
   7   2   9   14.76    0.76
   7  -2   9   14.49    0.73
   7   2   9   13.89    0.77
   7   2  10    3.95    0.41
  -7  -2 -10    3.95    0.44
   7   2  10    3.83    0.35
   7  -2  10    3.98    0.35
  -7   2 -10    3.92    0.42
   7  -2  10    4.51    0.39
   7   2  10    4.01    0.35
   7   2  10    4.00    0.38
   7  -3 -11   10.09    0.45
  -7   3  11   10.41    0.43
   7  -3 -10    5.40    0.50
   7   3 -10    5.29    0.37
   7  -3 -10    6.44    0.56
   7   3 -10    6.11    0.51
   7  -3 -10    5.90    0.44
   7   3 -10    7.15    0.54
   7  -3 -10    6.38    0.45
   7   3 -10    5.60    0.43
   7  -3  -9   21.90    1.04
   7   3  -9   20.62    0.87
   7   3  -9   22.32    1.00
   7  -3  -9   20.74    0.87
   7   3  -9   22.68    1.04
   7  -3  -9   21.85    0.95
   7   3  -9   21.24    0.91
   7  -3  -8    4.30    0.69
   7   3  -8    5.25    0.67
   7  -3  -8    3.68    0.53
   7   3  -8    4.44    0.66
   7  -3  -8    3.82    0.58
   7   3  -8    4.38    0.59
   7   3  -8    3.72    0.55
   7  -3  -7   10.03    0.90
   7   3  -7    9.86    0.88
   7   3  -7    9.98    0.91
   7  -3  -7    9.04    0.80
   7   3  -7   10.48    0.81
   7   3  -7    9.74    0.81
   7   3  -6    2.68    0.55
   7   3  -6    2.77    0.52
   7  -3  -6    2.47    0.64
   7   3  -6    2.50    0.68
   7   3  -6    2.49    0.57
   7  -3  -6    2.90    0.58
   7   3  -6    2.52    0.51
   7   3  -6    3.09    0.61
   7   3  -5  101.12    2.35
  -7   3   5   93.31    2.09
   7  -3  -5   99.51    2.45
   7   3  -5  100.51    2.31
   7   3  -5  102.33    2.52
   7   3  -5  100.47    2.37
  -7   3   5   94.11    2.03
   7  -3  -5   95.88    2.29
   7   3  -5   97.53    2.21
   7   3  -5   98.08    2.30
   7   3  -4  576.87    5.88
  -7   3   4  571.71    5.47
   7  -3  -4  583.98    5.81
   7   3  -4  582.73    5.75
   7   3  -4  588.11    6.11
  -7   3   4  581.13    5.19
   7   3  -4  582.39    6.10
   7  -3  -4  562.28    5.54
   7   3  -4  574.62    5.56
   7   3  -4  591.24    5.75
   7   3  -4  594.80    5.84
   7   3  -3  194.27    3.36
   7   3  -3  199.17    3.31
  -7   3   3  184.09    3.11
   7  -3  -3  196.01    3.21
   7   3  -3  197.42    3.33
   7   3  -3  196.62    3.44
  -7   3   3  195.35    2.96
  -7   3   3  188.53    3.21
   7   3  -3  195.99    3.43
   7   3  -3  191.91    3.18
   7   3  -2   19.66    1.21
   7  -3  -2   19.66    1.17
  -7  -3   2   19.50    1.21
  -7   3   2   18.97    1.11
   7   3  -2   20.24    1.16
   7   3  -2   20.42    1.23
  -7   3   2   21.19    1.28
  -7   3   2   19.62    1.02
  -7   3   2   19.12    1.12
   7  -3  -2   17.58    1.27
   7   3  -2   18.28    1.15
   7  -3  -2   17.37    1.16
   7   3  -2   19.25    1.07
   7  -3  -1   88.15    2.20
   7   3  -1   91.61    2.37
  -7  -3   1   97.57    2.52
  -7   3   1   91.66    2.27
   7   3  -1   92.51    2.30
   7   3  -1   83.78    2.24
  -7   3   1   90.83    2.06
  -7   3   1   89.49    2.20
   7   3  -1   87.96    2.27
   7  -3  -1   95.21    2.57
   7   3  -1   91.32    2.21
   7   3   0   58.17    1.90
  -7  -3   0   63.44    2.02
  -7   3   0   59.69    1.91
   7   3   0   59.96    1.89
   7   3   0   58.93    1.76
  -7   3   0   58.58    1.85
   7  -3   0   62.33    1.92
  -7   3   0   61.17    1.72
  -7   3   0   60.51    1.79
   7   3   0   63.01    1.87
   7  -3   0   63.00    2.21
   7  -3   0   60.60    2.13
   7   3   0   59.07    1.79
   7  -3   1   12.76    0.92
   7   3   1   10.51    0.94
  -7  -3  -1   12.90    0.97
   7   3   1   11.94    0.96
   7   3   1   13.01    0.93
  -7   3  -1   11.53    1.00
  -7   3  -1   12.39    0.97
  -7   3  -1   12.85    0.93
  -7   3  -1   12.59    0.94
   7   3   1   11.80    0.91
   7  -3   1   11.42    1.09
   7  -3   1   12.17    1.10
   7   3   1   12.82    0.92
   7   3   2  461.75    5.37
   7   3   2  485.28    5.39
   7  -3   2  510.61    5.15
   7   3   2  474.49    5.21
  -7   3  -2  459.34    5.36
   7  -3   2  493.21    5.19
  -7   3  -2  479.02    4.90
  -7   3  -2  465.37    4.92
   7   3   2  497.60    5.30
   7   3   3  243.92    3.75
   7  -3   3  253.38    3.66
   7   3   3  239.34    3.77
  -7   3  -3  245.02    3.94
  -7   3  -3  244.28    3.51
  -7   3  -3  243.07    3.42
   7  -3   4    1.62    0.60
   7   3   4    1.66    0.59
   7  -3   4    1.92    0.54
   7   3   4    1.27    0.45
   7   3   4    1.72    0.59
  -7  -3  -4    1.76    0.51
  -7   3  -4    2.03    0.69
  -7   3  -4    1.48    0.66
  -7   3  -4    2.22    0.61
  -7  -3  -4    2.32    0.65
   7   3   5   16.57    1.02
   7  -3   5   15.84    0.95
   7   3   5   14.97    0.92
   7  -3   5   15.49    0.99
   7   3   5   15.48    1.05
  -7   3  -5   15.69    1.17
  -7   3  -5   16.05    1.03
  -7  -3  -5   16.14    1.06
  -7   3  -5   15.45    0.98
   7  -3   5   16.89    1.05
   7   3   5   14.64    0.91
   7   3   6   46.88    1.48
   7  -3   6   46.17    1.45
   7   3   6   46.50    1.47
   7  -3   6   46.86    1.55
   7   3   6   47.12    1.65
  -7  -3  -6   47.05    1.55
  -7   3  -6   44.46    1.52
   7   3   6   44.65    1.35
   7  -3   6   45.84    1.54
   7   3   6   44.08    1.44
   7   3   7   32.90    1.26
   7  -3   7   29.83    1.05
   7   3   7   29.43    1.11
   7  -3   7   31.24    1.21
   7   3   7   32.32    1.32
  -7   3  -7   32.26    1.41
  -7  -3  -7   30.47    1.18
  -7   3  -7   30.66    1.20
   7   3   7   31.07    1.10
   7  -3   7   32.19    1.19
   7   3   7   29.89    1.16
   7   3   8   39.29    1.17
  -7  -3  -8   40.01    1.37
   7   3   8   36.17    1.07
   7  -3   8   37.37    1.14
  -7   3  -8   40.42    1.36
  -7  -3  -8   38.17    1.08
  -7   3  -8   36.56    1.18
   7  -3   8   42.68    1.33
   7   3   8   39.64    1.11
   7  -3   8   41.25    1.11
   7   3   8   37.32    1.14
   7   3   9    0.67    0.26
   7   3   9    0.95    0.34
  -7  -3  -9    0.86    0.38
   7   3   9    0.57    0.21
   7  -3   9    0.62    0.21
  -7   3  -9    0.87    0.34
  -7   3  -9    0.52    0.28
   7  -3   9    0.70    0.34
   7   3   9    0.90    0.26
  -7  -3  -9    0.44    0.26
   7  -4 -10   28.84    0.71
   7   4 -10   34.86    0.75
   7  -4  -9   11.95    0.72
   7  -4  -9   12.83    0.66
   7   4  -9   12.51    0.57
  -7   4   9   13.61    0.71
   7   4  -9   13.51    0.66
   7   4  -9   12.17    0.66
   7  -4  -8   15.72    0.84
   7   4  -8   16.08    0.81
   7   4  -8   15.45    0.86
  -7   4   8   12.87    0.58
  -7   4   8   18.47    0.92
   7   4  -8   17.98    0.91
   7   4  -8   16.18    0.83
  -7   4   7   17.06    0.79
   7  -4  -7   18.92    0.97
   7   4  -7   20.66    1.00
   7   4  -7   19.20    1.05
  -7   4   7   18.55    0.82
  -7   4   7   21.82    1.06
   7   4  -7   20.90    1.07
   7   4  -7   20.97    1.01
   7   4  -6   28.26    1.29
  -7   4   6   27.06    1.12
   7  -4  -6   26.84    1.18
   7   4  -6   30.89    1.29
  -7   4   6   25.74    1.05
  -7   4   6   29.10    1.29
   7   4  -6   28.59    1.32
   7   4  -6   28.97    1.25
  -7   4   5    2.30    0.81
  -7   4   5    2.71    0.62
   7   4  -5    2.89    0.62
  -7   4   5    2.79    0.57
   7   4  -5    2.74    0.65
  -7   4   5    2.66    0.64
   7   4  -5    2.24    0.64
   7   4  -4   57.36    1.74
  -7   4   4   56.70    1.93
  -7   4   4   51.60    1.68
   7   4  -4   55.15    1.61
   7   4  -4   59.22    1.86
   7   4  -4   58.21    1.86
  -7   4   4   51.79    1.58
  -7   4   4   55.55    1.79
   7   4  -3   73.54    2.05
  -7   4   3   69.76    1.98
   7   4  -3   71.85    1.92
   7   4  -3   75.16    2.10
   7   4  -3   73.62    2.11
  -7   4   3   69.84    1.86
  -7   4   3   73.13    2.07
   7   4  -2  115.37    2.65
  -7   4   2  106.20    2.50
   7   4  -2  109.04    2.42
   7   4  -2  114.99    2.60
  -7   4   2  109.00    2.34
  -7   4   2  112.72    2.50
   7   4  -2  114.58    2.61
   7   4  -1  110.23    2.60
  -7   4   1  120.09    2.58
   7   4  -1  116.03    2.56
   7  -4  -1  113.34    2.47
   7   4  -1  113.47    2.57
  -7   4   1  114.98    2.38
  -7   4   1  118.90    2.57
   7   4  -1  111.35    2.62
   7  -4   0  120.39    2.45
   7   4   0  110.33    2.63
   7   4   0  117.01    2.57
   7   4   0  121.59    2.58
  -7   4   0  118.61    2.42
  -7   4   0  117.12    2.53
   7   4   0  119.24    2.60
   7   4   1   16.75    1.11
   7   4   1   16.47    1.08
   7   4   1   17.18    1.07
  -7   4  -1   14.18    1.01
  -7   4  -1   15.52    1.03
  -7   4  -1   16.46    1.06
   7   4   1   16.83    1.06
   7   4   2    4.86    0.73
   7   4   2    3.15    0.57
   7   4   2    3.92    0.66
  -7   4  -2    3.98    0.69
  -7   4  -2    4.23    0.72
  -7   4  -2    4.26    0.72
   7   4   3    0.97    0.56
   7   4   3    0.54    0.44
  -7   4  -3    0.32    0.57
   7   4   3    1.03    0.54
  -7   4  -3    0.97    0.65
  -7   4  -3    0.54    0.56
   7   4   4   15.56    1.03
   7  -4   4   15.29    0.89
   7   4   4   14.34    0.94
   7   4   4   17.36    1.04
  -7   4  -4   15.99    1.10
  -7   4  -4   16.35    1.04
  -7   4  -4   13.99    0.96
  -7  -4  -4   17.01    0.99
   7  -4   4   16.79    1.00
   7   4   5    3.92    0.62
   7  -4   5    3.86    0.51
   7   4   5    3.90    0.61
   7   4   5    3.54    0.63
  -7   4  -5    3.78    0.72
  -7   4  -5    3.28    0.69
  -7   4  -5    3.63    0.65
  -7  -4  -5    3.63    0.54
   7  -4   5    3.79    0.56
   7   4   6   13.57    0.88
   7   4   6   12.87    0.80
   7   4   6   11.33    0.83
   7   4   6   13.50    0.85
  -7   4  -6   12.52    0.95
  -7   4  -6   11.49    0.76
   7  -4   6   12.59    0.71
   7   4   7    3.44    0.52
   7   4   7    2.80    0.46
   7   4   7    3.26    0.52
   7   4   7    3.12    0.50
   7  -4   7    3.54    0.57
   7   4   8   13.42    0.62
   7   4   8   14.30    0.63
  -7  -4  -8   14.03    0.70
  -7   4  -8   14.85    0.74
   7  -4   8   14.93    0.66
   7  -5  -8   10.54    0.64
   7   5  -8    9.99    0.48
   7   5  -8   11.13    0.49
  -7   5   7    3.88    0.40
   7   5  -7    3.82    0.44
  -7   5   7    3.53    0.39
   7   5  -7    4.61    0.50
  -7   5   6    3.31    0.51
   7   5  -6    3.74    0.51
  -7   5   6    3.86    0.49
   7   5  -6    4.19    0.56
  -7   5   5    1.85    0.54
   7   5  -5    2.56    0.51
  -7   5   5    3.04    0.59
  -7   5   5    2.20    0.48
   7   5  -5    2.04    0.52
  -7   5   4   43.67    1.44
   7   5  -4   45.84    1.46
  -7   5   4   46.74    1.37
  -7   5   4   43.79    1.53
   7   5  -4   46.09    1.55
   7   5  -3   17.63    0.97
  -7   5   3   19.31    1.07
   7   5  -3   18.80    1.01
  -7   5   3   18.43    0.99
  -7   5   3   19.83    1.11
   7   5  -3   18.74    1.10
   7   5  -2    9.58    0.82
  -7   5   2    9.64    0.93
   7  -5  -2    8.89    0.71
   7   5  -2   10.29    0.82
  -7   5   2    9.99    0.78
  -7   5   2   11.63    0.90
   7   5  -1    9.91    0.85
   7   5  -1   10.01    0.72
   7   5  -1   10.61    0.80
  -7   5   1    9.65    0.79
  -7   5   1   10.58    0.87
   7   5   0    6.16    0.75
   7   5   0    7.01    0.71
  -7   5   0    6.68    0.77
  -7   5   0    6.42    0.78
   7   5   0    5.95    0.67
   7   5   1    9.16    0.85
   7   5   1   10.00    0.79
  -7   5  -1    9.75    0.86
  -7   5  -1    9.62    0.88
   7   5   1    9.53    0.82
   7   5   2    3.87    0.69
   7   5   2    4.75    0.60
  -7   5  -2    4.39    0.59
  -7   5  -2    4.63    0.70
  -7   5  -2    4.50    0.72
  -7  -5  -2    4.41    0.55
   7   5   2    4.79    0.70
   7   5   3    4.69    0.69
   7   5   3    4.37    0.58
  -7   5  -3    4.21    0.62
  -7   5  -3    4.69    0.69
  -7   5  -3    3.90    0.69
   7  -5   3    4.36    0.55
   7   5   4   25.17    1.16
   7   5   4   23.75    1.12
   7   5   4   22.00    0.94
   7   5   4   24.64    1.04
  -7   5  -4   23.92    1.13
  -7   5  -4   26.98    1.16
  -7   5  -4   23.37    1.09
   7   5   5    7.56    0.71
   7   5   5    7.99    0.61
  -7   5  -5    7.64    0.70
  -7   5  -5    7.70    0.68
   7   5   6    1.78    0.37
  -7   5  -6    1.71    0.44
  -7   5  -6    1.21    0.40
   7   5   7    1.26    0.32
  -7   5  -7    0.87    0.31
   7  -5   7    0.63    0.25
  -7   6   6    0.50    0.22
  -7   6   6    0.61    0.29
  -7   6   5    6.10    0.51
   7   6  -5    5.31    0.35
  -7   6   5    7.28    0.49
  -7   6   5    7.56    0.56
  -7   6   4    5.36    0.54
   7   6  -4    4.50    0.40
  -7   6   4    5.46    0.51
  -7   6   3    6.95    0.64
   7   6  -3    6.26    0.48
  -7   6   3    5.80    0.57
   7   6  -2    8.18    0.56
   7   6  -2    9.30    0.59
  -7   6   2    8.68    0.66
  -7   6   2    8.60    0.71
   7   6  -1    3.36    0.48
   7   6  -1    4.15    0.45
  -7   6   1    3.47    0.55
  -7   6   1    3.85    0.60
   7   6   0    5.17    0.57
   7   6   0    5.13    0.48
  -7   6   0    5.59    0.63
  -7   6   0    5.84    0.66
   7   6   1   10.75    0.76
   7   6   1   12.73    0.65
  -7   6  -1   12.70    0.78
  -7   6  -1   10.75    0.79
   7   6   2    2.48    0.43
   7   6   2    2.42    0.37
  -7   6  -2    2.35    0.51
  -7   6  -2    2.35    0.55
   7   6   3    7.70    0.59
   7   6   3    7.82    0.47
  -7   6  -3    8.45    0.66
  -7   6  -3    9.03    0.68
   7   6   4   13.78    0.69
  -7   6  -4   15.95    0.72
   7   6   5    1.72    0.31
  -7   6  -5    1.54    0.30
  -7   7   3    6.08    0.34
  -7   7   2    2.65    0.29
  -7   7   2    2.49    0.30
  -7   7   1    3.32    0.32
  -7   7  -1    8.06    0.43
   8   0 -11   22.28    0.62
   8   0 -11   21.71    0.68
   8   0 -11   22.91    0.67
   8   0 -11   23.12    0.68
   8   0 -10   34.74    1.06
   8   0 -10   35.52    1.07
   8   0 -10   33.99    1.12
   8   0 -10   35.13    1.08
   8   0 -10   31.14    1.07
   8   0  -9   33.05    1.09
   8   0  -9   32.10    1.24
   8   0  -9   33.10    1.22
   8   0  -9   33.88    1.30
   8   0  -9   34.17    1.25
   8   0  -9   32.97    1.30
   8   0  -8   11.14    0.86
   8   0  -8   12.21    0.94
   8   0  -8   12.22    0.91
   8   0  -8    9.80    0.72
   8   0  -8   12.40    0.97
   8   0  -8   11.28    0.86
   8   0  -8   11.69    0.93
   8   0  -7    0.44    0.57
   8   0  -7    0.82    0.65
   8   0  -7    0.30    0.52
   8   0  -7    0.21    0.59
   8   0  -7    0.47    0.47
   8   0  -7    0.44    0.42
   8   0  -7    0.76    0.52
   8   0  -7    0.51    0.55
   8   0  -6   77.55    2.19
   8   0  -6   75.63    2.21
   8   0  -6   78.99    2.13
   8   0  -6   73.05    1.91
   8   0  -6   74.62    2.03
   8   0  -6   79.77    2.28
   8   0  -6   80.10    2.13
   8   0  -5   62.37    2.05
   8   0  -5   56.47    1.85
   8   0  -5   59.90    1.90
   8   0  -5   59.64    2.03
   8   0  -5   56.79    1.71
   8   0  -5   59.42    1.86
   8   0  -4   44.74    1.73
   8   0  -4   46.97    1.79
   8   0  -4   42.00    1.47
   8   0  -4   44.56    1.63
   8   0  -4   46.87    1.72
   8   0  -4   48.63    1.80
   8   0  -4   49.37    1.64
   8   0  -3    0.83    0.63
   8   0  -3    2.88    0.67
   8   0  -3    1.23    0.49
   8   0  -3    0.93    0.56
   8   0  -3    0.92    0.53
   8   0  -3    2.25    0.62
   8   0  -2   16.42    1.13
   8   0  -2   16.20    1.12
  -8   0   2   15.15    0.98
   8   0  -2   17.30    1.09
   8   0  -2   14.99    0.97
   8   0  -2   16.62    1.09
   8   0  -2   16.40    1.07
   8   0  -2   15.60    1.05
   8   0  -2   14.80    1.07
   8   0  -1   30.28    1.40
   8   0  -1   32.27    1.46
   8   0  -1   30.92    1.40
  -8   0   1   31.46    1.39
   8   0  -1   29.17    1.37
   8   0  -1   30.80    1.30
   8   0  -1   29.88    1.43
   8   0  -1   29.42    1.40
   8   0   0  118.97    2.59
  -8   0   0  122.52    2.74
   8   0   0  118.91    2.60
   8   0   0  120.60    2.68
  -8   0   0  122.44    2.64
   8   0   0  123.59    2.83
   8   0   0  116.60    2.71
   8   0   0  120.58    2.63
   8   0   1   72.60    2.00
  -8   0  -1   69.82    2.11
   8   0   1   68.52    1.99
  -8   0  -1   70.34    2.06
   8   0   1   71.40    2.17
   8   0   1   71.33    2.11
   8   0   2    0.13    0.54
   8   0   2   -0.04    0.40
   8   0   2    1.49    0.52
   8   0   2    0.12    0.49
   8   0   2    1.29    0.56
   8   0   2   -0.03    0.40
   8   0   2    0.22    0.55
   8   0   3   10.45    0.86
   8   0   3   10.71    0.90
   8   0   3   10.76    0.79
  -8   0  -3   11.71    1.00
  -8   0  -3   10.38    0.95
   8   0   3    9.89    0.94
   8   0   3    9.82    0.90
   8   0   3   10.29    0.91
   8   0   4   71.89    1.90
   8   0   4   67.35    2.11
   8   0   4   73.14    2.07
  -8   0  -4   75.54    2.17
   8   0   4   71.81    1.87
  -8   0  -4   71.02    2.17
   8   0   4   69.56    1.96
   8   0   4   71.34    2.09
   8   0   4   73.94    2.14
   8   0   5  124.61    2.61
   8   0   5  121.86    2.74
  -8   0  -5  127.76    2.70
   8   0   5  120.31    2.36
  -8   0  -5  121.53    2.78
   8   0   5  122.43    2.56
   8   0   5  121.96    2.66
   8   0   6  194.90    3.14
   8   0   6  191.51    3.31
   8   0   6  194.43    2.88
  -8   0  -6  203.32    3.46
   8   0   6  199.20    3.14
   8   0   6  197.37    3.26
  -8   0  -7   54.64    1.55
   8   0   7   57.07    1.60
   8   0   7   57.11    1.73
  -8   0  -7   57.15    1.64
  -8   0  -7   55.15    1.76
   8   0   7   57.05    1.61
   8   0   7   57.32    1.72
  -8   0  -8    3.71    0.49
   8   0   8    4.06    0.57
   8   0   8    4.17    0.48
  -8   0  -8    3.95    0.48
   8   0   8    4.57    0.57
  -8   0  -9    0.21    0.22
   8   0   9    0.24    0.30
   8   0   9    0.17    0.30
   8   0   9    0.18    0.32
   8  -1 -11    7.04    0.37
   8   1 -11    7.50    0.40
   8   1 -11    7.02    0.39
   8  -1 -11    7.62    0.41
   8  -1 -10   21.17    0.69
   8  -1 -10   24.19    0.93
   8   1 -10   23.22    0.75
   8   1 -10   25.00    0.94
   8  -1 -10   22.54    0.76
   8   1 -10   25.25    0.93
   8   1 -10   20.95    0.74
   8  -1 -10   22.53    0.88
   8  -1 -10   24.56    0.86
   8   1 -10   24.43    0.93
   8  -1 -10   25.38    0.95
   8   1 -10   25.06    0.88
   8  -1  -9    7.93    0.68
   8  -1  -9    8.36    0.76
   8   1  -9    8.42    0.67
   8  -1  -9    8.34    0.65
   8   1  -9    9.46    0.75
   8   1  -9    7.79    0.63
   8  -1  -9    7.13    0.58
   8  -1  -9    8.24    0.70
   8   1  -9    8.37    0.73
   8  -1  -9    8.95    0.68
   8   1  -9    9.94    0.76
   8  -1  -9    8.47    0.73
   8   1  -9    9.36    0.72
   8  -1  -8   25.25    1.19
   8   1  -8   24.96    1.05
   8   1  -8   24.28    1.16
   8  -1  -8   23.75    1.08
   8   1  -8   23.17    1.18
   8   1  -8   22.84    1.09
   8   1  -8   24.40    1.23
   8  -1  -8   25.35    1.21
   8  -1  -8   24.87    1.13
   8   1  -8   25.09    1.19
   8  -1  -8   24.40    1.22
   8   1  -8   23.42    1.17
   8  -1  -7  146.91    2.94
   8   1  -7  156.34    2.79
   8  -1  -7  140.38    2.95
   8   1  -7  151.45    2.92
   8  -1  -7  150.08    2.70
   8   1  -7  151.46    2.96
   8   1  -7  147.02    2.75
   8  -1  -7  150.90    2.91
   8   1  -7  150.57    3.01
   8  -1  -7  149.74    2.70
   8   1  -7  153.61    2.92
   8  -1  -7  150.05    3.01
   8   1  -7  148.21    2.94
   8  -1  -6   59.32    1.99
   8   1  -6   60.52    1.88
   8  -1  -6   60.03    2.00
   8   1  -6   61.98    1.97
   8  -1  -6   58.57    1.76
   8   1  -6   61.41    1.96
   8   1  -6   57.45    1.82
   8  -1  -6   61.59    1.97
   8   1  -6   60.01    2.01
   8  -1  -6   56.51    1.72
   8   1  -6   57.82    1.88
   8  -1  -6   60.52    2.00
   8   1  -6   58.11    1.93
   8   1  -5   81.66    2.24
   8  -1  -5   81.79    2.32
   8   1  -5   80.27    2.28
   8  -1  -5   79.60    2.04
   8   1  -5   82.05    2.26
   8   1  -5   79.99    2.12
   8  -1  -5   79.67    2.23
   8   1  -5   80.61    2.34
   8   1  -5   75.53    1.96
   8  -1  -5   81.52    2.02
   8   1  -5   81.89    2.21
   8  -1  -5   81.24    2.33
   8   1  -5   79.09    2.29
   8  -1  -4  198.91    3.62
   8   1  -4  202.42    3.49
   8  -1  -4  203.06    3.58
   8   1  -4  200.46    3.56
   8   1  -4  197.20    3.44
   8   1  -4  192.54    3.56
   8   1  -4  184.24    3.27
   8   1  -4  192.56    3.22
   8  -1  -4  194.65    3.47
   8   1  -4  191.92    3.33
   8  -1  -4  200.87    3.58
   8   1  -4  196.96    3.54
   8  -1  -3  173.18    3.27
   8   1  -3  163.40    3.19
   8  -1  -3  165.81    3.24
   8   1  -3  162.80    3.10
   8  -1  -3  160.56    3.28
   8  -1  -3  166.79    3.14
   8   1  -3  166.31    3.04
   8   1  -3  159.34    3.00
   8   1  -3  153.92    3.18
  -8   1   3  170.26    2.86
   8   1  -3  165.33    3.00
   8  -1  -3  163.92    3.18
   8   1  -3  167.52    3.27
   8  -1  -2   54.99    1.86
   8  -1  -2   54.98    1.89
  -8  -1   2   53.52    1.85
   8  -1  -2   54.70    1.83
   8   1  -2   51.82    1.74
   8  -1  -2   49.80    1.83
   8   1  -2   49.93    1.67
   8   1  -2   46.53    1.74
  -8   1   2   58.23    1.92
  -8   1   2   50.68    1.67
   8  -1  -2   54.68    1.80
   8   1  -2   53.28    1.81
   8   1  -2   51.73    1.66
   8  -1  -2   53.52    1.99
   8  -1  -2   52.44    1.81
   8   1  -2   52.13    1.84
   8  -1  -1   37.73    1.55
   8   1  -1   37.43    1.54
  -8  -1   1   37.43    1.56
   8  -1  -1   37.51    1.48
   8   1  -1   38.38    1.57
   8  -1  -1   41.09    1.61
   8   1  -1   37.52    1.50
   8   1  -1   36.34    1.51
  -8   1   1   41.28    1.60
  -8   1   1   38.25    1.48
   8  -1  -1   38.25    1.70
   8   1  -1   36.65    1.49
   8  -1  -1   37.10    1.54
   8   1  -1   38.16    1.58
   8   1  -1   37.87    1.47
   8  -1   0   10.71    0.88
   8   1   0   11.04    0.92
   8  -1   0   11.10    0.87
  -8  -1   0   10.31    0.89
   8  -1   0    9.84    0.84
   8   1   0   11.09    0.94
   8   1   0   11.59    0.96
   8   1   0   10.85    0.86
  -8   1   0   10.66    0.87
  -8   1   0   10.82    0.92
   8  -1   0   10.85    1.03
   8  -1   0   11.32    0.94
   8   1   0   10.74    0.92
   8  -1   0   10.66    0.89
   8   1   0   10.77    0.93
   8  -1   1  298.46    3.89
   8   1   1  287.27    4.03
   8  -1   1  297.96    3.92
   8   1   1  296.77    4.12
   8  -1   1  295.71    4.18
   8   1   1  289.43    4.15
   8   1   1  296.23    3.92
  -8   1  -1  284.39    4.09
  -8   1  -1  294.43    4.16
  -8   1  -1  280.63    3.91
   8   1   1  285.74    3.82
   8  -1   1  292.59    4.15
   8   1   1  290.83    4.25
   8   1   2   91.36    2.23
   8   1   2   90.34    2.30
   8  -1   2   94.46    2.41
   8   1   2   92.01    2.36
   8   1   2   93.91    2.21
  -8  -1  -2   95.15    2.39
  -8   1  -2   89.48    2.36
  -8   1  -2   93.91    2.29
   8   1   2   89.07    2.20
   8  -1   2   95.70    2.35
   8   1   2   91.80    2.34
   8   1   3   18.13    1.06
   8   1   3   18.54    1.11
   8  -1   3   16.86    1.13
   8   1   3   18.63    1.11
   8  -1   3   18.01    1.10
   8   1   3   17.92    1.06
  -8  -1  -3   19.40    1.16
  -8   1  -3   17.56    1.17
  -8  -1  -3   18.53    1.21
  -8   1  -3   16.76    1.09
   8  -1   3   18.46    1.18
   8   1   3   17.66    1.07
   8  -1   3   19.09    1.12
   8   1   4  223.03    3.25
   8   1   4  219.15    3.44
   8  -1   4  222.63    3.68
   8  -1   4  225.77    3.48
   8   1   4  215.27    3.57
   8   1   4  214.77    3.41
  -8  -1  -4  229.94    3.59
  -8   1  -4  213.79    3.56
   8   1   4  217.14    3.15
   8  -1   4  219.23    3.67
   8   1   4  215.65    3.43
   8  -1   5  140.56    2.88
   8   1   5  134.69    2.82
   8  -1   5  134.62    2.66
   8   1   5  132.50    2.78
   8   1   5  137.94    2.76
  -8  -1  -5  143.74    2.76
   8   1   5  130.24    2.61
  -8   1  -5  142.01    2.90
  -8   1  -5  132.01    2.81
   8   1   5  138.56    2.53
   8   1   5  135.55    2.74
   8   1   6    1.09    0.53
   8  -1   6    0.99    0.53
   8   1   6    1.30    0.53
   8  -1   6    1.08    0.48
   8   1   6    1.36    0.51
   8   1   6    0.78    0.46
  -8  -1  -6    0.87    0.49
  -8   1  -6    1.12    0.59
   8   1   6    1.61    0.52
  -8  -1  -6    0.87    0.64
  -8   1  -6    1.06    0.63
   8  -1   6    1.17    0.64
   8   1   6    1.55    0.52
  -8  -1  -7   26.29    1.22
   8  -1   7   25.56    1.20
   8   1   7   25.70    1.18
   8  -1   7   25.57    0.99
   8   1   7   26.17    1.15
   8   1   7   24.16    1.10
  -8  -1  -7   25.49    1.03
  -8   1  -7   26.31    1.20
   8   1   7   23.39    1.05
  -8  -1  -7   28.02    1.28
  -8   1  -7   26.52    1.25
   8  -1   7   27.72    1.20
   8   1   7   25.29    1.07
   8  -1   7   27.32    1.20
   8   1   7   26.44    1.16
  -8  -1  -8   59.94    1.52
   8  -1   8   59.94    1.54
   8   1   8   57.72    1.53
   8   1   8   57.59    1.44
   8   1   8   59.01    1.47
  -8   1  -8   58.56    1.44
  -8  -1  -8   61.72    1.61
  -8   1  -8   60.31    1.60
   8  -1   8   64.17    1.54
   8   1   8   57.65    1.38
   8  -1   8   59.72    1.53
   8   1   8   61.01    1.53
  -8  -1  -9   19.26    0.74
   8  -1   9   17.67    0.73
   8   1   9   19.72    0.77
   8  -1   9   17.68    0.75
   8   1   9   18.26    0.68
  -8  -1  -9   20.31    0.79
  -8   1  -9   19.89    0.81
   8  -1   9   21.22    0.79
   8   1   9   19.87    0.70
   8  -1   9   19.88    0.76
   8   1   9   19.56    0.76
   8   2 -10   13.26    0.64
   8   2 -10   12.92    0.59
   8   2 -10   12.82    0.58
  -8   2  10   13.23    0.54
   8  -2 -10   11.61    0.48
   8   2 -10   13.10    0.64
   8  -2 -10   13.43    0.61
   8  -2  -9   13.54    0.80
   8  -2  -9   13.27    0.81
   8   2  -9   13.06    0.60
   8   2  -9   14.16    0.82
   8   2  -9   13.14    0.75
   8  -2  -9   13.82    0.71
   8   2  -9   15.15    0.81
   8  -2  -9   14.65    0.70
   8  -2  -9   14.46    0.80
   8   2  -9   13.59    0.69
   8  -2  -8    0.75    0.52
   8  -2  -8    0.18    0.47
   8   2  -8    0.47    0.37
   8  -2  -8    0.57    0.39
   8   2  -8    0.58    0.47
   8   2  -8    0.53    0.46
   8  -2  -8    0.44    0.37
   8   2  -8    0.81    0.51
   8  -2  -8    0.27    0.42
   8   2  -8    0.62    0.40
   8  -2  -7   37.51    1.51
   8   2  -7   40.87    1.35
   8  -2  -7   37.92    1.52
   8   2  -7   39.07    1.40
   8   2  -7   39.64    1.48
   8  -2  -7   37.29    1.38
   8   2  -7   41.32    1.52
   8  -2  -7   37.34    1.26
   8   2  -7   39.72    1.54
   8  -2  -7   39.02    1.49
   8   2  -7   38.60    1.42
   8   2  -6   43.15    1.52
   8  -2  -6   40.67    1.61
   8   2  -6   40.75    1.54
   8   2  -6   38.78    1.55
   8  -2  -6   39.41    1.48
   8   2  -6   41.85    1.61
   8   2  -6   40.99    1.59
   8  -2  -6   39.71    1.56
   8   2  -6   38.45    1.51
   8  -2  -5  284.37    4.29
   8   2  -5  281.99    4.00
   8  -2  -5  278.60    4.06
   8   2  -5  280.17    4.06
   8   2  -5  283.63    4.17
   8   2  -5  276.02    4.00
   8   2  -5  288.90    4.18
   8   2  -5  281.86    4.07
   8  -2  -5  283.98    4.10
   8   2  -5  277.34    4.00
   8  -2  -5  268.94    3.86
   8  -2  -4   24.91    1.43
   8   2  -4   28.67    1.38
   8  -2  -4   25.99    1.34
   8   2  -4   26.88    1.35
   8   2  -4   24.91    1.31
   8   2  -4   27.82    1.41
   8   2  -4   29.26    1.40
   8  -2  -4   24.92    1.22
  -8   2   4   25.44    1.18
   8   2  -4   25.27    1.32
   8  -2  -4   25.23    1.32
   8   2  -4   28.66    1.37
   8  -2  -3   95.55    2.49
   8   2  -3   98.36    2.50
   8  -2  -3   96.67    2.36
   8   2  -3  102.55    2.52
   8   2  -3  101.41    2.53
   8   2  -3  102.27    2.55
   8  -2  -3   99.71    2.33
   8   2  -3   96.45    2.40
   8   2  -3  100.74    2.23
  -8   2   3  101.04    2.20
   8   2  -3  100.73    2.41
   8  -2  -3   99.09    2.43
   8   2  -3  105.39    2.51
   8  -2  -2   51.12    1.79
   8   2  -2   48.60    1.79
   8  -2  -2   49.12    1.69
   8   2  -2   51.69    1.81
   8   2  -2   49.99    1.78
   8  -2  -2   50.81    1.87
   8   2  -2   50.16    1.63
   8   2  -2   48.50    1.72
   8   2  -2   50.93    1.70
   8  -2  -2   50.73    1.73
   8   2  -2   51.89    1.78
   8  -2  -1   66.27    1.98
   8  -2  -1   69.72    1.90
   8   2  -1   68.79    2.07
   8   2  -1   70.61    2.06
   8  -2  -1   67.07    2.07
   8   2  -1   67.54    1.93
   8   2  -1   68.85    1.97
  -8   2   1   63.85    1.87
   8   2  -1   69.11    1.93
   8  -2  -1   67.52    1.97
   8   2  -1   71.32    2.06
   8  -2   0   13.90    0.94
   8   2   0   13.33    1.00
   8  -2   0   14.02    1.06
   8   2   0   13.20    0.89
   8   2   0   12.84    0.97
   8   2   0   12.67    0.95
  -8   2   0   13.32    0.97
   8   2   0   13.79    0.90
   8  -2   0   13.31    0.91
   8   2   0   13.82    1.00
   8   2   1    6.26    0.77
   8   2   1    6.27    0.79
   8  -2   1    6.45    0.79
   8   2   1    7.14    0.71
   8   2   1    6.47    0.74
   8   2   1    6.94    0.77
  -8   2  -1    6.33    0.83
   8   2   1    7.93    0.71
   8  -2   1    7.12    0.72
   8   2   1    8.32    0.83
   8   2   2   26.49    1.33
   8  -2   2   26.57    1.32
   8   2   2   28.75    1.37
   8  -2   2   27.27    1.34
   8   2   2   26.86    1.24
   8   2   2   27.59    1.34
   8   2   2   27.36    1.32
  -8   2  -2   26.76    1.36
   8   2   2   27.92    1.37
   8  -2   2   26.80    1.21
   8   2   3   81.00    2.12
   8   2   3   75.28    2.17
   8  -2   3   81.91    2.19
   8   2   3   80.64    2.11
   8  -2   3   82.28    2.12
   8   2   3   76.84    2.15
   8   2   3   83.69    2.13
  -8  -2  -3   83.76    2.19
  -8   2  -3   75.33    2.21
  -8   2  -3   78.35    1.89
  -8   2  -3   76.51    1.99
   8   2   3   74.05    1.89
   8   2   3   79.62    2.21
   8  -2   3   81.79    2.01
   8   2   4    6.21    0.70
   8   2   4    8.09    0.82
   8  -2   4    6.52    0.76
   8   2   4    7.16    0.72
   8  -2   4    7.16    0.72
   8   2   4    7.11    0.82
   8   2   4    6.45    0.67
   8   2   4    6.28    0.76
  -8  -2  -4    6.97    0.75
  -8   2  -4    6.59    0.88
  -8  -2  -4    6.51    0.84
  -8   2  -4    6.39    0.72
   8  -2   4    6.07    0.82
   8   2   4    6.64    0.69
   8   2   5   12.51    0.82
   8  -2   5   13.25    0.94
   8   2   5   11.14    0.86
   8  -2   5   12.28    0.79
   8   2   5   11.05    0.92
   8  -2   5   13.26    0.95
   8   2   5   10.39    0.78
   8   2   5   12.59    0.93
  -8  -2  -5   11.93    0.86
  -8  -2  -5   13.10    0.99
  -8   2  -5   11.58    0.90
   8  -2   5   12.96    1.00
   8   2   5   11.80    0.84
   8  -2   6   47.72    1.54
   8   2   6   43.89    1.47
   8  -2   6   50.85    1.64
   8   2   6   43.74    1.36
  -8  -2  -6   46.46    1.35
  -8   2  -6   48.56    1.68
   8   2   6   47.50    1.52
  -8  -2  -6   48.26    1.64
  -8   2  -6   44.97    1.52
   8  -2   6   48.25    1.62
   8   2   6   46.66    1.32
   8  -2   6   47.92    1.58
   8   2   6   44.37    1.43
   8  -2   7    2.31    0.51
   8   2   7    2.04    0.46
   8   2   7    1.81    0.46
   8  -2   7    2.84    0.49
   8   2   7    2.43    0.47
   8  -2   7    2.52    0.53
   8   2   7    2.04    0.41
   8   2   7    2.58    0.52
  -8   2  -7    2.37    0.54
   8   2   7    2.67    0.53
   8   2   7    2.59    0.43
  -8  -2  -7    2.08    0.54
  -8   2  -7    2.28    0.53
   8  -2   7    2.46    0.58
  -8  -2  -8   18.63    0.91
   8  -2   8   17.86    0.75
   8   2   8   17.83    0.79
   8  -2   8   19.02    0.86
   8   2   8   17.97    0.84
   8   2   8   15.28    0.60
  -8   2  -8   20.18    0.89
  -8  -2  -8   17.73    0.82
  -8   2  -8   16.65    0.84
   8   2   8   18.65    0.71
   8  -2   8   20.04    0.84
   8   2   8   17.74    0.78
  -8  -2  -9   11.43    0.56
   8   2   9    9.84    0.44
   8  -2   9   11.39    0.51
  -8   2  -9   10.26    0.49
   8  -2   9   10.01    0.42
   8   2   9   10.61    0.47
   8  -3 -10    1.55    0.22
   8   3 -10    1.47    0.22
   8  -3  -9    2.95    0.45
   8  -3  -9    2.71    0.41
   8   3  -9    3.02    0.41
   8   3  -9    2.68    0.40
  -8   3   9    2.96    0.39
   8   3  -9    3.35    0.43
   8  -3  -9    2.52    0.29
   8  -3  -8   12.60    0.86
   8   3  -8   11.23    0.65
   8  -3  -8   11.83    0.77
   8   3  -8   11.64    0.76
   8   3  -8   11.95    0.78
  -8   3   8   11.80    0.71
   8   3  -8   11.32    0.76
   8  -3  -8   10.89    0.64
   8  -3  -7   63.63    1.70
   8   3  -7   60.61    1.41
   8   3  -7   65.76    1.76
   8   3  -7   59.11    1.70
   8   3  -7   59.19    1.55
  -8   3   7   60.67    1.58
   8  -3  -7   57.67    1.51
   8  -3  -6   95.57    2.36
   8   3  -6   98.68    2.00
   8  -3  -6   94.49    2.17
   8   3  -6   95.02    2.01
   8   3  -6  103.52    2.35
   8   3  -6   96.76    2.13
   8   3  -6   98.40    2.28
  -8   3   6   94.43    2.06
   8   3  -6   96.19    2.26
   8  -3  -6   90.03    2.01
   8   3  -6   93.52    1.91
   8  -3  -5   35.73    1.55
   8   3  -5   36.58    1.40
   8  -3  -5   32.66    1.37
   8   3  -5   35.22    1.36
   8   3  -5   35.06    1.48
   8   3  -5   36.51    1.48
   8   3  -5   37.14    1.43
  -8   3   5   33.95    1.34
   8   3  -5   35.78    1.51
   8  -3  -5   34.13    1.31
   8   3  -5   33.38    1.27
   8  -3  -4   25.74    1.37
   8   3  -4   26.07    1.26
  -8   3   4   24.97    1.15
   8  -3  -4   25.11    1.21
   8   3  -4   27.12    1.27
   8   3  -4   26.98    1.37
   8   3  -4   27.46    1.27
   8   3  -4   26.88    1.31
  -8   3   4   26.23    1.21
   8   3  -4   26.49    1.33
   8  -3  -4   24.30    1.13
   8   3  -4   25.80    1.17
   8  -3  -3   17.68    1.14
   8   3  -3   18.20    1.12
   8   3  -3   18.40    1.11
   8   3  -3   16.21    1.10
  -8   3   3   17.78    1.04
   8   3  -3   18.14    1.17
   8   3  -3   18.04    1.04
   8  -3  -2   87.09    2.24
   8   3  -2   92.29    2.36
   8   3  -2   93.12    2.34
   8  -3  -2   89.78    2.34
   8   3  -2   91.98    2.37
  -8   3   2   90.79    2.12
   8   3  -2   91.81    2.30
   8   3  -2   93.57    2.21
   8  -3  -1   58.91    1.77
   8   3  -1   59.38    1.96
   8   3  -1   61.60    1.93
   8  -3  -1   60.60    1.92
   8   3  -1   61.47    1.92
   8   3  -1   59.34    1.69
  -8   3   1   62.45    1.63
  -8   3   1   59.16    1.71
   8   3  -1   60.35    1.85
   8   3  -1   63.58    1.86
   8   3   0    2.48    0.61
   8  -3   0    2.60    0.62
   8   3   0    2.21    0.52
  -8   3   0    2.28    0.56
   8   3   0    2.30    0.63
  -8   3   0    2.17    0.54
  -8   3   0    2.28    0.58
   8   3   0    2.26    0.59
   8   3   0    1.73    0.54
   8   3   1  174.31    3.19
   8   3   1  167.38    3.17
   8  -3   1  170.81    3.03
   8   3   1  170.18    2.99
   8   3   1  174.28    3.12
  -8   3  -1  170.23    3.10
  -8   3  -1  173.46    2.74
  -8   3  -1  171.73    2.74
   8   3   1  169.70    2.94
   8   3   1  173.97    3.07
   8   3   2   70.40    2.06
   8   3   2   66.20    2.02
   8  -3   2   71.31    1.97
   8  -3   2   70.20    1.87
   8   3   2   68.71    1.96
   8   3   2   74.07    2.01
  -8   3  -2   69.81    2.07
  -8   3  -2   68.21    1.79
   8   3   2   72.92    1.99
   8   3   3  104.47    2.41
   8  -3   3  107.28    2.30
   8   3   3   99.14    2.33
   8   3   3  106.68    2.44
  -8  -3  -3  111.42    2.35
  -8   3  -3  102.81    2.48
  -8   3  -3  103.68    2.18
  -8  -3  -3  108.91    2.49
   8   3   4   17.71    1.02
   8  -3   4   17.44    0.96
   8   3   4   18.01    1.05
   8   3   4   18.01    1.05
  -8  -3  -4   17.14    0.95
  -8   3  -4   16.04    1.09
  -8   3  -4   16.69    0.95
  -8  -3  -4   17.51    1.05
   8  -3   4   16.71    1.05
   8   3   5    2.99    0.51
   8  -3   5    2.76    0.48
   8   3   5    2.51    0.45
   8  -3   5    2.88    0.56
   8   3   5    3.42    0.61
   8   3   5    3.19    0.62
  -8   3  -5    2.88    0.70
  -8  -3  -5    2.58    0.57
   8  -3   5    3.36    0.62
   8  -3   6   28.46    1.00
   8   3   6   29.75    1.01
   8  -3   6   30.34    1.13
   8   3   6   31.29    1.23
   8   3   6   32.10    1.25
  -8  -3  -6   30.04    1.16
   8  -3   6   33.01    1.18
   8   3   6   31.13    1.20
   8   3   7    7.04    0.59
   8  -3   7    6.56    0.54
   8   3   7    7.17    0.60
  -8   3  -7    7.04    0.67
   8   3   7    7.50    0.63
  -8  -3  -7    7.20    0.55
   8  -3   7    8.08    0.57
   8   3   7    6.34    0.45
   8   3   8    8.38    0.39
   8   3   8   12.35    0.57
   8  -3   8    9.54    0.43
  -8   3  -8   11.84    0.64
   8  -3   8   14.16    0.64
   8  -3   8    9.10    0.38
   8  -4  -9    6.84    0.38
   8   4  -9    6.73    0.35
  -8   4   9    7.59    0.35
  -8   4   8   63.40    1.22
   8   4  -8   64.19    1.29
   8  -4  -7    2.83    0.54
   8  -4  -7    2.66    0.38
   8   4  -7    3.58    0.47
   8   4  -7    3.13    0.48
  -8   4   7    3.08    0.48
   8   4  -7    3.64    0.53
   8  -4  -6   31.19    1.28
   8   4  -6   34.58    1.22
   8   4  -6   32.49    1.21
  -8   4   6   32.96    1.16
   8   4  -6   31.65    1.19
   8  -4  -5   85.06    2.04
   8   4  -5   88.09    1.77
  -8   4   5   81.98    1.70
   8   4  -5   88.94    2.03
   8   4  -5   92.76    2.07
  -8   4   5   78.87    1.52
  -8   4   5   82.03    1.89
   8  -4  -4  121.87    2.45
   8   4  -4  129.04    2.40
  -8   4   4  123.14    2.26
   8   4  -4  127.06    2.22
   8   4  -4  131.04    2.55
  -8   4   4  123.90    2.05
  -8   4   4  123.75    2.37
   8   4  -4  127.71    2.55
   8  -4  -3   54.95    1.70
   8   4  -3   56.11    1.72
  -8   4   3   55.64    1.66
   8   4  -3   58.00    1.62
   8  -4  -3   56.48    1.78
   8   4  -3   57.59    1.79
  -8   4   3   57.58    1.49
  -8   4   3   55.17    1.66
   8   4  -3   61.09    1.84
   8  -4  -2   57.15    1.63
   8   4  -2   62.79    1.84
   8   4  -2   61.90    1.76
   8  -4  -2   59.04    1.80
   8   4  -2   60.45    1.84
  -8   4   2   60.51    1.58
  -8   4   2   59.09    1.73
   8   4  -2   63.32    1.86
   8   4  -1   30.95    1.41
   8   4  -1   30.72    1.32
   8  -4  -1   30.70    1.29
   8   4  -1   32.70    1.39
  -8   4   1   30.77    1.19
  -8   4   1   31.37    1.29
   8   4  -1   32.40    1.38
   8   4   0   76.80    2.09
   8   4   0   79.07    2.03
   8  -4   0   72.07    1.76
   8   4   0   79.23    2.04
   8  -4   0   71.83    1.82
  -8   4   0   77.50    1.83
  -8   4   0   76.83    1.91
   8   4   0   81.49    2.04
   8   4   1   42.61    1.55
   8   4   1   42.66    1.53
  -8   4  -1   41.50    1.42
  -8   4  -1   41.01    1.40
  -8   4  -1   41.00    1.40
   8   4   2   19.34    1.07
   8   4   2   18.76    1.07
   8   4   2   18.37    0.95
   8   4   2   21.07    1.10
  -8   4  -2   17.99    1.03
  -8   4  -2   19.30    1.00
  -8   4  -2   18.82    0.97
   8   4   3   28.80    1.26
   8   4   3   25.80    1.10
   8   4   3   29.86    1.26
  -8  -4  -3   27.52    1.07
  -8   4  -3   26.46    1.23
  -8   4  -3   27.29    1.12
  -8   4  -3   25.09    1.07
  -8  -4  -3   27.46    1.18
   8  -4   3   28.50    1.23
   8   4   4   35.36    1.29
   8  -4   4   35.42    1.14
   8   4   4   34.62    1.23
   8   4   4   39.64    1.35
  -8   4  -4   34.38    1.33
  -8   4  -4   36.11    1.24
  -8   4  -4   32.45    1.09
  -8  -4  -4   38.01    1.24
   8  -4   4   38.52    1.30
   8   4   4   37.22    1.36
   8  -4   5   11.10    0.60
   8   4   5   11.64    0.75
   8   4   5   12.72    0.80
  -8   4  -5   12.09    0.82
  -8  -4  -5   11.90    0.67
   8  -4   5   12.05    0.70
   8   4   6   23.73    0.94
   8   4   6   20.27    0.66
   8   4   6   23.34    0.89
  -8   4  -6   23.65    0.99
   8   4   6   24.83    0.95
   8  -4   6   21.18    0.69
   8   4   7   32.99    0.85
  -8  -4  -7   35.87    0.96
  -8   4  -7   33.83    0.95
   8  -4   7   35.90    0.92
   8  -5  -7   12.69    0.53
   8  -5  -7   12.78    0.54
   8   5  -7   12.69    0.48
  -8   5   7   14.22    0.54
   8  -5  -6    5.93    0.50
   8  -5  -6    6.11    0.50
   8   5  -6    6.45    0.47
  -8   5   6    6.95    0.52
   8   5  -6    6.92    0.51
   8  -5  -5    2.33    0.44
   8  -5  -5    2.54    0.42
   8   5  -5    2.59    0.41
  -8   5   5    2.17    0.34
  -8   5   5    3.24    0.49
   8   5  -5    3.43    0.49
   8  -5  -4    0.53    0.35
   8  -5  -4    0.96    0.38
   8   5  -4    1.16    0.39
  -8   5   4    0.65    0.35
  -8   5   4    1.31    0.45
   8   5  -4    0.72    0.42
   8   5  -3    0.56    0.37
   8  -5  -3    0.42    0.34
   8   5  -3    0.74    0.40
  -8   5   3    0.59    0.40
  -8   5   3    0.38    0.47
   8   5  -2   21.39    1.01
   8   5  -2   22.78    1.00
  -8   5   2   20.99    0.90
  -8   5   2   21.39    1.00
   8   5  -2   20.94    1.03
   8   5  -1   32.42    1.24
   8   5  -1   36.00    1.23
  -8   5   1   33.57    1.13
  -8   5   1   33.49    1.24
   8   5   0    2.50    0.54
   8   5   0    1.74    0.44
   8   5   0    2.33    0.49
  -8   5   0    2.26    0.53
  -8   5   0    2.21    0.54
   8   5   1   24.43    1.04
   8   5   1   25.77    1.12
   8   5   1   27.88    1.06
  -8   5  -1   28.67    1.07
  -8   5  -1   25.09    1.05
   8   5   2    3.12    0.53
   8   5   2    3.55    0.54
   8   5   2    4.03    0.52
  -8   5  -2    4.10    0.57
  -8   5  -2    3.72    0.57
  -8  -5  -2    4.18    0.47
   8  -5   2    3.32    0.49
   8  -5   3    0.88    0.32
   8   5   3    0.85    0.44
   8   5   3    1.39    0.45
  -8   5  -3    0.91    0.36
   8   5   3    1.01    0.40
  -8   5  -3    0.87    0.46
  -8   5  -3    0.70    0.42
   8   5   4    6.80    0.58
   8   5   4    6.61    0.51
  -8   5  -4    5.96    0.50
  -8   5  -4    4.88    0.46
   8   5   5   18.39    0.74
   8   5   5   18.61    0.69
   8  -5   6    1.01    0.22
  -8   6   4    0.79    0.27
  -8   6   3    7.17    0.41
  -8   6   3    9.34    0.52
   8   6  -2    1.25    0.24
  -8   6   2    1.76    0.33
  -8   6   2    1.68    0.37
   8   6  -1    1.48    0.26
  -8   6   1    1.49    0.35
  -8   6   1    1.66    0.37
   8   6   0    2.38    0.28
  -8   6   0    2.29    0.38
  -8   6   0    2.34    0.41
   8   6   1    3.57    0.30
  -8   6  -1    4.89    0.43
  -8   6  -1    4.30    0.43
  -8   6  -2    1.87    0.33
  -8   6  -2    1.36    0.30
   9   0 -10   33.01    0.75
   9   0 -10   31.77    0.74
   9   0  -9   17.67    0.62
   9   0  -9   19.83    0.80
   9   0  -9   18.65    0.72
   9   0  -9   18.68    0.79
   9   0  -9   19.33    0.73
   9   0  -9   18.66    0.80
   9   0  -8    6.44    0.60
   9   0  -8    6.25    0.61
   9   0  -8    5.76    0.56
   9   0  -8    5.92    0.64
   9   0  -8    5.53    0.56
   9   0  -8    6.20    0.63
   9   0  -7    2.68    0.56
   9   0  -7    1.54    0.55
   9   0  -7    1.74    0.47
   9   0  -7    2.16    0.54
   9   0  -7    1.45    0.41
   9   0  -7    1.98    0.45
   9   0  -6   39.61    1.50
   9   0  -6   36.41    1.33
   9   0  -6   37.50    1.51
   9   0  -6   35.67    1.34
   9   0  -6   36.64    1.31
   9   0  -5   30.44    1.39
   9   0  -5   25.72    1.33
   9   0  -5   27.53    1.23
   9   0  -5   29.61    1.41
   9   0  -5   28.04    1.28
   9   0  -5   27.85    1.17
   9   0  -4    6.99    0.84
   9   0  -4    6.89    0.72
   9   0  -4    6.93    0.84
   9   0  -4    7.07    0.82
  -9   0   4    7.13    0.70
   9   0  -3  113.85    2.69
   9   0  -3  113.00    2.64
   9   0  -3  110.71    2.37
   9   0  -3  110.27    2.63
   9   0  -3  113.10    2.60
  -9   0   3  108.33    2.33
   9   0  -3  111.19    2.63
   9   0  -2   96.35    2.42
   9   0  -2   94.13    2.39
   9   0  -2   95.74    2.41
  -9   0   2   90.47    2.22
   9   0  -2   91.38    2.44
   9   0  -1   20.66    1.20
   9   0  -1   20.02    1.18
   9   0  -1   20.21    1.21
  -9   0   1   19.90    1.14
   9   0  -1   21.02    1.25
   9   0   0    1.31    0.54
   9   0   0    1.31    0.55
   9   0   0    1.34    0.58
  -9   0   0    1.24    0.61
   9   0   0    1.30    0.57
   9   0   1    0.44    0.54
   9   0   1    0.08    0.48
   9   0   1   -0.16    0.46
   9   0   1    0.23    0.49
  -9   0  -1   -0.05    0.57
  -9   0  -1   -0.17    0.53
   9   0   1   -0.12    0.52
   9   0   2    2.77    0.65
   9   0   2    2.99    0.54
   9   0   2    2.78    0.58
   9   0   2    2.90    0.67
   9   0   2    2.90    0.64
  -9   0  -2    2.80    0.66
   9   0   2    2.56    0.64
   9   0   3  448.74    4.64
   9   0   3  467.42    5.23
   9   0   3  468.45    5.11
  -9   0  -3  447.02    5.05
  -9   0  -3  451.45    5.06
   9   0   3  460.18    5.01
   9   0   3  465.37    5.21
   9   0   4   84.35    2.22
   9   0   4   84.32    2.13
  -9   0  -4   89.57    2.22
  -9   0  -4   83.98    2.19
   9   0   4   84.75    1.89
   9   0   4   86.07    2.13
   9   0   5   25.67    1.15
   9   0   5   24.32    1.20
   9   0   5   24.16    1.18
  -9   0  -5   24.14    1.19
  -9   0  -5   24.92    1.24
   9   0   5   24.53    1.05
   9   0   5   24.54    1.17
   9   0   6   13.02    0.79
   9   0   6   13.74    0.86
  -9   0  -6   12.97    0.84
  -9   0  -6   12.11    0.87
   9   0   6   12.94    0.77
   9   0   6   12.87    0.84
   9   0   7    1.78    0.44
   9   0   7    1.66    0.37
   9   0   7    1.58    0.40
  -9   0  -7    1.63    0.38
  -9   0  -7    1.87    0.50
   9   0   7    1.75    0.39
   9   0   8    8.76    0.50
  -9   0  -8    8.71    0.56
   9   0   8    8.52    0.44
   9   0   8    8.61    0.52
   9  -1 -10    5.29    0.32
   9  -1 -10    5.23    0.32
   9  -1  -9   24.45    0.77
   9   1  -9   23.82    0.76
   9   1  -9   23.58    0.83
   9   1  -9   23.78    0.86
   9  -1  -9   24.42    0.81
   9  -1  -9   21.07    0.62
   9   1  -9   24.98    0.83
   9  -1  -9   23.18    0.84
   9   1  -9   23.30    0.81
   9   1  -8    1.87    0.38
   9  -1  -8    1.90    0.46
   9   1  -8    1.99    0.44
   9   1  -8    1.62    0.43
   9  -1  -8    1.46    0.32
   9   1  -8    1.82    0.47
   9  -1  -8    1.41    0.42
   9  -1  -8    1.22    0.37
   9   1  -8    1.56    0.34
   9  -1  -8    1.61    0.35
   9   1  -8    1.93    0.46
   9  -1  -8    1.66    0.45
   9   1  -8    1.72    0.42
   9  -1  -7   11.24    0.85
   9   1  -7   11.79    0.79
   9  -1  -7   11.84    0.87
   9   1  -7   11.27    0.81
   9   1  -7   11.58    0.83
   9  -1  -7   10.90    0.67
   9  -1  -7    9.87    0.75
   9   1  -7   10.78    0.86
   9  -1  -7   10.93    0.80
   9   1  -7   10.62    0.71
   9  -1  -7   10.13    0.65
   9   1  -7   11.77    0.79
   9  -1  -7   10.72    0.84
   9   1  -7   10.87    0.80
   9  -1  -6   31.54    1.40
   9   1  -6   30.82    1.28
   9  -1  -6   31.16    1.37
   9   1  -6   30.90    1.33
   9   1  -6   30.30    1.28
   9  -1  -6   28.44    1.27
   9   1  -6   28.12    1.32
   9  -1  -6   30.74    1.30
   9   1  -6   26.76    1.13
   9   1  -6   30.05    1.25
   9  -1  -6   30.23    1.35
   9   1  -6   29.92    1.34
   9   1  -5   24.02    1.20
   9  -1  -5   22.94    1.24
   9   1  -5   22.13    1.23
   9   1  -5   23.60    1.19
   9  -1  -5   21.90    1.21
   9  -1  -5   21.99    1.17
   9   1  -5   20.83    1.01
   9   1  -5   20.18    1.05
   9   1  -5   22.40    1.13
   9  -1  -5   22.78    1.23
   9   1  -5   21.86    1.18
   9  -1  -4  145.77    2.98
   9   1  -4  150.10    2.99
   9  -1  -4  143.65    2.89
   9   1  -4  148.84    2.98
   9   1  -4  149.84    2.85
   9  -1  -4  145.95    2.99
   9  -1  -4  145.41    2.87
   9   1  -4  144.30    2.70
   9   1  -4  143.95    2.64
   9   1  -4  145.71    2.68
   9  -1  -4  143.10    2.92
   9   1  -4  144.74    2.94
   9  -1  -3   38.55    1.61
   9  -1  -3   37.80    1.58
   9   1  -3   39.47    1.52
   9  -1  -3   35.93    1.58
   9   1  -3   39.63    1.50
   9   1  -3   38.05    1.42
  -9   1   3   39.05    1.35
   9   1  -3   40.38    1.43
   9  -1  -3   38.29    1.58
   9   1  -3   40.18    1.62
   9  -1  -2   36.19    1.53
   9   1  -2   38.36    1.59
   9  -1  -2   34.94    1.47
   9   1  -2   36.09    1.58
   9   1  -2   39.48    1.50
   9  -1  -2   35.56    1.55
   9   1  -2   38.90    1.54
   9   1  -2   37.57    1.41
  -9   1   2   37.15    1.39
   9  -1  -2   37.80    1.56
   9   1  -2   36.81    1.56
   9  -1  -1  156.24    2.95
   9   1  -1  163.69    3.09
   9  -1  -1  160.84    2.94
   9   1  -1  162.90    3.15
   9   1  -1  163.12    3.07
   9   1  -1  163.18    2.84
  -9   1   1  159.98    2.89
   9  -1  -1  162.05    3.09
   9   1  -1  158.56    3.16
   9  -1   0   25.23    1.22
   9   1   0   24.29    1.27
   9  -1   0   23.86    1.17
   9   1   0   22.89    1.25
   9  -1   0   23.86    1.30
   9   1   0   25.80    1.30
   9   1   0   23.77    1.12
  -9  -1   0   23.96    1.29
  -9   1   0   23.78    1.23
  -9   1   0   22.72    1.11
   9  -1   0   25.25    1.29
   9   1   0   23.58    1.30
   9  -1   1   64.82    1.78
   9   1   1   63.38    1.89
   9  -1   1   67.62    1.79
   9   1   1   68.23    1.99
   9   1   1   63.57    1.91
   9  -1   1   67.66    2.05
   9   1   1   71.24    2.04
   9   1   1   67.34    1.82
  -9   1  -1   66.93    1.99
  -9   1  -1   65.47    1.82
   9   1   1   64.91    1.75
   9  -1   1   65.58    1.95
   9   1   1   59.02    1.93
   9   1   2   23.82    1.16
   9   1   2   24.56    1.22
   9   1   2   24.89    1.23
   9  -1   2   22.03    1.22
   9   1   2   24.42    1.25
   9   1   2   25.25    1.16
  -9  -1  -2   25.70    1.31
  -9   1  -2   22.23    1.23
  -9  -1  -2   24.37    1.32
   9  -1   2   24.34    1.30
  -9   1  -2   23.73    1.17
   9  -1   2   22.26    1.24
   9   1   2   22.66    1.10
   9  -1   2   25.59    1.25
   9   1   3  103.05    2.15
   9   1   3  100.94    2.28
   9  -1   3  101.86    2.45
   9   1   3   96.71    2.30
   9  -1   3  101.45    2.33
   9   1   3  101.65    2.16
  -9  -1  -3  107.20    2.40
  -9   1  -3   99.29    2.40
  -9  -1  -3  105.86    2.49
  -9   1  -3   95.41    2.24
   9  -1   3  104.66    2.42
   9   1   3   98.26    2.18
   9  -1   3  105.12    2.32
   9  -1   4  101.18    2.39
   9   1   4  103.82    2.34
   9  -1   4  102.36    2.22
   9   1   4  102.63    2.22
  -9  -1  -4  105.96    2.34
   9   1   4  106.65    2.16
  -9  -1  -4  102.92    2.42
  -9   1  -4  101.72    2.29
   9  -1   4  101.02    2.19
   9  -1   4  104.70    2.38
   9   1   4  100.12    2.17
   9  -1   5   23.94    1.16
   9   1   5   24.03    1.14
   9  -1   5   24.88    1.07
   9   1   5   26.67    1.16
   9   1   5   22.98    1.05
  -9  -1  -5   24.11    1.12
  -9   1  -5   25.57    1.22
   9   1   5   23.84    1.03
  -9   1  -5   23.09    1.14
   9  -1   5   24.44    1.10
   9  -1   5   25.41    1.18
   9   1   5   24.05    1.07
  -9  -1  -6    5.32    0.59
   9  -1   6    6.80    0.65
   9   1   6    6.53    0.63
   9  -1   6    6.55    0.54
   9   1   6    6.46    0.64
   9   1   6    5.79    0.58
  -9  -1  -6    5.73    0.56
  -9   1  -6    6.20    0.66
   9   1   6    6.14    0.55
  -9   1  -6    6.22    0.65
   9  -1   6    5.86    0.62
   9   1   6    5.93    0.49
   9   1   6    5.62    0.59
  -9  -1  -7    5.16    0.49
   9  -1   7    5.76    0.55
   9   1   7    6.00    0.52
   9   1   7    5.47    0.51
   9   1   7    6.04    0.49
  -9   1  -7    5.54    0.54
  -9  -1  -7    5.95    0.59
  -9   1  -7    4.68    0.56
   9  -1   7    5.71    0.53
   9   1   7    5.27    0.40
   9   1   7    5.53    0.52
   9  -1   8   12.85    0.55
   9   1   8   12.21    0.55
   9   1   8   10.51    0.46
  -9  -1  -8   12.69    0.59
  -9   1  -8   11.84    0.56
   9  -1   8   12.78    0.53
   9  -1   8   13.25    0.57
   9   1   8   12.04    0.53
   9  -2  -9    6.73    0.43
   9  -2  -9    6.32    0.44
   9  -2  -9    4.96    0.33
   9   2  -9    5.29    0.34
   9  -2  -9    5.94    0.38
   9  -2  -8    0.29    0.37
   9  -2  -8    0.64    0.38
   9   2  -8    0.19    0.26
   9   2  -8    0.35    0.35
   9   2  -8    0.32    0.34
   9  -2  -8    0.21    0.34
   9   2  -8    0.39    0.31
   9   2  -8    0.29    0.35
   9   2  -8    0.33    0.28
   9  -2  -7   14.78    0.93
   9   2  -7   16.28    0.77
   9  -2  -7   15.28    0.88
   9   2  -7   14.82    0.80
   9   2  -7   15.48    0.89
   9  -2  -7   15.10    0.88
   9   2  -7   15.58    0.86
   9  -2  -7   13.86    0.73
   9   2  -7   14.05    0.78
  -9   2   7   15.66    0.68
   9   2  -7   16.76    0.88
   9  -2  -7   14.90    0.83
   9   2  -7   15.17    0.81
   9   2  -6    2.87    0.52
   9   2  -6    3.34    0.55
   9  -2  -6    2.80    0.58
   9   2  -6    3.19    0.63
   9  -2  -6    3.68    0.65
   9   2  -6    3.36    0.62
   9  -2  -6    3.03    0.49
   9   2  -6    3.07    0.55
   9   2  -6    3.16    0.55
   9  -2  -6    2.72    0.54
   9   2  -6    3.12    0.54
   9  -2  -5    6.95    0.81
   9   2  -5    8.25    0.78
   9  -2  -5    6.96    0.75
   9   2  -5    6.21    0.72
   9   2  -5    7.64    0.79
   9  -2  -5    7.37    0.82
   9   2  -5    7.56    0.79
   9   2  -5    6.44    0.70
   9   2  -5    7.58    0.73
   9  -2  -5    6.65    0.71
   9   2  -5    6.61    0.72
   9  -2  -4   21.63    1.20
   9   2  -4   22.01    1.18
   9  -2  -4   21.38    1.15
   9   2  -4   21.86    1.17
   9   2  -4   22.35    1.20
   9   2  -4   21.42    1.11
   9   2  -4   21.18    1.12
   9  -2  -4   20.08    1.10
   9   2  -4   20.56    1.13
   9  -2  -3   85.14    2.21
   9   2  -3   90.72    2.29
   9  -2  -3   85.59    2.10
   9   2  -3   87.93    2.29
   9   2  -3   89.84    2.28
   9   2  -3   84.88    1.91
   9   2  -3   86.54    2.14
   9   2  -3   86.71    2.09
   9  -2  -3   88.86    2.19
   9   2  -3   88.28    2.22
   9  -2  -2  103.39    2.37
   9  -2  -2  105.83    2.26
   9   2  -2  107.21    2.54
   9  -2  -2  108.56    2.58
   9   2  -2  106.01    2.24
   9   2  -2  106.58    2.38
   9   2  -2  104.34    2.23
   9  -2  -2  108.55    2.39
   9   2  -2  106.19    2.46
   9  -2  -1   56.27    1.72
   9   2  -1   54.70    1.83
   9  -2  -1   57.10    1.90
   9   2  -1   57.22    1.65
   9   2  -1   56.12    1.69
   9   2  -1   60.79    1.80
  -9   2   1   58.31    1.71
   9   2  -1   58.37    1.64
   9  -2  -1   57.83    1.76
   9   2  -1   58.69    1.88
   9  -2   0  120.58    2.31
   9   2   0  120.77    2.65
   9  -2   0  126.91    2.66
   9   2   0  120.47    2.39
   9   2   0  121.85    2.51
   9   2   0  124.33    2.52
  -9   2   0  117.33    2.47
   9  -2   0  121.27    2.46
   9   2   0  120.75    2.66
   9   2   1   71.29    1.99
   9   2   1   72.94    2.06
   9  -2   1   69.97    2.05
   9   2   1   70.32    1.85
   9  -2   1   73.01    2.05
   9   2   1   69.94    1.96
   9   2   1   71.82    1.93
  -9  -2  -1   76.26    2.08
  -9   2  -1   69.65    1.97
   9  -2   1   73.68    1.90
   9   2   1   73.10    2.08
   9   2   2   38.75    1.46
   9   2   2   39.21    1.52
   9  -2   2   39.77    1.52
   9   2   2   39.56    1.41
   9  -2   2   39.45    1.46
   9   2   2   40.44    1.51
   9   2   2   41.09    1.45
  -9  -2  -2   42.63    1.56
  -9   2  -2   38.74    1.53
   9   2   2   40.88    1.54
   9  -2   2   35.61    1.29
   9   2   3    8.78    0.76
   9   2   3    9.20    0.82
   9  -2   3    8.98    0.83
   9   2   3    9.74    0.77
   9  -2   3    9.09    0.76
   9   2   3    9.03    0.79
   9   2   3    8.44    0.75
  -9  -2  -3    9.76    0.85
  -9   2  -3    8.45    0.85
  -9  -2  -3    9.41    0.91
  -9   2  -3    8.45    0.70
   9   2   4   14.86    0.84
   9  -2   4   15.10    0.92
   9   2   4   14.57    0.87
   9  -2   4   16.71    0.86
   9   2   4   15.30    0.96
   9   2   4   16.68    0.96
  -9  -2  -4   16.18    0.93
  -9   2  -4   14.44    1.01
  -9  -2  -4   16.57    1.03
  -9   2  -4   13.67    0.82
   9   2   4   15.40    0.79
   9  -2   5   25.40    1.08
   9   2   5   25.42    1.03
   9   2   5   25.71    1.11
   9  -2   5   26.70    1.14
  -9  -2  -5   24.68    0.98
   9   2   5   25.33    1.06
  -9  -2  -5   27.11    1.20
  -9   2  -5   23.26    0.98
   9  -2   5   26.04    1.12
   9  -2   5   27.12    1.15
   9   2   5   24.26    0.92
   9  -2   6   14.23    0.75
   9   2   6   13.51    0.73
   9  -2   6   14.99    0.82
  -9   2  -6   14.74    0.87
   9   2   6   14.94    0.78
  -9  -2  -6   14.72    0.85
  -9   2  -6   13.58    0.71
   9  -2   6   15.87    0.84
   9  -2   6   15.62    0.82
   9   2   6   13.94    0.66
   9   2   6   15.74    0.79
   9   2   7   23.77    0.66
  -9  -2  -7   28.00    0.91
   9  -2   7   25.93    0.79
   9   2   7   25.74    0.77
   9  -2   7   27.05    0.90
   9   2   7   27.81    0.92
  -9   2  -7   28.43    0.94
  -9  -2  -7   26.81    0.89
  -9   2  -7   23.67    0.73
   9  -2   7   27.08    0.88
   9   2   7   22.77    0.68
   9  -2   8    2.66    0.26
   9  -3  -8    6.32    0.49
   9  -3  -8    6.64    0.49
   9   3  -8    6.81    0.45
   9  -3  -7   32.92    1.11
   9  -3  -7   32.35    0.98
   9   3  -7   36.42    1.11
   9  -3  -7   30.52    1.07
   9   3  -7   33.24    1.04
  -9   3   7   34.05    0.89
   9   3  -7   35.23    1.08
   9  -3  -6  133.61    2.34
   9   3  -6  138.31    2.02
   9  -3  -6  130.15    2.08
   9   3  -6  136.27    2.02
   9   3  -6  135.91    2.35
   9   3  -6  126.82    2.17
  -9   3   6  131.69    1.92
   9   3  -6  140.86    2.33
   9  -3  -5  154.23    2.64
   9   3  -5  156.45    2.44
   9  -3  -5  143.16    2.28
   9   3  -5  150.76    2.40
   9  -3  -5  144.94    2.63
   9   3  -5  147.70    2.52
  -9   3   5  151.67    2.21
   9   3  -5  156.27    2.58
   9   3  -5  147.79    2.23
   9  -3  -4   99.83    2.19
   9   3  -4  104.58    2.17
   9  -3  -4   96.01    1.88
   9   3  -4  100.22    2.12
   9  -3  -4  101.56    2.30
   9   3  -4  100.92    2.16
  -9   3   4   97.64    1.85
   9   3  -4  102.10    2.18
   9   3  -4  101.24    1.99
   9  -3  -3   12.68    0.90
   9   3  -3   13.45    0.92
   9   3  -3   14.45    0.94
   9  -3  -3   13.19    1.00
   9   3  -3   13.51    0.94
  -9   3   3   13.57    0.78
   9   3  -3   13.99    0.92
   9   3  -3   13.79    0.85
   9  -3  -2   33.88    1.29
   9   3  -2   35.46    1.43
   9   3  -2   36.71    1.42
   9  -3  -2   31.85    1.35
   9   3  -2   37.56    1.42
   9   3  -2   35.72    1.35
   9   3  -2   35.37    1.31
   9   3  -1   12.90    0.97
   9   3  -1   13.26    0.94
   9  -3  -1   11.98    0.91
   9   3  -1   11.69    0.74
   9   3  -1   13.43    0.95
   9   3  -1   12.81    0.86
   9   3  -1   12.07    0.85
   9   3   0   31.06    1.37
   9  -3   0   30.55    1.30
   9   3   0   31.48    1.18
   9   3   0   29.83    1.30
  -9   3   0   30.35    1.21
   9   3   0   34.56    1.33
   9   3   1   74.33    1.99
   9   3   1   72.46    2.01
   9  -3   1   76.07    1.92
   9  -3   1   73.43    1.86
   9   3   1   76.75    1.86
   9   3   1   77.56    1.95
  -9   3  -1   72.87    1.88
   9   3   2   62.04    1.75
   9  -3   2   63.94    1.70
   9  -3   2   60.18    1.56
   9   3   2   61.51    1.70
   9   3   2   66.75    1.76
  -9  -3  -2   64.29    1.72
  -9   3  -2   58.95    1.73
  -9  -3  -2   65.89    1.84
   9   3   3   24.82    1.09
   9  -3   3   28.00    1.09
   9   3   3   25.26    1.11
   9   3   3   27.82    1.16
  -9  -3  -3   25.93    1.07
  -9   3  -3   24.19    1.14
  -9  -3  -3   26.74    1.19
   9  -3   3   25.96    1.21
   9   3   4   25.26    1.00
   9  -3   4   27.33    1.00
   9  -3   4   28.83    1.12
   9   3   4   26.84    1.08
   9   3   4   28.64    1.12
  -9  -3  -4   28.20    0.98
  -9   3  -4   26.54    1.15
  -9  -3  -4   27.07    1.12
   9  -3   4   27.53    1.14
   9  -3   5    8.74    0.53
   9  -3   5    8.67    0.62
   9   3   5    9.87    0.70
   9   3   5   10.09    0.68
  -9   3  -5    9.13    0.73
  -9  -3  -5    9.77    0.68
   9  -3   5   10.43    0.73
   9  -3   5   10.06    0.69
   9   3   5   10.07    0.70
   9   3   6   79.55    1.43
   9   3   6   62.85    1.04
   9  -3   6   72.06    1.32
   9   3   6   75.90    1.46
  -9   3  -6   72.88    1.53
   9   3   6   80.23    1.49
  -9  -3  -6   75.80    1.35
   9  -3   6   86.21    1.54
   9  -3   6   83.72    1.44
  -9  -3  -7   12.41    0.53
  -9   3  -7   12.49    0.53
   9  -3   7   13.88    0.52
   9  -4  -7   10.51    0.52
   9  -4  -7   11.17    0.54
   9  -4  -6   42.27    1.10
   9  -4  -6   45.00    1.18
  -9   4   6   40.64    0.92
   9   4  -6   44.32    1.12
   9  -4  -5    0.54    0.38
   9   4  -5    0.82    0.28
   9  -4  -5    0.68    0.43
  -9   4   5    0.94    0.35
   9   4  -5    1.02    0.43
   9  -4  -4    7.84    0.61
   9   4  -4    8.25    0.60
   9   4  -4    7.98    0.53
   9  -4  -4    8.49    0.68
  -9   4   4    8.55    0.59
   9   4  -4    8.99    0.69
   9  -4  -3    0.44    0.35
   9   4  -3    0.31    0.37
   9   4  -3    0.55    0.35
   9  -4  -3    0.71    0.46
  -9   4   3    0.77    0.41
   9   4  -3    0.28    0.41
   9   4  -2   11.15    0.77
   9   4  -2   10.02    0.69
   9  -4  -2   10.01    0.74
  -9   4   2   10.23    0.67
   9   4  -2   10.68    0.74
   9   4  -1   53.64    1.56
   9   4  -1   51.94    1.47
   9  -4  -1   45.94    1.25
   9  -4  -1   50.11    1.39
  -9   4   1   48.34    1.26
   9   4   0   28.83    1.22
   9   4   0   29.38    1.16
   9  -4   0   26.44    0.93
   9  -4   0   25.59    0.97
  -9   4   0   27.60    0.94
  -9   4   0   27.84    0.97
  -9  -4  -1    3.92    0.55
  -9   4  -1    3.78    0.48
   9   4   2   16.30    0.87
   9   4   2   13.56    0.68
  -9  -4  -2   14.53    0.76
  -9   4  -2   13.97    0.76
  -9   4  -2   14.62    0.71
  -9  -4  -2   16.14    0.85
   9  -4   2   15.44    0.87
   9  -4   3    1.30    0.44
   9   4   3    1.55    0.42
   9   4   3    1.39    0.46
   9   4   3    1.37    0.35
   9  -4   3    1.44    0.32
  -9  -4  -3    1.23    0.31
  -9   4  -3    1.37    0.41
  -9  -4  -3    1.40    0.41
   9   4   4   30.93    0.96
   9   4   4   33.02    0.92
  -9   4  -4   31.64    1.01
  -9  -4  -4   34.17    0.93
   9  -4   4   34.12    0.97
  -9   4  -5   23.33    0.78
   9  -4   5   20.30    0.59
   9   4   6    0.38    0.20
  -9  -4  -6    0.46    0.20
   9   5  -5    4.36    0.31
   9   5  -4    1.49    0.28
  -9   5   4    1.04    0.25
   9   5  -3    2.15    0.27
   9   5  -3    3.14    0.38
  -9   5   3    2.30    0.34
   9   5  -2    0.73    0.30
   9   5  -2    0.67    0.31
  -9   5   2    0.70    0.30
   9   5  -1   12.72    0.66
   9   5  -1   13.23    0.66
  -9   5   1   10.97    0.55
   9   5   0    3.43    0.45
   9   5   0    3.59    0.44
  -9  -5   0    3.16    0.40
  -9   5   0    2.72    0.34
  -9   5   0    2.72    0.36
  -9  -5   0    3.44    0.39
   9   5   1   18.79    0.62
   9   5   1   21.26    0.84
   9   5   1   23.62    0.82
  -9  -5  -1   13.50    0.51
  -9   5  -1   18.26    0.61
  -9   5  -1   14.89    0.53
  -9  -5  -1   20.32    0.65
   9  -5   2    0.89    0.24
   9   5   2    0.91    0.27
   9   5   2    1.06    0.30
   9   5   3    0.76    0.25
   9   5   3    0.83    0.25
   9  -5   4    6.41    0.36
  10   0  -8   73.94    1.11
  10   0  -8   72.60    1.27
  10   0  -7   49.70    1.22
  10   0  -6   10.28    0.73
  10   0  -6    9.81    0.58
  10   0  -6    9.74    0.61
  10   0  -5   55.59    1.60
  10   0  -5   57.94    1.63
  10   0  -5   53.86    1.45
  10   0  -4    9.70    0.83
  10   0  -4   11.70    0.83
 -10   0   4   10.47    0.65
  10   0  -4   11.69    0.89
  10   0  -3   44.69    1.55
  10   0  -3   40.30    1.48
  10   0  -3   39.10    1.44
 -10   0   3   40.76    1.29
  10   0  -3   42.14    1.53
  10   0  -2   44.33    1.55
  10   0  -2   42.46    1.48
  10   0  -2   42.52    1.55
 -10   0   2   42.07    1.39
  10   0  -2   41.58    1.54
  10   0  -1   24.13    1.16
  10   0  -1   22.76    1.12
  10   0  -1   24.29    1.22
 -10   0   1   25.26    1.16
 -10   0   1   23.78    1.07
  10   0  -1   22.05    1.00
  10   0  -1   23.76    1.24
  10   0   0    0.64    0.45
  10   0   0    0.15    0.43
  10   0   0    0.35    0.45
  10   0   0    0.38    0.48
  10   0   0    0.74    0.55
 -10   0   0    0.26    0.54
 -10   0   0    0.28    0.44
  10   0   0    0.14    0.49
  10   0   1    1.13    0.47
  10   0   1    1.00    0.42
  10   0   1    1.61    0.47
  10   0   1    1.46    0.53
 -10   0  -1    1.63    0.57
 -10   0  -1    1.17    0.51
  10   0   1    1.36    0.52
  10   0   2  122.02    2.14
  10   0   2  119.87    2.40
  10   0   2  113.82    2.31
 -10   0  -2  116.07    2.42
 -10   0  -2  122.55    2.33
  10   0   2  121.84    2.26
  10   0   2  123.83    2.43
  10   0   3  127.18    2.41
  10   0   3  126.67    2.35
 -10   0  -3  122.85    2.33
  10   0   3  125.55    2.22
  10   0   4  103.65    2.04
  10   0   4   98.87    1.94
  10   0   4  100.28    1.99
 -10   0  -4  103.96    2.05
 -10   0  -4   97.77    1.98
  10   0   4  103.05    1.94
  10   0   5   72.04    1.57
  10   0   5   70.12    1.49
  10   0   5   67.83    1.50
 -10   0  -5   73.11    1.55
 -10   0  -5   66.41    1.54
  10   0   5   70.92    1.49
  10   0   6   16.78    0.70
  10   0   6   14.86    0.59
  10   0   6   15.46    0.65
 -10   0  -6   15.21    0.62
 -10   0  -6   14.99    0.69
  10   0   6   16.17    0.66
  10  -1  -8   15.41    0.56
  10  -1  -8   14.48    0.57
  10   1  -8   14.14    0.52
  10  -1  -8   14.87    0.57
  10   1  -8   14.20    0.53
  10  -1  -7   19.21    0.80
  10   1  -7   20.52    0.75
  10  -1  -7   18.37    0.79
  10   1  -7   19.17    0.78
  10   1  -7   19.66    0.74
  10   1  -7   16.89    0.62
  10  -1  -7   18.95    0.78
  10   1  -7   19.30    0.79
  10   1  -6   12.65    0.73
  10  -1  -6   10.67    0.72
  10   1  -6   10.65    0.72
  10   1  -6   10.98    0.67
  10  -1  -6   10.44    0.68
  10   1  -6   10.06    0.58
  10  -1  -6   10.79    0.72
  10   1  -6   11.47    0.72
  10  -1  -5    8.83    0.74
  10   1  -5   10.04    0.75
  10  -1  -5    9.81    0.74
  10   1  -5    8.94    0.74
  10   1  -5    8.62    0.67
  10  -1  -5    8.45    0.71
  10   1  -5    8.13    0.54
  10   1  -5    8.82    0.55
 -10  -1   5    8.37    0.56
  10   1  -5    9.51    0.60
  10  -1  -5    8.46    0.71
  10   1  -5    9.48    0.74
  10  -1  -4    0.28    0.48
  10   1  -4    1.02    0.52
  10  -1  -4    0.64    0.46
  10  -1  -4    0.69    0.51
  10   1  -4    0.83    0.41
 -10  -1   4    0.73    0.43
  10   1  -4    0.49    0.34
  10  -1  -4    0.32    0.41
  10   1  -4    0.46    0.47
  10  -1  -3   24.64    1.18
  10  -1  -3   24.96    1.13
  10   1  -3   21.42    1.14
  10  -1  -3   26.25    1.23
  10   1  -3   25.81    1.09
  10   1  -3   23.75    0.96
 -10  -1   3   24.62    1.10
  10  -1  -3   26.16    1.20
  10   1  -3   27.10    1.21
  10  -1  -2   13.73    0.92
  10   1  -2   13.69    0.97
  10  -1  -2   12.87    0.88
  10   1  -2   13.96    0.98
  10  -1  -2   13.93    0.99
  10   1  -2   13.33    0.88
  10   1  -2   13.07    0.76
 -10  -1   2   13.47    0.93
 -10   1   2   14.03    0.81
  10  -1  -2   12.89    0.90
  10   1  -2   13.09    0.95
  10  -1  -1  102.28    2.14
  10   1  -1  101.35    2.27
  10  -1  -1  100.74    2.07
  10   1  -1  103.24    2.27
  10   1  -1   97.81    2.15
  10   1  -1   99.76    2.19
  10   1  -1   97.77    1.91
 -10  -1   1   98.71    2.19
 -10   1   1   96.99    2.05
  10  -1  -1   96.76    2.19
  10   1  -1   98.52    2.31
  10  -1   0   22.64    1.02
  10   1   0   23.89    1.13
  10  -1   0   22.83    1.01
  10   1   0   24.22    1.15
  10   1   0   24.87    1.11
  10  -1   0   25.05    1.20
  10   1   0   24.77    1.16
  10   1   0   24.40    1.00
 -10  -1   0   23.22    1.16
 -10   1   0   22.56    1.08
  10  -1   0   24.55    1.15
  10  -1   0   23.97    1.13
  10   1   0   22.03    1.15
  10   1   1    4.08    0.58
  10   1   1    3.81    0.60
  10   1   1    3.84    0.57
  10  -1   1    3.74    0.61
  10   1   1    4.12    0.63
  10   1   1    3.68    0.49
 -10   1  -1    3.38    0.62
 -10  -1  -1    3.31    0.62
 -10   1  -1    3.29    0.49
  10  -1   1    3.78    0.63
  10  -1   1    3.17    0.56
  10   1   2    6.26    0.60
  10   1   2    6.35    0.64
  10   1   2    6.70    0.67
  10  -1   2    5.89    0.67
  10   1   2    7.58    0.73
  10   1   2    6.24    0.57
 -10  -1  -2    6.18    0.73
 -10   1  -2    7.00    0.74
 -10  -1  -2    6.46    0.73
 -10   1  -2    5.84    0.59
  10  -1   2    6.44    0.69
  10   1   2    5.92    0.55
  10  -1   2    6.54    0.65
  10  -1   3   34.56    1.29
  10   1   3   33.60    1.22
  10  -1   3   34.32    1.21
  10   1   3   33.83    1.15
 -10  -1  -3   34.77    1.26
 -10   1  -3   34.25    1.31
  10   1   3   35.31    1.06
 -10  -1  -3   32.37    1.30
 -10   1  -3   31.77    1.13
  10  -1   3   33.43    1.23
  10   1   3   34.58    1.08
  10  -1   4    8.84    0.70
  10   1   4    8.00    0.64
  10  -1   4    9.02    0.64
  10  -1   4    8.29    0.69
  10   1   4    7.93    0.60
 -10  -1  -4    8.40    0.68
  10   1   4    7.98    0.52
 -10  -1  -4    8.37    0.72
 -10   1  -4    7.46    0.61
  10  -1   4    8.18    0.52
  10  -1   4    8.11    0.67
  10   1   4    8.17    0.56
 -10  -1  -5    1.23    0.29
  10   1   5    2.14    0.38
  10  -1   5    2.15    0.40
  10  -1   5    2.35    0.36
  10   1   5    2.03    0.40
  10   1   5    2.06    0.33
  10  -1   5    1.60    0.41
 -10  -1  -5    2.35    0.41
 -10   1  -5    2.03    0.45
 -10  -1  -5    2.24    0.46
 -10   1  -5    1.71    0.38
  10  -1   5    1.51    0.29
  10  -1   5    2.45    0.44
  10   1   5    1.93    0.34
  10  -1   6    4.49    0.41
  10   1   6    4.22    0.37
  10  -1   6    4.18    0.40
  10   1   6    4.14    0.39
 -10   1  -6    4.06    0.41
 -10   1  -6    3.72    0.34
  10  -1   6    5.01    0.43
  10   1   6    3.63    0.30
  10  -2  -7   14.00    0.58
  10   2  -7   13.78    0.53
  10  -2  -7   14.06    0.60
  10   2  -7   13.47    0.53
  10  -2  -7   12.37    0.51
  10   2  -7   13.43    0.50
  10  -2  -6   17.41    0.81
  10   2  -6   18.39    0.74
  10  -2  -6   17.19    0.74
  10   2  -6   18.15    0.78
  10  -2  -6   18.02    0.85
  10   2  -6   15.81    0.66
  10   2  -6   18.73    0.73
  10  -2  -6   18.03    0.75
  10   2  -6   17.93    0.73
  10  -2  -5   46.43    1.34
  10   2  -5   46.48    1.29
  10  -2  -5   45.18    1.23
  10   2  -5   47.82    1.32
  10  -2  -5   46.27    1.36
  10   2  -5   43.57    1.17
 -10  -2   5   43.10    1.13
  10   2  -5   46.27    1.18
  10  -2  -5   43.90    1.22
  10   2  -5   47.81    1.28
  10  -2  -4   33.43    1.21
  10   2  -4   33.91    1.22
  10  -2  -4   31.18    1.08
  10   2  -4   33.29    1.21
  10   2  -4   30.66    1.08
  10   2  -4   31.72    1.04
  10  -2  -4   32.77    1.13
  10   2  -4   32.59    1.16
  10  -2  -3    7.65    0.70
  10   2  -3    8.01    0.74
  10  -2  -3    7.67    0.61
  10   2  -3    9.14    0.78
  10   2  -3    8.05    0.65
  10   2  -3    8.80    0.62
  10  -2  -3    7.66    0.65
  10   2  -3    8.69    0.72
  10  -2  -2  108.95    2.09
  10   2  -2  110.61    2.28
  10  -2  -2  105.78    2.26
  10   2  -2  109.11    1.96
  10   2  -2  106.88    2.06
 -10  -2   2  109.46    2.21
  10  -2  -2  105.46    2.05
  10   2  -2  113.90    2.28
  10  -2  -1   37.35    1.20
  10   2  -1   39.94    1.42
  10  -2  -1   38.99    1.44
  10   2  -1   36.16    1.11
  10   2  -1   38.15    1.25
  10   2  -1   37.96    1.25
 -10  -2   1   39.55    1.41
 -10   2   1   36.67    1.16
  10  -2  -1   38.52    1.27
  10   2  -1   42.34    1.44
  10   2   0   53.93    1.60
  10   2   0   53.32    1.60
  10  -2   0   52.43    1.61
  10   2   0   49.69    1.33
  10  -2   0   50.63    1.58
  10   2   0   50.70    1.49
  10   2   0   52.22    1.46
 -10   2   0   50.11    1.43
  10   2   0   55.00    1.61
  10  -2   0   50.64    1.40
  10   2   1   48.22    1.47
  10   2   1   48.45    1.52
  10  -2   1   49.74    1.51
  10   2   1   46.63    1.30
  10  -2   1   46.67    1.45
  10   2   1   47.09    1.41
  10   2   1   48.27    1.39
 -10  -2  -1   49.02    1.49
 -10   2  -1   46.84    1.43
 -10  -2  -1   50.07    1.56
  10  -2   1   47.79    1.54
  10   2   1   48.94    1.51
  10  -2   1   48.61    1.30
  10   2   2   23.47    1.00
  10   2   2   23.52    1.04
  10  -2   2   23.04    1.04
  10   2   2   23.21    0.91
  10  -2   2   22.40    0.98
  10   2   2   22.32    1.01
  10   2   2   24.66    0.99
 -10  -2  -2   24.49    1.05
 -10   2  -2   23.38    1.06
  10  -2   2   22.43    0.88
  10  -2   2   24.02    1.08
  10   2   3   20.07    0.82
  10  -2   3   19.85    0.92
  10   2   3   19.00    0.82
  10  -2   3   19.29    0.82
  10   2   3   19.68    0.93
 -10  -2  -3   19.39    0.89
  10   2   3   19.65    0.86
 -10   2  -3   19.14    0.95
  10  -2   3   19.61    0.81
  10  -2   3   20.82    0.96
  10  -2   4   30.51    1.01
  10   2   4   29.17    0.89
  10  -2   4   27.86    0.80
  10   2   4   32.23    1.07
  10  -2   4   30.77    1.08
 -10  -2  -4   31.14    0.98
 -10   2  -4   29.67    1.09
  10   2   4   31.59    0.97
 -10  -2  -4   31.81    1.10
  10  -2   4   31.80    0.92
 -10  -2  -5    4.12    0.42
  10  -2   5    4.97    0.42
  10  -2   5    5.25    0.47
  10   2   5    5.12    0.46
 -10  -2  -5    4.14    0.32
  10   2   5    4.90    0.38
 -10  -2  -5    5.85    0.51
  10  -2   5    5.34    0.40
  10   2   5    5.02    0.45
  10  -2   6    0.24    0.21
  10  -2   6    0.10    0.18
 -10   2  -6    0.28    0.23
 -10  -2  -6    0.15    0.19
  10  -3  -6   10.49    0.54
  10   3  -6    9.88    0.48
  10   3  -6   10.64    0.49
  10  -3  -5   25.23    0.86
  10   3  -5   26.99    0.81
  10   3  -5   26.15    0.79
  10  -3  -5   25.61    0.93
  10   3  -5   24.67    0.83
  10   3  -5   26.76    0.83
  10  -3  -4    9.80    0.61
  10   3  -4   10.98    0.65
  10   3  -4    9.83    0.60
  10  -3  -4    9.96    0.70
  10   3  -4    9.45    0.61
  10   3  -4   10.06    0.60
  10   3  -4    9.33    0.51
  10  -3  -3    1.38    0.38
  10   3  -3    1.34    0.43
  10   3  -3    0.94    0.39
  10  -3  -3    1.13    0.43
  10   3  -3    0.98    0.37
  10   3  -3    1.15    0.36
  10   3  -3    1.40    0.34
  10   3  -2   21.63    0.99
  10   3  -2   20.93    0.94
  10  -3  -2   19.66    0.96
  10   3  -2   21.28    0.92
  10   3  -2   21.75    0.86
  10   3  -1    2.64    0.50
  10  -3  -1    2.67    0.47
  10   3  -1    3.07    0.50
  10  -3  -1    2.15    0.48
  10   3  -1    2.35    0.43
  10   3   0   36.00    1.25
  10   3   0   36.79    1.23
  10  -3   0   37.79    1.18
  10  -3   0   35.53    1.14
  10   3   0   36.41    1.00
  10   3   0   39.31    1.22
 -10  -3   0   37.48    1.25
  10   3   1   46.06    1.32
  10  -3   1   41.97    1.19
  10  -3   1   41.04    1.11
  10   3   1   42.39    1.12
  10   3   1   44.05    1.25
 -10  -3  -1   44.38    1.27
 -10   3  -1   41.97    1.13
 -10  -3  -1   43.42    1.32
  10   3   2    3.62    0.48
  10  -3   2    3.92    0.44
  10  -3   2    3.42    0.36
  10   3   2    3.61    0.43
  10   3   2    4.36    0.50
 -10  -3  -2    3.98    0.48
 -10   3  -2    3.24    0.45
 -10  -3  -2    4.06    0.54
  10  -3   3    0.03    0.35
  10   3   3   -0.03    0.29
  10  -3   3    0.27    0.25
  10   3   3    0.02    0.30
  10  -3   3    0.23    0.29
 -10  -3  -3    0.36    0.29
 -10   3  -3    0.10    0.33
  10   3   3    0.31    0.34
 -10  -3  -3    0.45    0.36
  10  -3   3   -0.01    0.34
  10  -3   4    7.10    0.45
  10   3   4    7.16    0.46
 -10   3  -4    7.14    0.50
  10   3   4    7.93    0.49
 -10  -3  -4    7.83    0.51
  10  -3   4    6.99    0.45
  10  -3   4    7.50    0.50
  10   3   4    7.49    0.52
  10   3   5   15.29    0.52
 -10  -3  -5   13.52    0.50
  10   3   5   12.90    0.47
 -10   3  -5   14.86    0.53
  10   3   5   12.85    0.46
  10   4  -5    6.63    0.34
  10  -4  -4    0.58    0.24
 -10  -4   4    0.82    0.28
  10   4  -4    1.01    0.27
  10   4  -3    0.08    0.23
  10  -4  -3    0.18    0.23
  10   4  -3    0.15    0.25
  10   4  -2    0.53    0.30
  10  -4  -2    0.47    0.23
 -10  -4   2    0.39    0.33
  10   4  -2    0.51    0.31
  10   4  -1   21.33    0.81
  10   4  -1   22.06    0.80
 -10  -4   1   21.10    0.79
  10   4   0   18.53    0.75
 -10  -4   0   17.96    0.72
 -10  -4   0   19.54    0.78
  10  -4   0   18.99    0.81
  10   4   1   25.28    0.85
  10  -4   1   19.12    0.58
 -10  -4  -1   20.93    0.68
 -10  -4  -1   27.00    0.84
  10  -4   1   25.76    0.86
  10   4   1   24.70    0.74
  10   4   2    3.52    0.36
  10   4   2    3.34    0.36
  10   4   2    3.50    0.38
 -10  -4  -2    3.27    0.33
  10  -4   2    3.07    0.36
  10   4   3   17.01    0.56
  10   4   3   15.66    0.55
  11   0  -6    1.16    0.24
  11   0  -6    0.91    0.23
  11   0  -5    3.40    0.39
  11   0  -5    2.91    0.33
  11   0  -5    2.78    0.27
  11   0  -5    3.68    0.40
  11   0  -4   19.69    0.81
  11   0  -4   17.93    0.77
  11   0  -4   16.54    0.73
  11   0  -4   17.20    0.69
  11   0  -4   18.10    0.79
  11   0  -3    2.55    0.46
  11   0  -3    2.25    0.41
  11   0  -3    2.06    0.39
  11   0  -3    2.58    0.41
 -11   0   3    2.14    0.31
  11   0  -3    2.80    0.47
  11   0  -2    2.87    0.46
  11   0  -2    2.51    0.44
  11   0  -2    2.32    0.43
  11   0  -2    3.11    0.48
 -11   0   2    2.66    0.40
  11   0  -2    2.95    0.49
  11   0  -1    0.02    0.34
  11   0  -1   -0.06    0.33
  11   0  -1    0.25    0.36
  11   0  -1    0.11    0.37
 -11   0   1    0.21    0.34
  11   0  -1    0.11    0.37
  11   0   0   10.94    0.60
  11   0   0   11.25    0.61
  11   0   0   10.91    0.68
  11   0   0   11.50    0.72
 -11   0   0   11.34    0.69
 -11   0   0   11.09    0.59
  11   0   0   10.91    0.70
  11   0   1    9.79    0.52
  11   0   1    9.33    0.62
 -11   0  -1    9.33    0.66
 -11   0  -1    9.76    0.57
  11   0   2    0.95    0.26
  11   0   2    1.06    0.36
  11   0   2    1.28    0.37
  11   0   2    1.28    0.33
 -11   0  -2    1.10    0.41
 -11   0  -2    1.06    0.33
  11   0   3    1.99    0.35
  11   0   3    2.21    0.36
  11   0   3    1.78    0.32
 -11   0  -3    1.55    0.31
  11   0   3    1.57    0.25
  11   0   4    5.77    0.39
  11   0   4    6.19    0.39
  11   0   4    5.71    0.34
 -11   0  -4    6.09    0.42
 -11   0  -4    5.44    0.33
  11   1  -6    6.31    0.32
  11   1  -6    5.82    0.35
  11   1  -6    6.15    0.34
  11  -1  -5   10.72    0.55
  11   1  -5   10.95    0.54
  11  -1  -5    9.66    0.48
  11  -1  -5   10.11    0.50
  11  -1  -5    9.85    0.51
  11   1  -5   10.34    0.54
  11  -1  -4   34.35    0.99
  11  -1  -4   31.67    0.89
  11  -1  -4   33.30    0.97
  11  -1  -4   34.22    0.97
  11   1  -4   33.32    0.99
  11  -1  -3   10.36    0.61
  11   1  -3   10.35    0.66
  11  -1  -3   10.09    0.55
  11   1  -3   11.11    0.66
  11   1  -3    8.76    0.49
  11  -1  -3   10.15    0.65
  11   1  -3   10.34    0.53
 -11  -1   3   10.45    0.56
 -11  -1   3    9.54    0.51
  11  -1  -3   10.39    0.62
  11   1  -3   11.09    0.67
  11  -1  -2   13.55    0.68
  11   1  -2   13.78    0.74
  11  -1  -2   12.49    0.60
  11   1  -2   13.66    0.73
  11  -1  -2   12.91    0.74
  11   1  -2   12.56    0.63
  11  -1  -2   12.66    0.74
  11   1  -2   13.79    0.68
 -11  -1   2   14.18    0.71
 -11  -1   2   13.93    0.66
  11  -1  -2   13.97    0.72
  11   1  -2   12.52    0.74
  11  -1  -1   21.03    0.76
  11   1  -1   22.51    0.89
  11   1  -1   21.32    0.88
  11  -1  -1   19.78    0.87
  11   1  -1   22.32    0.83
  11   1  -1   22.29    0.86
 -11  -1   1   22.21    0.89
 -11   1   1   21.71    0.78
 -11  -1   1   22.61    0.84
  11  -1  -1   21.76    0.78
  11   1  -1   22.21    0.93
  11  -1  -1   22.18    0.88
  11   1   0   51.28    1.23
  11   1   0   52.92    1.30
  11   1   0   50.16    1.21
  11  -1   0   49.38    1.31
  11   1   0   51.85    1.29
 -11  -1   0   52.20    1.31
 -11  -1   0   51.60    1.27
  11  -1   0   50.56    1.17
  11  -1   0   52.69    1.26
  11   1   1   33.20    0.90
  11   1   1   33.27    0.97
  11   1   1   32.68    0.97
  11  -1   1   32.67    1.04
  11   1   1   34.56    1.05
 -11  -1  -1   33.88    1.07
 -11   1  -1   32.42    1.01
 -11  -1  -1   34.92    1.04
  11  -1   1   32.00    0.95
  11   1   2   30.90    0.90
  11  -1   2   31.98    0.95
  11   1   2   31.57    0.98
  11  -1   2   32.31    1.00
 -11   1  -2   30.66    0.97
 -11  -1  -2   32.10    0.98
  11  -1   2   32.51    0.92
  11  -1   3   60.74    1.25
  11   1   3   57.74    1.09
  11  -1   3   60.32    1.13
  11   1   3   57.90    1.19
  11  -1   3   61.69    1.25
 -11  -1  -3   63.70    1.23
 -11   1  -3   62.42    1.25
 -11  -1  -3   61.55    1.22
  11  -1   3   61.09    1.14
  11  -1   4   25.54    0.69
  11  -1   4   25.65    0.69
 -11  -1  -4   21.95    0.59
 -11  -1  -4   23.26    0.65
  11  -1   4   24.49    0.62
  11  -2  -5   14.89    0.49
  11   2  -5   16.19    0.50
  11   2  -5   14.83    0.49
  11  -2  -5   15.09    0.54
  11  -2  -5   15.01    0.53
  11  -2  -4    3.28    0.32
  11   2  -4    3.88    0.38
  11   2  -4    3.92    0.38
  11  -2  -4    4.24    0.39
  11  -2  -4    3.41    0.39
 -11  -2   4    2.80    0.27
 -11  -2   4    3.38    0.31
  11   2  -4    3.45    0.33
  11  -2  -3    8.73    0.45
  11   2  -3   10.17    0.58
  11   2  -3    9.64    0.59
  11  -2  -3   10.01    0.59
  11   2  -3    7.72    0.37
 -11  -2   3    9.77    0.52
  11  -2  -3    8.25    0.43
  11   2  -3   10.25    0.54
  11   2  -2   34.75    1.01
  11  -2  -2   34.29    1.03
  11  -2  -2   34.52    1.02
 -11  -2   2   33.56    0.97
 -11  -2   2   35.93    0.99
  11  -2  -2   32.53    0.90
  11   2  -2   35.32    0.99
  11   2  -1  121.56    1.85
  11   2  -1  119.95    1.85
  11  -2  -1  119.59    1.88
  11  -2  -1  119.05    1.83
  11   2  -1  113.07    1.48
  11   2  -1  108.49    1.43
 -11  -2   1  123.58    1.84
 -11  -2   1  125.84    1.86
  11  -2  -1  117.20    1.75
  11   2  -1  127.38    1.87
  11   2   0    5.05    0.46
  11   2   0    5.00    0.47
  11  -2   0    4.52    0.48
  11  -2   0    4.53    0.46
  11   2   0    5.26    0.41
  11   2   0    4.45    0.35
 -11  -2   0    5.04    0.51
  11  -2   0    5.01    0.50
  11   2   1   11.98    0.56
  11  -2   1   13.62    0.65
  11  -2   1   12.85    0.59
  11   2   1   12.62    0.58
 -11  -2  -1   12.92    0.64
  11   2   1   11.25    0.45
 -11   2  -1   11.68    0.52
 -11  -2  -1   13.49    0.67
  11  -2   1   13.35    0.63
  11  -2   2   11.17    0.54
  11  -2   2    9.54    0.43
  11  -2   2   10.26    0.55
  11   2   2   10.95    0.52
 -11  -2  -2   11.06    0.55
 -11   2  -2   10.25    0.50
 -11  -2  -2   11.28    0.58
  11  -2   2   10.36    0.54
  11  -2   3    0.98    0.21
  11   2   3    0.66    0.21
  11  -2   3    0.96    0.24
 -11  -2  -3    0.85    0.20
 -11   2  -3    0.83    0.22
  11  -3  -3    9.02    0.41
 -11  -3   3    9.07    0.40
  11   3  -2    2.78    0.31
  11   3  -2    2.17    0.28
 -11  -3   2    2.53    0.31
  11  -3  -2    2.20    0.28
  11  -3  -1    4.03    0.29
  11   3  -1    4.17    0.30
 -11  -3   1    4.69    0.39
  11  -3  -1    4.36    0.36
  11   3   0    5.93    0.39
 -11  -3   0    5.37    0.37
  11  -3   0    5.70    0.41
  11   3   1    7.09    0.36
 -11  -3  -1    7.08    0.37
 -11  -3  -1    7.15    0.40
  11  -3   1    7.53    0.42
   0   0   0    0.00    0.00


TITL p20170927a_a.res in P2(1)
CELL 1.54184 9.3678 6.9408 11.2829 90 93.95 90
ZERR 2 0.0001 0.0001 0.0001 0 0.001 0
LATT -1
SYMM -X,0.5+Y,-Z
SFAC C H N O
UNIT 38 34 2 2
TREF
HKLF 4
END
_computing_structure_solution     'SHELXT 2014/5 (Sheldrick, 2014)'
;
_shelx_hkl_checksum              99182
_olex2_submission_special_instructions 'No special instructions were received'
_oxdiff_exptl_absorpt_empirical_details
;
Empirical correction (ABSPACK) includes:
- Absorption correction using spherical harmonics
- Frame scaling
- Detector area scaling
;
_oxdiff_exptl_absorpt_empirical_full_max 1.219
_oxdiff_exptl_absorpt_empirical_full_min 0.817
loop_
_space_group_symop_operation_xyz
'x, y, z'
'-x, y+1/2, -z'
loop_
_atom_site_label
_atom_site_type_symbol
_atom_site_fract_x
_atom_site_fract_y
_atom_site_fract_z
_atom_site_U_iso_or_equiv
_atom_site_adp_type
_atom_site_occupancy
_atom_site_site_symmetry_order
_atom_site_calc_flag
_atom_site_refinement_flags_posn
O1 O 0.36190(13) 0.9089(2) 0.79626(11) 0.0666(3) Uani 1 1 d .
N1 N 0.26818(13) 0.2370(2) 0.63296(11) 0.0560(4) Uani 1 1 d .
C1 C 0.34014(14) 0.4098(3) 0.64365(12) 0.0500(4) Uani 1 1 d .
C2 C 0.31581(15) 0.5183(3) 0.54523(13) 0.0541(4) Uani 1 1 d .
C3 C 0.22291(14) 0.4105(3) 0.46395(12) 0.0567(4) Uani 1 1 d .
C4 C 0.19604(14) 0.2344(3) 0.52118(13) 0.0569(4) Uani 1 1 d .
C5 C 0.10949(18) 0.0926(4) 0.46798(16) 0.0733(6) Uani 1 1 d .
H5 H 0.0932 -0.0230 0.5065 0.088 Uiso 1 1 calc R
C6 C 0.0483(2) 0.1299(5) 0.35545(18) 0.0912(8) Uani 1 1 d .
H6 H -0.0107 0.0377 0.3176 0.109 Uiso 1 1 calc R
C7 C 0.0729(2) 0.3011(5) 0.29775(16) 0.0916(8) Uani 1 1 d .
H7 H 0.0302 0.3212 0.2219 0.110 Uiso 1 1 calc R
C8 C 0.15870(17) 0.4421(4) 0.34960(14) 0.0738(6) Uani 1 1 d .
H8 H 0.1741 0.5566 0.3096 0.089 Uiso 1 1 calc R
C9 C 0.42989(15) 0.5056(3) 0.74243(13) 0.0541(4) Uani 1 1 d .
C10 C 0.48432(17) 0.6836(3) 0.67347(15) 0.0599(4) Uani 1 1 d .
H10 H 0.5804 0.6526 0.6499 0.072 Uiso 1 1 calc R
C11 C 0.3868(2) 0.7100(3) 0.55844(16) 0.0679(5) Uani 1 1 d .
H11A H 0.3174 0.8119 0.5671 0.081 Uiso 1 1 calc R
H11B H 0.4423 0.7385 0.4911 0.081 Uiso 1 1 calc R
C12 C 0.49712(19) 0.8589(3) 0.75060(17) 0.0669(5) Uani 1 1 d .
H12A H 0.5671 0.8353 0.8164 0.080 Uiso 1 1 calc R
H12B H 0.5308 0.9661 0.7049 0.080 Uiso 1 1 calc R
C13 C 0.30460(16) 0.7618(3) 0.86003(13) 0.0574(4) Uani 1 1 d .
C14 C 0.33534(17) 0.5695(3) 0.84066(13) 0.0559(4) Uani 1 1 d .
C15 C 0.2734(2) 0.4329(4) 0.91124(15) 0.0742(6) Uani 1 1 d .
H15 H 0.2931 0.3031 0.8999 0.089 Uiso 1 1 calc R
C16 C 0.1833(3) 0.4852(5) 0.99784(18) 0.0884(8) Uani 1 1 d .
H16 H 0.1439 0.3917 1.0448 0.106 Uiso 1 1 calc R
C17 C 0.1523(2) 0.6775(5) 1.01387(15) 0.0836(7) Uani 1 1 d .
H17 H 0.0904 0.7134 1.0710 0.100 Uiso 1 1 calc R
C18 C 0.21261(18) 0.8166(4) 0.94583(14) 0.0697(5) Uani 1 1 d .
H18 H 0.1920 0.9461 0.9571 0.084 Uiso 1 1 calc R
C19 C 0.55681(19) 0.3854(3) 0.79453(17) 0.0723(5) Uani 1 1 d .
H19A H 0.5217 0.2752 0.8350 0.108 Uiso 1 1 calc GR
H19B H 0.6148 0.4626 0.8497 0.108 Uiso 1 1 calc GR
H19C H 0.6133 0.3434 0.7316 0.108 Uiso 1 1 calc GR
H1 H 0.275(2) 0.129(4) 0.683(2) 0.077(6) Uiso 1 1 d .
loop_
_atom_site_aniso_label
_atom_site_aniso_U_11
_atom_site_aniso_U_22
_atom_site_aniso_U_33
_atom_site_aniso_U_23
_atom_site_aniso_U_13
_atom_site_aniso_U_12
O1 0.0656(6) 0.0669(8) 0.0688(7) 0.0028(6) 0.0155(5) 0.0031(6)
N1 0.0492(6) 0.0673(10) 0.0511(6) 0.0089(7) 0.0000(5) -0.0036(6)
C1 0.0416(6) 0.0616(10) 0.0473(7) 0.0053(7) 0.0050(5) 0.0027(7)
C2 0.0454(7) 0.0723(12) 0.0457(7) 0.0076(7) 0.0101(5) 0.0063(7)
C3 0.0394(6) 0.0879(13) 0.0439(6) 0.0063(8) 0.0095(5) 0.0065(8)
C4 0.0381(6) 0.0845(13) 0.0484(7) 0.0004(8) 0.0062(5) -0.0023(7)
C5 0.0480(8) 0.1080(17) 0.0644(9) -0.0056(11) 0.0080(7) -0.0190(9)
C6 0.0526(9) 0.159(3) 0.0616(10) -0.0144(14) 0.0035(7) -0.0288(12)
C7 0.0532(9) 0.174(3) 0.0469(8) 0.0058(12) 0.0004(7) -0.0154(12)
C8 0.0508(8) 0.1244(19) 0.0466(7) 0.0150(10) 0.0071(6) 0.0016(10)
C9 0.0458(7) 0.0645(11) 0.0517(7) 0.0047(7) 0.0014(6) 0.0013(7)
C10 0.0497(7) 0.0682(11) 0.0633(9) 0.0033(8) 0.0150(6) -0.0036(8)
C11 0.0782(11) 0.0710(14) 0.0557(8) 0.0121(8) 0.0138(8) -0.0019(10)
C12 0.0555(9) 0.0713(13) 0.0752(10) -0.0008(9) 0.0139(7) -0.0083(8)
C13 0.0458(7) 0.0801(13) 0.0460(7) 0.0017(8) 0.0011(6) -0.0010(8)
C14 0.0500(8) 0.0734(12) 0.0439(7) 0.0045(7) 0.0012(5) -0.0047(7)
C15 0.0853(12) 0.0851(15) 0.0529(8) 0.0103(9) 0.0101(8) -0.0132(11)
C16 0.0869(13) 0.126(2) 0.0534(9) 0.0114(12) 0.0152(9) -0.0271(15)
C17 0.0603(9) 0.143(2) 0.0486(9) -0.0039(12) 0.0107(7) -0.0067(12)
C18 0.0549(9) 0.1039(16) 0.0501(8) -0.0086(9) 0.0026(7) 0.0044(9)
C19 0.0596(9) 0.0797(14) 0.0750(10) -0.0008(10) -0.0144(8) 0.0086(9)
loop_
_atom_type_symbol
_atom_type_description
_atom_type_scat_dispersion_real
_atom_type_scat_dispersion_imag
_atom_type_scat_source
C C 0.0181 0.0091 'International Tables Vol C Tables 4.2.6.8 and 6.1.1.4'
H H 0.0000 0.0000 'International Tables Vol C Tables 4.2.6.8 and 6.1.1.4'
N N 0.0311 0.0180 'International Tables Vol C Tables 4.2.6.8 and 6.1.1.4'
O O 0.0492 0.0322 'International Tables Vol C Tables 4.2.6.8 and 6.1.1.4'
loop_
_geom_angle_atom_site_label_1
_geom_angle_atom_site_label_2
_geom_angle_atom_site_label_3
_geom_angle
C13 O1 C12 113.01(15)
C1 N1 C4 107.21(13)
C1 N1 H1 129.2(14)
C4 N1 H1 122.8(14)
N1 C1 C9 134.07(13)
C2 C1 N1 111.13(13)
C2 C1 C9 114.66(15)
C1 C2 C3 107.26(16)
C1 C2 C11 111.57(14)
C3 C2 C11 141.08(15)
C4 C3 C2 106.20(13)
C8 C3 C2 135.3(2)
C8 C3 C4 118.47(18)
N1 C4 C3 108.20(14)
C5 C4 N1 129.53(17)
C5 C4 C3 122.27(15)
C4 C5 H5 121.4
C6 C5 C4 117.3(2)
C6 C5 H5 121.4
C5 C6 H6 119.3
C5 C6 C7 121.5(2)
C7 C6 H6 119.3
C6 C7 H7 119.2
C8 C7 C6 121.62(17)
C8 C7 H7 119.2
C3 C8 H8 120.6
C7 C8 C3 118.9(2)
C7 C8 H8 120.6
C1 C9 C10 99.53(12)
C1 C9 C14 110.04(12)
C1 C9 C19 114.95(16)
C14 C9 C10 110.86(15)
C14 C9 C19 110.57(13)
C19 C9 C10 110.43(14)
C9 C10 H10 107.4
C11 C10 C9 108.48(14)
C11 C10 H10 107.4
C12 C10 C9 111.65(13)
C12 C10 H10 107.4
C12 C10 C11 114.28(17)
C2 C11 C10 102.24(14)
C2 C11 H11A 111.3
C2 C11 H11B 111.3
C10 C11 H11A 111.3
C10 C11 H11B 111.3
H11A C11 H11B 109.2
O1 C12 C10 111.49(15)
O1 C12 H12A 109.3
O1 C12 H12B 109.3
C10 C12 H12A 109.3
C10 C12 H12B 109.3
H12A C12 H12B 108.0
O1 C13 C14 122.57(14)
O1 C13 C18 116.22(18)
C14 C13 C18 121.21(18)
C13 C14 C9 122.00(15)
C13 C14 C15 117.83(16)
C15 C14 C9 120.14(18)
C14 C15 H15 119.2
C16 C15 C14 121.6(2)
C16 C15 H15 119.2
C15 C16 H16 120.3
C17 C16 C15 119.4(2)
C17 C16 H16 120.3
C16 C17 H17 119.8
C18 C17 C16 120.44(19)
C18 C17 H17 119.8
C13 C18 H18 120.3
C17 C18 C13 119.5(2)
C17 C18 H18 120.3
C9 C19 H19A 109.5
C9 C19 H19B 109.5
C9 C19 H19C 109.5
H19A C19 H19B 109.5
H19A C19 H19C 109.5
H19B C19 H19C 109.5
loop_
_geom_bond_atom_site_label_1
_geom_bond_atom_site_label_2
_geom_bond_distance
O1 C12 1.442(2)
O1 C13 1.379(2)
N1 C1 1.376(2)
N1 C4 1.3894(19)
N1 H1 0.94(3)
C1 C2 1.348(2)
C1 C9 1.504(2)
C2 C3 1.431(2)
C2 C11 1.490(3)
C3 C4 1.413(3)
C3 C8 1.403(2)
C4 C5 1.385(3)
C5 H5 0.9300
C5 C6 1.381(3)
C6 H6 0.9300
C6 C7 1.382(4)
C7 H7 0.9300
C7 C8 1.371(4)
C8 H8 0.9300
C9 C10 1.564(2)
C9 C14 1.531(2)
C9 C19 1.536(2)
C10 H10 0.9800
C10 C11 1.546(3)
C10 C12 1.496(3)
C11 H11A 0.9700
C11 H11B 0.9700
C12 H12A 0.9700
C12 H12B 0.9700
C13 C14 1.386(3)
C13 C18 1.393(2)
C14 C15 1.391(3)
C15 H15 0.9300
C15 C16 1.383(3)
C16 H16 0.9300
C16 C17 1.380(4)
C17 H17 0.9300
C17 C18 1.379(4)
C18 H18 0.9300
C19 H19A 0.9600
C19 H19B 0.9600
C19 H19C 0.9600
loop_
_geom_torsion_atom_site_label_1
_geom_torsion_atom_site_label_2
_geom_torsion_atom_site_label_3
_geom_torsion_atom_site_label_4
_geom_torsion
O1 C13 C14 C9 -3.1(2)
O1 C13 C14 C15 179.05(15)
O1 C13 C18 C17 -179.37(14)
N1 C1 C2 C3 -0.43(16)
N1 C1 C2 C11 176.89(14)
N1 C1 C9 C10 173.19(16)
N1 C1 C9 C14 -70.4(2)
N1 C1 C9 C19 55.3(2)
N1 C4 C5 C6 178.77(17)
C1 N1 C4 C3 -1.05(15)
C1 N1 C4 C5 179.68(17)
C1 C2 C3 C4 -0.23(16)
C1 C2 C3 C8 179.52(18)
C1 C2 C11 C10 10.97(17)
C1 C9 C10 C11 17.89(16)
C1 C9 C10 C12 144.70(14)
C1 C9 C14 C13 -108.26(17)
C1 C9 C14 C15 69.59(19)
C2 C1 C9 C10 -11.66(16)
C2 C1 C9 C14 104.80(16)
C2 C1 C9 C19 -129.60(16)
C2 C3 C4 N1 0.79(15)
C2 C3 C4 C5 -179.87(15)
C2 C3 C8 C7 -179.88(18)
C3 C2 C11 C10 -173.11(18)
C3 C4 C5 C6 -0.4(3)
C4 N1 C1 C2 0.93(16)
C4 N1 C1 C9 176.20(15)
C4 C3 C8 C7 -0.2(3)
C4 C5 C6 C7 0.4(3)
C5 C6 C7 C8 -0.2(4)
C6 C7 C8 C3 0.1(3)
C8 C3 C4 N1 -179.01(14)
C8 C3 C4 C5 0.3(2)
C9 C1 C2 C3 -176.70(12)
C9 C1 C2 C11 0.62(18)
C9 C10 C11 C2 -18.06(17)
C9 C10 C12 O1 -58.9(2)
C9 C14 C15 C16 -177.60(17)
C10 C9 C14 C13 0.87(19)
C10 C9 C14 C15 178.71(15)
C11 C2 C3 C4 -176.3(2)
C11 C2 C3 C8 3.5(3)
C11 C10 C12 O1 64.72(19)
C12 O1 C13 C14 -26.2(2)
C12 O1 C13 C18 153.98(15)
C12 C10 C11 C2 -143.33(14)
C13 O1 C12 C10 57.46(19)
C13 C14 C15 C16 0.3(3)
C14 C9 C10 C11 -97.95(15)
C14 C9 C10 C12 28.85(18)
C14 C13 C18 C17 0.8(2)
C14 C15 C16 C17 0.8(3)
C15 C16 C17 C18 -1.2(3)
C16 C17 C18 C13 0.4(3)
C18 C13 C14 C9 176.73(13)
C18 C13 C14 C15 -1.2(2)
C19 C9 C10 C11 139.15(16)
C19 C9 C10 C12 -94.04(18)
C19 C9 C14 C13 123.68(17)
C19 C9 C14 C15 -58.5(2)
