#------------------------------------------------------------------------------
#$Date: 2018-02-04 00:31:15 +0200 (Sun, 04 Feb 2018) $
#$Revision: 206136 $
#$URL: file:///home/coder/svn-repositories/cod/cif/4/51/43/4514335.cif $
#------------------------------------------------------------------------------
#
# This file is available in the Crystallography Open Database (COD),
# http://www.crystallography.net/
#
# All data on this site have been placed in the public domain by the
# contributors.
#
data_4514335
loop_
_publ_author_name
'Mayorga-Martinez, Carmen C'
'Sofer, Zden\<ek'
'Luxa, Jan'
'Huber, \<St\<ep\'an'
'Sedmidubsk\'y, David'
'Br\'azda, Petr'
'Palatinus, Luk\'a\<s'
'Mikulics, Martin'
'Lazar, Petr'
'Medl\'in, Rostislav'
'Pumera, Martin'
_publ_section_title
;
 TaS3 Nanofibers: Layered Trichalcogenide for High-Performance Electronic
 and Sensing Devices.
;
_journal_issue                   1
_journal_name_full               'ACS nano'
_journal_page_first              464
_journal_page_last               473
_journal_paper_doi               10.1021/acsnano.7b06853
_journal_volume                  12
_journal_year                    2018
_chemical_formula_analytical     'Ta1 S3'
_chemical_formula_moiety         'Ta1 S3'
_chemical_formula_structural     'Ta1 S3'
_chemical_formula_sum            'S3 Ta'
_chemical_formula_weight         277.14
_chemical_name_systematic        'Tantalum trisufide'
_space_group_IT_number           11
_symmetry_cell_setting           monoclinic
_symmetry_Int_Tables_number      11
_symmetry_space_group_name_Hall  '-P 2yb'
_symmetry_space_group_name_H-M   'P 1 21/m 1'
_cell_angle_alpha                90
_cell_angle_beta                 110.0
_cell_angle_gamma                90
_cell_formula_units_Z            4
_cell_length_a                   9.52
_cell_length_b                   3.34
_cell_length_c                   14.9
_cell_measurement_temperature    293
_cell_volume                     445.200
_computing_cell_refinement
;
Jana2006 (Petricek et al., 2014).
;
_computing_data_collection
;
PETS (Palatinus, L., 2011).
;
_computing_data_reduction
;
PETS (Palatinus, L., 2011).
;
_computing_structure_refinement
;
Jana2006 (Petricek et al., 2014). Dynamical refinement (Palatinus, L. et al.
 2015).
;
_computing_structure_solution
;
Superflip (Palatinus et al., 2007).
;
_diffrn_ambient_temperature      293
_diffrn_detector                 ';CCD camera Olympus SIS Veleta;'
_diffrn_detector_area_resol_mean 2048.2048
_diffrn_measured_fraction_theta_full 0.68
_diffrn_measured_fraction_theta_max 0.66
_diffrn_measurement_device       ';Transmission electron microscope;'
_diffrn_measurement_device_type  ';Philips CM120;'
_diffrn_measurement_method       PEDT
_diffrn_measurement_specimen_support ';Cu grid with carbon foil;'
_diffrn_radiation_probe          electron
_diffrn_radiation_source         LaB6
_diffrn_radiation_type           electron
_diffrn_radiation_wavelength     0.0335
_diffrn_reflns_limit_h_max       12
_diffrn_reflns_limit_h_min       -12
_diffrn_reflns_limit_k_max       4
_diffrn_reflns_limit_k_min       -4
_diffrn_reflns_limit_l_max       21
_diffrn_reflns_limit_l_min       -21
_diffrn_reflns_number            15484
_diffrn_reflns_reduction_process 'data integration with PETS'
_diffrn_reflns_theta_full        0.66
_diffrn_reflns_theta_max         1.34
_diffrn_reflns_theta_min         0.07
_diffrn_source                   'electron microscope'
_diffrn_source_voltage           120
_exptl_absorpt_correction_type   none
_exptl_crystal_density_diffrn    3.1757
_exptl_crystal_description
;
piece of nano-ribbon
;
_exptl_crystal_F_000             726
_exptl_crystal_size_max          0.0003
_exptl_crystal_size_mid          0.0001
_exptl_crystal_size_min          0.00005
_refine_ls_extinction_method     none
_refine_ls_goodness_of_fit_gt    2.76
_refine_ls_goodness_of_fit_ref   2.10
_refine_ls_number_constraints    0
_refine_ls_number_parameters     147
_refine_ls_number_reflns         4056
_refine_ls_number_restraints     0
_refine_ls_R_factor_all          0.1358
_refine_ls_R_factor_gt           0.0705
_refine_ls_shift/su_max          0.0000
_refine_ls_shift/su_mean         0.0000
_refine_ls_structure_factor_coef F
_refine_ls_weighting_details     ;w=1/(\s^2^(F)+0.0001F^2^);
_refine_ls_weighting_scheme      sigma
_refine_ls_wR_factor_gt          0.0766
_refine_ls_wR_factor_ref         0.0785
_reflns_number_gt                2250
_reflns_number_total             4056
_reflns_threshold_expression     I>3\s(I)
_cod_data_source_file            nn7b06853_si_003.cif
_cod_data_source_block           I
_cod_depositor_comments
'Adding full bibliography for 4514334--4514335.cif.'
_cod_original_cell_volume        446
_cod_original_formula_sum        'Ta1 S3'
_cod_database_code               4514335
loop_
_space_group_symop_id
_space_group_symop_operation_xyz
1 x,y,z
2 -x,y+1/2,-z
3 -x,-y,-z
4 x,-y+1/2,z
loop_
_atom_site_label
_atom_site_type_symbol
_atom_site_fract_x
_atom_site_fract_y
_atom_site_fract_z
_atom_site_adp_type
_atom_site_U_iso_or_equiv
_atom_site_site_symmetry_multiplicity
_atom_site_occupancy
_atom_site_calc_flag
Ta3 Ta -0.2974(2) 0.25 -0.45904(9) Uiso 0.0073(4) 2 1 d
Ta1 Ta -0.6414(2) -0.75 -0.11919(9) Uiso 0.0064(3) 2 1 d
Ta2 Ta -0.3060(2) -0.25 -0.20230(8) Uiso 0.0060(4) 2 1 d
S6 S -0.5149(6) -0.75 -0.2466(2) Uiso 0.0075(8) 2 1 d
S9 S -0.2430(7) -0.25 -0.5696(2) Uiso 0.0081(8) 2 1 d
S4 S -0.1667(7) -0.75 -0.0834(2) Uiso 0.0064(8) 2 1 d
S7 S -0.0885(7) -0.25 -0.4311(2) Uiso 0.0107(9) 2 1 d
S3 S -0.8021(6) -1.25 -0.2365(2) Uiso 0.0072(8) 2 1 d
S2 S -0.8296(7) -1.25 -0.1025(2) Uiso 0.0086(8) 2 1 d
S1 S -0.4352(6) -1.25 -0.0636(2) Uiso 0.0080(8) 2 1 d
S8 S -0.4451(7) -0.25 -0.4056(2) Uiso 0.0074(8) 2 1 d
S5 S -0.1780(6) 0.25 -0.2769(2) Uiso 0.0069(8) 2 1 d
loop_
_atom_type_symbol
_atom_type_scat_source
Ta 'International Tables Vol C tables 4.3.1.1'
S 'International Tables Vol C tables 4.3.1.1'
loop_
_refln_index_h
_refln_index_k
_refln_index_l
_refln_intensity_calc
_refln_intensity_meas
_refln_intensity_sigma
_refln_scale_group_code
_refln_observed_status
-9 -1 -9 52.42 -1.20 35.50 1 <
-8 2 -9 37.44 -10.60 35.80 1 <
-8 -1 -8 208.72 46.10 36.20 1 <
-8 0 -8 145.16 -63.50 37.90 1 <
-7 0 -7 103.14 72.40 37.90 1 <
-6 3 -7 150.45 9.60 36.00 1 <
-6 0 -6 211.61 145.40 39.40 1 o
-5 3 -6 248.29 111.80 37.80 1 <
-5 0 -5 174.11 72.90 40.40 1 <
-4 3 -5 143.30 64.70 37.70 1 <
-4 0 -4 1545.80 2322.90 65.80 1 o
-3 3 -4 50.85 -34.40 37.20 1 <
-3 0 -3 2908.40 3487.50 75.30 1 o
-2 3 -3 706.86 494.00 43.00 1 o
-1 3 -2 104.23 8.10 37.70 1 <
0 3 -1 337.23 26.70 37.30 1 <
1 3 0 244.68 14.50 38.00 1 <
3 -1 3 2422.40 1942.80 61.20 1 o
4 2 3 119.99 72.60 38.60 1 <
5 4 3 11.84 6.90 35.70 1 <
4 -2 4 1656.30 1404.10 54.30 1 o
4 -1 4 198.62 57.70 40.60 1 <
5 2 4 220.03 218.80 40.30 1 o
5 -4 5 66.43 3.20 37.50 1 <
5 -3 5 123.04 85.50 38.60 1 <
5 -2 5 122.66 128.00 39.40 1 o
6 2 5 60.85 92.80 37.30 1 <
6 -3 6 109.91 108.70 38.30 1 <
6 -2 6 94.21 62.30 38.10 1 <
7 1 6 187.80 146.20 38.50 1 o
7 -3 7 131.50 37.50 37.40 1 <
8 1 7 35.79 19.20 36.30 1 <
9 0 8 22.09 22.50 36.00 1 <
-8 1 -9 90.95 15.10 36.40 2 <
-8 -2 -8 311.52 -39.40 37.80 2 <
-7 2 -8 78.42 -19.20 37.00 2 <
-7 -3 -7 126.24 -53.50 38.80 2 <
-7 -2 -7 336.45 264.70 40.90 2 o
-6 2 -7 44.10 -23.90 37.30 2 <
-6 -3 -6 87.24 73.80 38.50 2 <
-6 -2 -6 51.00 82.70 37.80 2 <
-6 -1 -6 359.59 305.40 41.80 2 o
-5 2 -6 126.67 124.10 38.80 2 o
-5 -1 -5 575.26 525.00 46.60 2 o
-4 -1 -4 194.26 179.80 44.00 2 o
-2 3 -3 631.77 768.80 47.30 2 o
-1 3 -2 71.10 55.80 39.00 2 <
-1 0 -1 3419.80 4127.80 89.20 2 o
0 3 -1 28.70 -17.80 38.40 2 <
1 3 0 25.71 44.80 38.60 2 <
1 0 1 3294.30 3913.20 87.70 2 o
2 3 1 284.39 569.00 44.60 2 o
2 0 2 4414.20 2991.10 78.20 2 o
3 3 2 113.73 71.80 37.80 2 <
3 0 3 4042.30 4589.60 82.00 2 o
4 3 3 52.83 38.50 37.00 2 <
5 3 4 105.75 154.40 38.60 2 o
5 -1 5 540.91 529.70 45.40 2 o
6 -1 6 231.09 188.50 40.70 2 o
7 2 6 49.77 36.00 36.70 2 <
7 -3 7 95.38 70.70 38.10 2 <
7 -2 7 361.03 219.50 41.00 2 o
7 -1 7 295.34 265.50 40.80 2 o
8 2 7 24.28 18.70 36.60 2 <
8 -2 8 218.99 102.80 38.80 2 <
-8 -1 -9 51.89 33.30 36.20 3 <
-8 0 -9 36.88 -18.50 36.30 3 <
-7 0 -8 96.59 95.30 38.10 3 <
-6 3 -8 11.22 13.50 36.40 3 <
-6 1 -7 301.79 299.60 41.70 3 o
-5 1 -6 1123.10 1230.20 53.60 3 o
-4 4 -6 11.84 20.60 36.20 3 <
-5 -4 -5 22.02 -15.40 36.40 3 <
-5 -3 -5 192.76 149.90 38.50 3 o
-4 2 -5 41.98 57.30 38.50 3 <
-3 4 -5 10.18 5.40 36.20 3 <
-4 -4 -4 628.69 375.70 41.80 3 o
-4 -3 -4 147.93 107.60 38.10 3 <
-4 -2 -4 1762.80 1694.30 58.00 3 o
-3 2 -4 71.20 100.90 39.80 3 <
-3 -2 -3 1216.80 1598.70 56.90 3 o
-3 -1 -3 2952.90 2784.70 69.80 3 o
-2 -1 -2 299.98 389.10 47.70 3 o
0 3 -1 210.59 159.00 39.70 3 o
1 3 0 330.13 219.00 40.70 3 o
2 3 1 566.97 746.40 47.50 3 o
3 3 2 58.65 69.80 38.20 3 <
4 3 3 104.54 31.00 37.10 3 <
5 3 4 70.73 60.60 37.30 3 <
5 1 5 649.94 718.70 47.90 3 o
6 3 5 209.55 146.90 38.30 3 o
6 1 6 401.30 490.80 43.30 3 o
7 3 6 39.31 26.50 36.50 3 <
7 0 7 89.84 120.40 38.70 3 o
7 1 7 592.42 575.10 44.80 3 o
8 0 8 124.96 155.50 39.00 3 o
9 0 9 14.14 28.20 36.40 3 <
-8 1 -10 134.25 -35.60 37.10 4 <
-8 -2 -9 47.54 6.10 36.00 4 <
-7 2 -9 30.01 16.00 36.50 4 <
-7 -2 -8 112.21 98.70 38.40 4 <
-7 -1 -8 13.23 -19.90 37.20 4 <
-6 2 -8 39.74 -11.00 37.80 4 <
-6 -1 -7 513.32 485.40 45.00 4 o
-6 0 -7 219.60 175.70 40.10 4 o
-5 3 -7 13.68 25.20 36.80 4 <
-5 0 -6 253.55 137.20 40.80 4 o
-4 1 -5 821.74 919.80 50.30 4 o
-3 4 -5 23.66 5.50 37.50 4 <
-4 -4 -4 591.75 522.60 44.20 4 o
-4 -3 -4 197.72 165.90 39.40 4 o
-2 4 -4 105.29 -2.20 37.80 4 <
-3 -4 -3 483.41 437.50 43.30 4 o
-3 -3 -3 860.71 737.40 47.40 4 o
-3 -2 -3 1475.50 1450.80 56.00 4 o
-2 2 -3 701.32 601.80 46.70 4 o
-2 -1 -2 232.44 170.70 47.90 4 o
0 3 -1 52.69 81.60 39.40 4 <
1 3 0 39.47 69.60 38.80 4 <
2 3 1 765.27 830.50 48.10 4 o
2 -4 3 191.80 149.60 40.80 4 o
3 1 3 4864.40 4854.50 83.20 4 o
4 4 3 14.24 11.50 36.90 4 <
3 -4 4 41.63 51.40 39.20 4 <
3 -3 4 30.49 16.50 39.40 4 <
4 1 4 221.78 195.80 43.60 4 o
5 4 4 49.09 130.20 37.60 4 o
4 -4 5 23.68 27.60 38.10 4 <
4 -3 5 106.35 111.40 39.50 4 <
5 -3 6 239.21 211.60 41.00 4 o
5 -2 6 107.57 166.80 39.50 4 o
6 2 6 84.71 93.40 39.10 4 <
6 -3 7 152.07 140.60 38.80 4 o
6 -2 7 54.16 35.20 37.90 4 <
7 2 7 542.51 597.70 44.50 4 o
7 -2 8 120.87 111.20 38.70 4 <
8 2 8 341.76 296.60 41.50 4 o
8 -2 9 24.15 11.70 36.90 4 <
-8 -1 -10 165.64 -14.90 36.20 5 <
-8 0 -10 127.45 -12.80 36.40 5 <
-7 1 -9 54.18 67.60 37.00 5 <
-6 2 -8 70.38 -15.80 37.10 5 <
-6 -3 -7 258.22 166.70 38.80 5 o
-6 -2 -7 89.83 -29.40 38.10 5 <
-5 2 -7 164.79 154.10 39.30 5 o
-5 -1 -6 995.22 998.80 51.50 5 o
-4 3 -6 73.45 84.40 37.80 5 <
-3 1 -4 164.11 148.60 44.50 5 o
-2 4 -4 197.17 127.00 39.20 5 o
-3 -4 -3 383.08 275.60 41.10 5 o
-3 -3 -3 803.86 761.30 46.80 5 o
-2 2 -3 752.46 859.20 50.00 5 o
-1 4 -3 35.50 53.50 37.30 5 <
-2 -2 -2 75.26 70.60 42.00 5 <
0 3 -1 105.44 75.40 39.30 5 <
1 3 0 95.96 137.10 40.70 5 o
2 1 2 259.56 238.60 47.90 5 o
3 4 2 101.88 58.00 37.90 5 <
2 -4 3 25.94 38.70 39.00 5 <
2 -3 3 1083.70 1144.90 53.30 5 o
4 4 3 21.63 34.90 37.50 5 <
3 -4 4 95.06 75.10 39.30 5 <
3 -3 4 11.24 35.60 39.50 5 <
3 -2 4 387.71 320.60 43.20 5 o
4 2 4 3803.80 3757.80 74.70 5 o
5 4 4 32.83 10.10 36.80 5 <
4 -4 5 27.40 26.00 37.80 5 <
4 -3 5 218.47 191.20 40.90 5 o
4 -2 5 27.24 60.00 39.00 5 <
5 2 5 104.09 47.80 39.30 5 <
5 -2 6 105.07 109.20 38.90 5 <
5 -1 6 758.35 808.10 48.50 5 o
6 2 6 49.26 31.50 38.40 5 <
6 -1 7 410.24 395.90 42.90 5 o
7 2 7 300.18 236.30 40.70 5 o
7 -1 8 24.43 -0.50 37.40 5 <
8 -1 9 36.38 19.60 36.90 5 <
8 0 9 40.07 45.00 37.30 5 <
9 0 10 28.75 37.60 37.10 5 <
-8 1 -11 59.65 -12.30 36.40 6 <
-7 2 -10 42.02 -7.50 36.20 6 <
-7 -2 -9 23.43 25.00 36.30 6 <
-7 -1 -9 93.51 81.70 37.30 6 <
-6 3 -9 28.04 -25.60 36.80 6 <
-6 0 -8 66.35 63.30 37.90 6 <
-5 1 -7 186.75 167.70 39.80 6 o
-5 -3 -6 450.34 508.50 42.90 6 o
-5 -2 -6 141.82 111.80 38.20 6 <
-4 2 -6 327.94 296.90 41.90 6 o
-4 -1 -5 470.17 573.40 47.10 6 o
-3 3 -5 159.86 83.90 38.90 6 <
-1 4 -3 132.86 51.50 37.50 6 <
-2 -4 -2 134.00 61.20 38.00 6 <
-2 -3 -2 18.14 8.10 38.10 6 <
-1 2 -2 994.21 837.20 51.00 6 o
-1 -1 -1 4228.80 3466.60 78.70 6 o
1 3 0 109.50 231.00 41.10 6 o
2 4 1 82.66 147.40 38.10 6 o
1 -4 2 92.52 65.10 37.80 6 <
3 4 2 59.87 103.70 37.80 6 <
2 -4 3 133.32 86.10 39.50 6 <
2 -3 3 1096.50 1250.30 54.40 6 o
2 -2 3 315.18 455.70 46.50 6 o
3 2 3 2352.00 2389.60 63.50 6 o
3 -1 4 80.75 113.20 42.40 6 <
5 3 5 353.80 363.70 41.10 6 o
5 0 6 181.42 107.50 39.50 6 <
6 3 6 329.68 232.20 38.80 6 o
6 1 7 664.05 746.80 46.60 6 o
7 1 8 25.47 41.80 37.20 6 <
8 1 9 40.32 14.20 36.70 6 <
8 2 9 28.15 57.10 36.40 6 <
-8 -1 -11 62.00 13.50 35.70 7 <
-7 0 -10 36.58 -13.40 35.80 7 <
-7 1 -10 214.08 6.70 35.50 7 <
-6 2 -9 30.21 -32.30 36.20 7 <
-6 -2 -8 22.60 31.80 35.80 7 <
-6 -1 -8 13.93 -4.90 36.60 7 <
-5 3 -8 113.54 101.70 37.10 7 <
-5 0 -7 253.02 311.40 41.00 7 o
-3 4 -6 30.09 4.80 36.00 7 <
-4 -2 -5 21.92 -0.20 37.40 7 <
-3 0 -4 493.55 389.70 46.70 7 o
-2 3 -4 144.23 -66.80 38.60 7 <
-2 1 -3 11701.00 11536.30 118.40 7 o
-1 4 -3 55.92 53.50 36.70 7 <
-2 -4 -2 109.98 69.70 37.30 7 <
-2 -3 -2 15.54 13.60 37.50 7 <
-1 2 -2 516.89 482.00 45.60 7 o
-1 -1 -1 2368.70 2072.70 67.80 7 o
1 3 0 71.37 77.40 37.70 7 <
1 1 1 2541.80 2313.30 69.80 7 o
2 4 1 31.23 12.10 36.30 7 <
1 -4 2 101.58 67.40 38.30 7 <
1 -3 2 69.66 115.40 39.70 7 <
3 4 2 137.26 87.70 37.60 7 <
2 -2 3 437.95 415.60 45.10 7 o
4 3 4 116.58 93.60 38.40 7 <
5 3 5 244.33 191.00 38.50 7 o
4 -4 6 235.68 250.10 39.80 7 o
5 1 6 1211.80 1331.00 53.00 7 o
5 -3 7 8.55 22.90 36.40 7 <
6 2 7 34.89 72.70 37.60 7 <
6 -3 8 10.41 0.20 37.20 7 <
6 -2 8 28.85 5.70 36.70 7 <
7 2 8 105.16 69.20 38.00 7 <
7 -1 9 91.57 91.80 36.90 7 <
8 2 9 36.99 62.30 36.50 7 <
8 -1 10 66.94 39.50 36.50 7 <
8 0 10 85.78 42.80 37.00 7 <
-7 2 -11 37.02 -6.20 35.90 8 <
-7 -2 -10 21.90 -7.20 35.60 8 <
-7 -1 -10 269.75 135.10 37.00 8 o
-6 1 -9 54.25 38.90 36.60 8 <
-6 -3 -8 34.13 20.50 35.80 8 <
-5 2 -8 306.54 246.00 40.20 8 o
-5 -1 -7 56.40 14.60 37.50 8 <
-4 3 -7 267.36 189.70 39.00 8 o
-4 1 -6 108.46 92.70 39.70 8 <
-3 4 -6 37.98 14.10 36.80 8 <
-4 -4 -5 16.06 13.90 36.20 8 <
-4 -3 -5 144.37 97.30 37.40 8 <
-3 2 -5 92.15 70.90 39.20 8 <
-3 -1 -4 207.19 109.20 42.10 8 <
-2 3 -4 185.88 -32.80 37.60 8 <
-1 4 -3 48.83 8.80 36.60 8 <
-2 -4 -2 86.70 21.90 36.90 8 <
-1 -2 -1 518.34 544.80 46.40 8 o
1 1 1 2651.70 2435.10 71.10 8 o
2 4 1 71.89 7.70 36.40 8 <
1 -4 2 67.31 34.70 37.60 8 <
1 -3 2 122.79 81.20 39.50 8 <
2 2 2 94.95 141.30 40.70 8 o
2 -1 3 11557.00 11987.10 119.10 8 o
3 3 3 770.41 787.20 46.90 8 o
3 0 4 437.55 477.30 46.80 8 o
4 1 5 847.97 650.90 46.90 8 o
5 4 5 19.79 10.40 36.00 8 <
4 -4 6 158.42 112.20 38.40 8 <
4 -3 6 90.60 55.80 38.20 8 <
5 2 6 70.65 77.70 37.90 8 <
5 -2 7 235.75 162.50 39.00 8 o
5 -1 7 72.46 98.60 38.50 8 <
6 0 8 86.13 50.00 37.80 8 <
7 0 9 90.33 63.80 37.00 8 <
7 1 9 171.00 138.20 38.60 8 o
8 1 10 72.75 80.60 36.50 8 <
-7 1 -11 45.42 7.50 36.10 9 <
-6 2 -10 146.31 106.90 37.80 9 <
-6 -1 -9 46.73 50.30 37.10 9 <
-6 0 -9 125.34 59.00 37.90 9 <
-5 3 -9 39.20 -31.80 36.60 9 <
-5 1 -8 664.98 638.10 45.90 9 o
-5 -3 -7 104.59 46.30 37.00 9 <
-5 -2 -7 200.66 109.50 38.50 9 <
-4 0 -6 143.50 110.10 42.00 9 <
-3 -3 -4 176.65 200.60 39.40 9 o
-3 -2 -4 275.42 219.70 41.60 9 o
-2 0 -3 4967.00 5469.80 92.40 9 o
-1 -3 -1 283.15 249.30 41.70 9 o
-1 -2 -1 570.90 416.30 46.10 9 o
2 4 1 59.52 70.40 37.00 9 <
1 -4 2 210.11 82.90 38.90 9 <
1 -3 2 178.68 141.10 40.70 9 o
1 -2 2 770.65 728.30 49.50 9 o
2 2 2 130.33 125.80 42.40 9 <
3 3 3 1022.40 882.80 47.70 9 o
4 4 4 582.66 568.90 43.40 9 o
3 -4 5 22.82 21.10 38.80 9 <
4 2 5 49.05 70.20 39.40 9 <
5 4 5 27.02 17.90 36.30 9 <
4 -3 6 81.48 60.20 38.40 9 <
4 -2 6 310.51 292.50 42.20 9 o
5 0 7 266.72 212.00 41.30 9 o
6 3 7 509.46 309.50 40.50 9 o
6 1 8 35.14 59.00 36.70 9 <
6 -3 9 15.00 19.00 37.20 9 <
7 2 9 26.13 3.40 36.70 9 <
7 -2 10 50.21 47.90 37.10 9 <
7 -1 10 317.70 212.40 39.30 9 o
8 -1 11 60.88 30.50 36.40 9 <
8 0 11 138.98 103.10 37.60 9 <
-7 -2 -11 14.10 -18.70 36.00 10 <
-7 -1 -11 95.18 39.30 36.70 10 <
-6 1 -10 90.75 98.20 37.20 10 <
-6 -3 -9 18.16 26.40 36.20 10 <
-6 -2 -9 41.10 30.50 36.20 10 <
-5 0 -8 338.21 276.80 41.10 10 o
-4 2 -7 566.75 556.40 43.70 10 o
-4 -1 -6 165.92 118.00 40.90 10 <
-3 3 -6 145.56 146.40 38.30 10 o
-3 1 -5 336.28 280.60 43.80 10 o
-2 4 -5 43.97 -21.60 36.40 10 <
-3 -4 -4 119.37 51.30 36.30 10 <
-3 -3 -4 67.94 34.50 37.20 10 <
0 4 -2 48.67 -3.70 36.40 10 <
-1 -4 -1 94.18 16.70 37.20 10 <
-1 -3 -1 154.00 188.80 40.40 10 o
-1 -2 -1 686.82 567.30 47.10 10 o
1 -4 2 93.90 116.40 37.90 10 o
1 -3 2 88.21 73.90 39.10 10 <
1 -2 2 601.42 543.30 47.10 10 o
2 0 3 4115.70 4339.30 82.10 10 o
4 4 4 572.78 486.20 42.40 10 o
3 -4 5 51.51 55.40 37.70 10 <
3 -3 5 240.54 204.70 39.80 10 o
3 -2 5 88.37 138.70 39.50 10 o
4 0 6 140.62 155.10 40.90 10 o
5 3 6 326.02 218.40 40.00 10 o
5 1 7 49.39 66.20 38.00 10 <
5 -3 8 123.14 84.60 38.30 10 <
6 2 8 84.79 95.10 37.00 10 <
6 -2 9 20.39 -5.50 36.70 10 <
6 -1 9 32.86 38.60 36.70 10 <
7 0 10 55.06 63.00 36.80 10 <
8 1 11 62.44 59.50 36.30 10 <
-7 0 -12 56.81 -14.60 35.90 11 <
-6 2 -11 210.69 31.70 38.00 11 <
-6 -1 -10 125.40 126.40 38.30 11 o
-5 3 -10 67.65 -8.80 36.20 11 <
-5 1 -9 121.52 126.30 38.40 11 o
-5 -3 -8 198.94 190.20 38.80 11 o
-5 -2 -8 239.27 208.70 38.90 11 o
-5 -1 -8 493.42 388.70 42.20 11 o
-4 3 -8 86.98 -28.80 37.90 11 <
-4 1 -7 699.46 579.10 45.90 11 o
-3 4 -7 26.44 -8.20 36.30 11 <
-4 -4 -6 225.45 -53.30 37.50 11 <
-4 -3 -6 156.57 139.40 37.80 11 o
-3 0 -5 210.35 283.20 44.70 11 o
-2 4 -5 98.35 92.20 37.90 11 <
-2 2 -4 821.38 858.70 49.00 11 o
-2 -1 -3 13096.00 13353.80 124.70 11 o
-1 3 -3 201.39 223.50 40.40 11 o
-1 1 -2 347.77 405.30 52.50 11 o
0 4 -2 16.73 7.80 36.30 11 <
-1 -4 -1 64.69 58.70 37.90 11 <
-1 -3 -1 274.54 139.70 40.10 11 o
1 -2 2 405.03 357.10 45.30 11 o
2 3 2 51.19 46.20 37.80 11 <
3 4 3 245.34 230.50 39.20 11 o
2 -4 4 123.92 91.90 39.40 11 <
3 2 4 174.62 146.40 40.10 11 o
3 -1 5 316.57 320.50 43.00 11 o
4 3 5 157.33 112.90 37.90 11 <
4 1 6 76.32 92.60 40.00 11 <
4 -3 7 171.32 191.40 39.30 11 o
5 2 7 199.37 134.10 38.90 11 o
5 -1 8 358.80 412.20 42.00 11 o
6 3 8 16.43 22.90 35.90 11 <
6 1 9 64.72 43.50 37.00 11 <
7 2 10 13.59 31.40 36.20 11 <
7 -2 11 37.65 61.70 36.80 11 <
7 -1 11 48.44 51.40 37.00 11 <
-7 -1 -12 122.37 18.50 35.80 12 <
-6 1 -11 60.23 -27.70 35.60 12 <
-6 -2 -10 256.74 109.20 36.90 12 <
-5 3 -10 110.85 -19.40 36.10 12 <
-5 1 -9 160.51 -18.30 37.30 12 <
-5 -3 -8 179.17 163.00 37.70 12 o
-4 0 -7 1079.10 1020.80 50.30 12 o
-3 4 -7 13.92 -14.90 36.00 12 <
-3 2 -6 159.34 180.40 40.00 12 o
-2 -2 -3 601.90 560.60 45.70 12 o
-1 3 -3 67.56 31.90 37.70 12 <
-1 1 -2 346.37 492.30 52.00 12 o
0 4 -2 104.35 -16.30 36.10 12 <
-1 -4 -1 54.31 59.70 37.50 12 <
-1 -3 -1 163.19 163.00 40.00 12 o
1 4 0 180.34 160.50 37.70 12 o
2 3 2 13.14 15.20 37.20 12 <
2 1 3 15180.00 15404.80 131.40 12 o
3 4 3 252.07 208.10 38.60 12 o
2 -4 4 251.32 230.20 40.50 12 o
2 -3 4 192.83 274.70 41.80 12 o
3 2 4 209.19 208.70 40.90 12 o
4 1 6 55.01 43.50 39.70 12 <
4 -3 7 202.90 141.60 39.20 12 o
4 -2 7 391.70 389.60 42.00 12 o
5 3 7 30.97 -7.60 36.50 12 <
5 0 8 363.25 275.50 40.70 12 o
6 2 9 46.65 46.30 36.80 12 <
6 -2 10 151.01 88.20 38.00 12 <
6 -1 10 156.08 163.30 38.40 12 o
7 0 11 80.29 13.40 36.50 12 <
-7 0 -13 284.97 -82.00 37.20 13 <
-6 2 -12 37.90 11.40 35.50 13 <
-6 -1 -11 197.47 144.80 37.70 13 o
-6 0 -11 359.26 300.00 40.10 13 o
-5 2 -10 41.69 -3.70 36.40 13 <
-5 -1 -9 135.96 95.20 37.50 13 <
-4 3 -9 161.17 7.00 36.10 13 <
-4 -1 -7 673.81 659.60 46.00 13 o
-3 3 -7 173.51 189.90 38.50 13 o
-3 -1 -5 231.00 156.80 42.60 13 o
-2 3 -5 298.19 372.90 41.00 13 o
-2 1 -4 1338.60 1567.80 57.20 13 o
-1 4 -4 141.27 -53.80 37.80 13 <
-2 -3 -3 1614.70 1603.30 55.30 13 o
-2 -2 -3 458.13 504.70 45.30 13 o
0 4 -2 52.14 -25.80 36.90 13 <
-1 -4 -1 113.83 67.90 37.40 13 <
-1 -3 -1 259.42 296.50 41.60 13 o
0 -4 1 7.90 6.60 37.90 13 <
2 3 2 11.37 39.50 36.70 13 <
2 1 3 13674.00 13259.20 123.50 13 o
3 4 3 304.58 284.10 39.50 13 o
2 -2 4 1462.10 1424.70 54.70 13 o
4 4 5 4.06 -11.70 35.80 13 <
3 -4 6 39.05 51.30 38.20 13 <
3 -3 6 245.14 249.60 40.80 13 o
4 2 6 257.85 285.10 41.40 13 o
4 -1 7 735.53 581.10 45.00 13 o
5 3 7 32.62 19.50 36.30 13 <
5 1 8 464.96 519.00 43.10 13 o
5 -3 9 62.29 41.80 37.20 13 <
5 -2 9 143.46 90.50 38.70 13 <
6 2 9 100.30 36.50 36.70 13 <
6 0 10 268.28 218.20 39.30 13 o
7 1 11 33.96 11.90 36.50 13 <
7 2 11 8.05 -12.00 35.90 13 <
7 -1 12 9.55 27.80 36.10 13 <
-6 0 -12 43.78 22.00 36.30 14 <
-6 1 -12 104.27 92.00 36.60 14 <
-6 -2 -11 281.43 167.30 38.20 14 o
-5 1 -10 62.71 45.90 36.70 14 <
-5 -3 -9 60.51 -3.10 36.10 14 <
-5 -2 -9 123.29 75.90 37.00 14 <
-4 3 -9 49.90 -10.20 36.30 14 <
-4 1 -8 91.83 71.60 38.40 14 <
-3 4 -8 89.73 92.20 37.40 14 <
-4 -3 -7 149.87 91.90 37.60 14 <
-4 -2 -7 577.74 493.70 43.30 14 o
-3 3 -7 114.24 91.50 38.30 14 <
-3 1 -6 675.84 612.80 46.80 14 o
-2 4 -6 60.00 -6.40 36.60 14 <
-3 -4 -5 43.98 -34.10 36.60 14 <
-3 -3 -5 114.80 96.20 37.00 14 <
-2 3 -5 347.66 464.70 42.10 14 o
-1 4 -4 138.35 -110.20 38.60 14 <
-2 -4 -3 47.35 3.80 37.20 14 <
-2 -3 -3 965.59 915.20 48.60 14 o
0 4 -2 76.15 14.10 37.20 14 <
-1 -4 -1 33.49 -13.30 37.10 14 <
1 4 0 85.50 66.90 37.60 14 <
1 2 1 614.36 778.00 48.90 14 o
2 -1 4 1045.70 1138.50 53.50 14 o
3 3 4 111.54 26.40 36.90 14 <
3 1 5 349.89 316.70 44.50 14 o
4 4 5 7.31 -21.80 35.80 14 <
3 -4 6 62.76 81.60 38.30 14 <
3 -3 6 151.66 99.70 39.70 14 <
3 -2 6 129.81 118.30 39.60 14 <
4 3 6 67.66 36.20 36.90 14 <
4 0 7 1165.00 1017.90 49.50 14 o
5 2 8 257.33 182.00 38.60 14 o
5 -1 9 135.34 80.80 37.60 14 <
5 0 9 479.39 435.20 42.40 14 o
6 3 9 16.42 -13.60 36.00 14 <
6 1 10 193.58 144.80 37.90 14 o
6 -2 11 302.53 195.60 39.80 14 o
6 -1 11 152.83 107.60 37.90 14 <
7 0 12 50.52 40.50 36.50 14 <
7 1 12 21.52 37.30 36.00 14 <
-6 1 -13 76.45 -5.90 36.10 15 <
-6 -2 -12 30.12 6.70 35.40 15 <
-6 -1 -12 54.65 30.90 37.00 15 <
-5 1 -11 87.86 62.40 37.10 15 <
-5 -1 -10 199.30 162.90 38.90 15 o
-4 3 -10 542.21 515.80 43.00 15 o
-4 2 -9 94.56 4.70 37.30 15 <
-4 -1 -8 84.57 84.40 39.00 15 <
-3 2 -7 169.09 179.00 39.70 15 o
-3 0 -6 4084.00 3771.00 74.80 15 o
-2 4 -6 161.25 184.20 38.70 15 o
-3 -4 -5 49.14 23.00 36.50 15 <
-2 2 -5 715.46 529.40 45.20 15 o
-2 0 -4 7164.50 7062.50 96.30 15 o
-1 4 -4 171.71 153.60 38.70 15 o
-2 -4 -3 37.37 43.50 37.90 15 <
-1 2 -3 797.30 776.00 49.40 15 o
-1 0 -2 9055.60 9556.10 114.00 15 o
0 4 -2 106.15 -5.40 37.20 15 <
-1 -4 -1 63.13 90.40 38.30 15 <
0 2 -1 137.60 162.10 44.30 15 o
1 4 0 201.64 162.40 38.90 15 o
0 -4 1 27.47 -15.20 37.70 15 <
1 2 1 634.90 481.00 46.20 15 o
1 -4 3 136.59 105.50 39.10 15 <
2 2 3 832.91 823.50 49.00 15 o
3 -1 6 816.06 714.30 47.90 15 o
4 3 6 40.33 23.60 36.70 15 <
4 1 7 1211.80 792.90 47.70 15 o
4 -2 8 254.96 296.00 41.00 15 o
4 -1 8 94.16 86.90 39.20 15 <
5 3 8 336.40 276.20 40.10 15 o
5 1 9 327.73 198.20 40.30 15 o
5 -3 10 48.57 45.50 37.50 15 <
5 -2 10 52.62 67.20 37.50 15 <
6 0 11 549.35 377.20 42.10 15 o
7 0 13 416.18 383.00 41.10 15 o
-6 1 -14 44.08 -26.70 35.60 16 <
-6 -1 -13 16.61 -35.30 35.40 16 <
-6 0 -13 138.77 63.80 36.20 16 <
-5 2 -12 264.18 217.80 39.00 16 o
-5 0 -11 389.20 421.70 41.30 16 o
-5 -3 -10 84.28 -25.00 35.80 16 <
-4 3 -10 600.15 257.50 39.20 16 o
-4 1 -9 135.19 159.80 38.60 16 o
-4 -3 -8 47.03 41.00 35.80 16 <
-4 -2 -8 376.74 323.10 40.10 16 o
-3 3 -8 182.05 -69.20 37.30 16 <
-3 1 -7 589.17 716.60 46.80 16 o
-3 -1 -6 1159.40 771.40 47.90 16 o
-2 3 -6 178.92 127.20 38.50 16 o
-1 2 -3 1333.80 1057.90 50.70 16 o
0 4 -2 52.92 43.60 36.70 16 <
-1 -4 -1 69.39 6.50 36.80 16 <
0 2 -1 203.40 138.20 42.30 16 o
1 4 0 194.36 145.60 38.10 16 o
0 -4 1 16.17 6.10 36.90 16 <
2 4 2 64.38 -14.50 36.10 16 <
1 -4 3 103.69 107.40 37.90 16 <
2 0 4 6522.40 5916.90 88.40 16 o
3 4 4 67.97 29.60 35.80 16 <
2 -4 5 84.11 105.60 38.40 16 <
2 -3 5 416.12 403.10 42.80 16 o
3 2 5 43.85 38.20 38.80 16 <
3 0 6 3154.90 3606.20 71.90 16 o
4 4 6 29.60 -15.60 36.20 16 <
3 -4 7 24.97 5.50 37.00 16 <
4 2 7 1013.40 826.80 46.50 16 o
4 0 8 150.17 209.70 41.10 16 o
5 2 9 112.42 175.90 37.70 16 o
5 -1 10 83.10 84.10 37.40 16 <
5 0 10 87.28 64.20 37.70 16 <
6 2 11 311.23 335.40 40.20 16 o
6 -1 12 52.76 54.40 36.30 16 <
-6 0 -14 142.99 -6.90 36.30 17 <
-5 1 -12 42.85 4.20 36.20 17 <
-5 -2 -11 258.39 282.20 39.60 17 o
-5 -1 -11 33.59 -7.80 35.90 17 <
-4 3 -11 34.19 -65.30 38.40 17 <
-4 2 -10 165.58 152.90 38.80 17 o
-4 0 -9 135.59 131.70 39.20 17 o
-4 -3 -8 30.68 14.30 35.90 17 <
-3 1 -7 618.28 471.00 44.00 17 o
-2 4 -7 267.52 -124.50 38.50 17 <
-3 -4 -6 58.96 12.90 36.00 17 <
-3 -3 -6 272.64 193.70 38.50 17 o
-3 -2 -6 152.42 163.40 39.40 17 o
-2 3 -6 181.88 160.40 38.40 17 o
-2 -1 -4 1068.60 999.30 51.80 17 o
0 2 -1 188.89 195.40 43.20 17 o
1 4 0 115.51 -51.60 37.10 17 <
0 -4 1 20.18 5.00 37.50 17 <
2 4 2 42.83 29.80 36.30 17 <
1 -4 3 108.96 70.50 38.90 17 <
1 -3 3 56.99 78.60 39.10 17 <
3 4 4 28.07 11.10 35.90 17 <
2 -4 5 96.68 83.30 39.50 17 <
2 -3 5 332.83 342.90 42.30 17 o
3 3 5 183.33 168.20 37.80 17 o
3 1 6 776.84 770.30 48.10 17 o
4 4 6 11.29 -12.30 35.50 17 <
3 -4 7 28.26 35.40 37.90 17 <
3 -3 7 101.83 134.30 39.10 17 o
3 -2 7 65.19 81.20 38.00 17 <
4 3 7 186.01 165.90 37.90 17 o
4 1 8 40.46 51.70 37.20 17 <
4 -3 9 59.97 35.90 37.50 17 <
4 -2 9 21.64 56.30 36.70 17 <
5 3 9 28.01 26.30 35.60 17 <
5 1 10 55.12 54.20 36.70 17 <
5 -2 11 205.79 230.10 39.30 17 o
6 0 12 40.11 -0.10 36.10 17 <
6 1 12 97.53 136.80 37.40 17 o
-6 -1 -14 100.70 47.70 35.70 18 <
-5 2 -13 34.54 -2.20 35.50 18 <
-5 0 -12 253.31 247.60 39.00 18 o
-4 3 -11 171.86 -4.30 37.70 18 <
-4 1 -10 1141.00 974.40 48.30 18 o
-4 -3 -9 37.76 66.70 35.90 18 <
-4 -2 -9 61.65 67.10 37.00 18 <
-4 -1 -9 158.25 137.30 38.00 18 o
-3 2 -8 574.22 546.70 43.60 18 o
-3 0 -7 359.30 235.60 41.90 18 o
-2 4 -7 154.65 99.40 37.80 18 <
-3 -4 -6 45.51 26.60 36.50 18 <
-2 1 -5 4064.30 3913.20 75.00 18 o
-2 -4 -4 644.75 379.80 41.00 18 o
-2 -3 -4 192.39 211.20 38.50 18 o
-2 -2 -4 1409.60 1289.50 52.50 18 o
-1 3 -4 288.71 352.10 41.20 18 o
-1 -1 -2 336.37 307.10 49.70 18 o
0 2 -1 71.49 58.10 41.50 18 <
1 4 0 130.87 94.10 37.70 18 <
0 -4 1 27.27 22.00 36.80 18 <
2 4 2 41.06 39.00 36.20 18 <
1 -4 3 122.59 106.30 37.70 18 <
1 -3 3 53.61 71.20 38.80 18 <
2 3 3 1751.60 1991.10 57.20 18 o
2 1 4 1133.90 1180.50 53.10 18 o
2 -4 5 160.77 164.70 39.60 18 o
2 -3 5 407.40 426.70 43.20 18 o
2 -2 5 476.88 442.10 43.60 18 o
3 3 5 48.92 35.10 36.60 18 <
3 -2 7 120.20 124.20 38.90 18 o
3 -1 7 537.22 553.90 44.90 18 o
4 3 7 265.49 161.20 38.20 18 o
4 2 8 318.19 318.10 40.70 18 o
4 -1 9 116.22 119.90 38.40 18 o
5 2 10 25.03 14.20 36.40 18 <
5 -1 11 68.74 43.50 36.30 18 <
5 0 11 376.26 474.40 42.30 18 o
6 2 12 97.62 54.90 36.60 18 <
6 -1 13 52.55 26.80 36.10 18 <
6 0 13 86.96 92.20 36.80 18 <
-5 0 -13 161.30 -68.50 37.10 19 <
-5 1 -13 274.01 214.10 38.80 19 o
-5 -2 -12 171.33 136.60 37.30 19 o
-4 3 -12 18.12 11.60 36.30 19 <
-4 2 -11 69.46 -20.20 36.90 19 <
-4 0 -10 556.32 536.20 44.20 19 o
-4 -3 -9 30.89 49.40 36.50 19 <
-3 3 -9 113.59 8.30 36.50 19 <
-3 1 -8 501.47 456.20 43.30 19 o
-3 -2 -7 296.57 257.30 40.30 19 o
-3 -1 -7 661.80 497.00 44.80 19 o
-2 2 -6 875.92 907.60 48.20 19 o
-2 0 -5 2601.20 2616.30 66.00 19 o
-1 4 -5 180.35 128.60 38.40 19 o
-2 -4 -4 290.23 126.20 38.90 19 o
-2 -3 -4 191.97 178.60 39.20 19 o
-1 3 -4 444.67 467.70 42.80 19 o
-1 -1 -2 358.98 170.40 49.00 19 o
0 2 -1 211.02 270.90 44.80 19 o
1 4 0 182.39 203.40 38.90 19 o
0 -4 1 17.70 21.60 37.60 19 <
0 -3 1 31.29 33.80 38.20 19 <
1 -3 3 127.85 104.90 40.00 19 <
1 -2 3 647.48 719.50 48.40 19 o
2 3 3 1535.40 1624.30 53.90 19 o
2 -1 5 3876.30 3979.90 75.70 19 o
3 2 6 317.55 336.50 41.60 19 o
3 0 7 290.49 332.70 42.40 19 o
3 -4 8 153.51 139.40 39.10 19 o
3 -3 8 49.37 74.40 37.90 19 <
4 2 8 353.06 207.20 39.40 19 o
4 0 9 159.18 143.60 39.20 19 o
4 -3 10 352.62 346.30 41.40 19 o
4 -2 10 184.24 158.10 39.20 19 o
5 3 10 53.37 75.60 36.60 19 <
5 1 11 38.75 24.00 36.50 19 <
5 -2 12 209.56 174.90 38.40 19 o
6 1 13 29.76 37.00 36.30 19 <
6 -1 14 53.41 50.00 36.70 19 <
-5 1 -14 388.99 -93.80 37.70 20 <
-5 -2 -13 12.03 -22.80 35.80 20 <
-5 -1 -13 658.19 418.00 41.40 20 o
-4 2 -12 52.50 0.80 36.50 20 <
-4 1 -11 321.13 218.70 39.30 20 o
-4 -3 -10 497.80 398.60 40.90 20 o
-4 -2 -10 196.67 233.10 38.90 20 o
-3 3 -10 232.55 210.10 38.80 20 o
-3 2 -9 1470.20 1401.50 52.90 20 o
-3 0 -8 1801.70 1757.10 57.70 20 o
-2 4 -8 22.08 -5.90 36.30 20 <
-3 -4 -7 17.26 15.80 35.70 20 <
-3 -3 -7 147.86 52.70 37.00 20 <
-2 3 -7 404.77 362.80 40.50 20 o
-1 4 -5 212.17 -46.30 38.30 20 <
-1 1 -3 1155.00 1207.50 57.20 20 o
-1 -2 -2 593.30 865.80 49.60 20 o
0 2 -1 65.80 66.30 42.20 20 <
1 4 0 162.03 156.10 37.80 20 o
0 -4 1 14.47 36.30 37.30 20 <
0 -3 1 60.72 32.70 39.20 20 <
1 3 1 423.98 470.70 42.80 20 o
1 1 2 940.55 813.70 56.90 20 o
1 -2 3 747.11 603.00 47.10 20 o
2 2 4 1733.50 1435.10 54.10 20 o
2 0 5 2506.30 2795.60 67.30 20 o
3 4 5 29.77 12.30 36.40 20 <
2 -4 6 211.73 190.00 39.60 20 o
3 1 7 574.26 616.00 46.10 20 o
3 -4 8 184.25 190.60 39.30 20 o
3 -3 8 198.95 129.10 38.60 20 o
3 -2 8 707.66 592.10 44.20 20 o
4 3 8 14.35 18.00 36.20 20 <
4 -1 10 999.34 895.20 47.70 20 o
5 2 11 324.93 276.10 40.00 20 o
5 0 12 315.87 308.70 40.30 20 o
6 0 14 218.21 173.10 38.20 20 o
6 1 14 138.40 136.10 37.10 20 o
-5 1 -15 137.41 -19.40 36.00 21 <
-5 -1 -14 339.01 -37.80 36.80 21 <
-4 1 -12 101.65 -12.50 35.90 21 <
-4 -1 -11 420.02 331.40 40.40 21 o
-3 3 -10 236.76 278.40 39.00 21 o
-3 1 -9 621.81 551.00 44.70 21 o
-3 -1 -8 611.44 582.70 44.90 21 o
-2 4 -8 9.28 -17.00 36.10 21 <
-2 1 -6 701.88 608.00 47.20 21 o
-2 -2 -5 488.42 548.40 44.10 21 o
-2 -1 -5 3074.70 2945.80 67.70 21 o
-1 4 -5 135.99 135.30 38.20 21 o
-1 -4 -2 200.42 191.30 38.70 21 o
-1 -3 -2 181.88 88.70 38.20 21 <
-1 -2 -2 569.38 566.70 46.10 21 o
0 2 -1 174.79 134.30 42.50 21 o
1 4 0 233.33 275.30 38.90 21 o
0 -4 1 12.33 -0.40 36.60 21 <
0 -3 1 38.89 28.00 38.20 21 <
1 3 1 419.11 483.40 42.40 21 o
1 -1 3 1024.10 1340.20 57.40 21 o
2 4 3 49.82 59.80 37.00 21 <
2 -4 6 301.09 346.30 42.10 21 o
2 -3 6 106.25 96.60 38.70 21 <
2 -2 6 896.07 979.10 49.20 21 o
3 3 6 246.63 202.30 39.00 21 o
3 -1 8 407.09 439.30 43.00 21 o
4 2 9 109.46 73.70 37.90 21 <
4 0 10 509.68 508.70 44.00 21 o
4 -3 11 142.75 144.00 37.50 21 o
4 -2 11 59.55 47.00 37.10 21 <
5 1 12 34.60 31.80 36.60 21 <
5 -2 13 29.85 26.30 36.80 21 <
5 -1 13 146.63 142.70 38.20 21 o
-5 -1 -15 152.70 -61.00 36.80 22 <
-5 0 -15 52.35 -5.80 35.50 22 <
-4 2 -13 162.74 -52.90 36.70 22 <
-4 0 -12 71.40 90.40 37.20 22 <
-4 -3 -11 297.72 203.90 38.00 22 o
-4 -2 -11 38.79 37.00 36.00 22 <
-3 3 -11 80.90 57.30 37.10 22 <
-3 2 -10 75.58 -28.40 38.60 22 <
-3 0 -9 1864.00 2051.20 59.80 22 o
-2 4 -9 233.63 -17.20 36.70 22 <
-3 -4 -8 146.81 18.20 36.30 22 <
-3 -3 -8 232.45 177.20 38.00 22 o
-3 -2 -8 938.65 632.70 44.60 22 o
-2 3 -8 184.20 147.90 38.30 22 o
-2 2 -7 684.57 578.80 44.40 22 o
-2 0 -6 3792.30 3995.70 76.90 22 o
-2 -4 -5 212.89 61.50 37.20 22 <
-2 -3 -5 475.52 465.60 42.00 22 o
-2 -2 -5 403.25 297.80 42.20 22 o
-1 3 -5 525.02 562.00 44.30 22 o
-1 2 -4 1129.20 1157.20 51.70 22 o
0 4 -3 407.91 378.20 41.20 22 o
-1 -4 -2 93.84 83.20 38.00 22 <
-1 -3 -2 58.41 56.60 37.70 22 <
-1 -2 -2 1374.70 659.90 48.30 22 o
0 3 -2 62.13 56.30 37.80 22 <
0 2 -1 419.44 581.10 47.80 22 o
1 4 0 230.00 165.10 38.80 22 o
0 -4 1 121.06 75.40 38.40 22 <
0 -3 1 54.91 75.40 38.40 22 <
1 3 1 411.90 292.30 41.10 22 o
2 4 3 107.98 119.20 37.80 22 o
1 -4 4 209.57 153.50 39.60 22 o
2 1 5 4024.40 3785.20 73.90 22 o
2 -1 6 652.03 643.80 47.30 22 o
3 2 7 142.65 126.60 39.70 22 o
3 -3 9 225.86 161.50 39.20 22 o
3 -2 9 1032.40 1058.90 49.50 22 o
4 3 9 88.64 67.20 37.30 22 <
4 2 10 226.32 250.80 39.80 22 o
4 -1 11 273.17 201.50 38.80 22 o
4 0 11 148.01 215.80 39.60 22 o
5 2 12 145.68 74.50 37.40 22 <
5 1 13 433.76 520.20 43.30 22 o
5 -1 14 399.53 433.60 41.50 22 o
-4 2 -14 34.46 -9.20 36.40 23 <
-4 0 -13 409.93 427.90 41.40 23 o
-4 1 -13 577.49 431.30 42.10 23 o
-4 -3 -12 24.50 7.80 35.80 23 <
-4 -2 -12 81.50 -49.30 36.50 23 <
-4 -1 -12 67.03 15.70 37.00 23 <
-3 1 -10 1289.80 1081.00 50.60 23 o
-3 -1 -9 355.77 366.20 42.70 23 o
-2 4 -9 254.40 224.70 39.10 23 o
-3 -4 -8 275.49 214.20 38.40 23 o
-2 3 -8 155.99 166.60 38.40 23 o
-2 0 -6 3565.10 2917.60 68.80 23 o
-1 4 -6 49.47 -106.90 37.90 23 <
-2 -4 -5 74.58 -16.00 36.50 23 <
-2 -3 -5 369.63 317.10 41.30 23 o
-1 3 -5 556.73 528.70 43.60 23 o
-1 0 -3 7313.40 6951.90 100.50 23 o
0 4 -3 375.49 384.30 41.00 23 o
-1 -4 -2 160.53 138.60 38.70 23 o
-1 -3 -2 136.92 152.40 39.30 23 o
0 3 -2 94.56 96.90 38.40 23 <
0 2 -1 104.43 153.20 43.80 23 o
1 4 0 154.42 -60.30 38.20 23 <
0 -4 1 26.75 -12.40 37.60 23 <
0 -3 1 28.44 43.80 38.80 23 <
1 3 1 489.75 385.80 42.10 23 o
1 0 3 8503.50 8673.40 108.00 23 o
2 4 3 142.15 62.00 38.10 23 <
1 -4 4 275.58 229.80 40.20 23 o
1 -3 4 351.97 507.70 44.00 23 o
2 3 4 226.92 303.60 40.50 23 o
3 4 6 45.13 33.30 36.10 23 <
2 -4 7 160.46 158.50 39.90 23 o
3 3 7 140.11 153.60 38.70 23 o
3 1 8 684.04 589.20 45.60 23 o
3 -2 9 1454.20 1213.70 51.30 23 o
3 -1 9 619.18 438.60 43.60 23 o
4 2 10 293.10 244.80 39.70 23 o
4 1 11 363.00 389.50 41.80 23 o
4 -3 12 24.11 -15.50 36.60 23 <
4 -2 12 48.00 46.60 37.70 23 <
5 2 13 20.97 7.00 36.10 23 <
5 -1 14 338.43 281.00 39.30 23 o
5 0 14 75.24 95.90 37.70 23 <
-4 1 -14 17.38 -27.90 36.30 24 <
-4 -2 -13 221.50 207.30 39.30 24 o
-4 -1 -13 555.38 360.50 41.30 24 o
-3 3 -12 30.80 12.90 36.50 24 <
-3 0 -10 35.05 58.30 38.90 24 <
-3 -3 -9 110.16 73.40 37.20 24 <
-3 -2 -9 1253.00 1043.40 48.60 24 o
-2 3 -9 72.19 -71.60 37.60 24 <
-2 2 -8 59.19 96.30 38.50 24 <
-2 1 -7 2031.70 2116.10 60.70 24 o
-2 -1 -6 934.49 611.40 47.30 24 o
-1 4 -6 64.77 0.40 37.10 24 <
0 4 -3 351.54 434.50 41.40 24 o
-1 -4 -2 80.80 38.20 37.20 24 <
-1 -3 -2 82.76 128.60 38.80 24 o
0 3 -2 72.72 99.50 38.80 24 <
1 4 0 163.24 -64.10 37.70 24 <
0 -4 1 100.50 -14.80 37.80 24 <
0 -3 1 21.54 45.10 38.80 24 <
1 3 1 242.21 332.30 41.30 24 o
1 2 2 1028.70 1031.20 51.20 24 o
2 4 3 91.45 74.50 37.30 24 <
1 -4 4 221.75 187.60 40.50 24 o
1 -3 4 540.03 665.80 46.40 24 o
1 -2 4 1154.40 1069.30 51.90 24 o
2 3 4 194.52 163.20 38.90 24 o
2 2 5 629.31 611.50 44.60 24 o
3 4 6 71.96 93.70 37.00 24 <
2 -4 7 266.59 268.40 41.40 24 o
2 -3 7 254.82 314.70 41.20 24 o
2 -2 7 586.93 664.00 46.00 24 o
3 3 7 258.97 139.50 38.30 24 o
3 2 8 613.40 554.20 44.00 24 o
3 0 9 1574.80 1696.30 55.70 24 o
3 -3 10 306.60 301.00 40.40 24 o
3 -2 10 62.12 111.20 38.70 24 <
4 3 10 595.50 396.80 41.30 24 o
4 2 11 13.60 29.20 36.90 24 <
4 0 12 54.72 60.90 37.30 24 <
4 -2 13 81.12 95.80 37.60 24 <
5 1 14 285.31 261.80 39.10 24 o
5 -1 15 121.72 54.70 37.20 24 <
5 0 15 33.64 18.60 36.20 24 <
-4 0 -15 137.12 -57.60 37.10 25 <
-4 1 -15 150.75 -0.30 35.60 25 <
-4 -2 -14 111.55 91.10 36.50 25 <
-4 -1 -14 46.19 17.80 36.40 25 <
-3 3 -13 56.07 -35.40 36.50 25 <
-3 2 -12 730.37 629.50 44.20 25 o
-3 0 -11 1240.80 1254.70 51.70 25 o
-3 -3 -10 607.71 610.20 43.10 25 o
-3 -2 -10 38.00 57.30 36.70 25 <
-2 3 -9 92.26 -34.70 37.90 25 <
-2 0 -7 2757.00 2429.40 64.60 25 o
-1 4 -7 460.41 -56.70 39.60 25 <
-2 -4 -6 247.42 144.60 38.50 25 o
-2 -3 -6 372.39 285.40 39.70 25 o
-1 2 -5 1840.90 2122.90 59.40 25 o
-1 1 -4 10354.00 10139.00 108.50 25 o
-1 -1 -3 1470.40 1584.30 59.20 25 o
0 4 -3 336.05 218.30 39.40 25 o
-1 -4 -2 42.56 56.80 38.00 25 <
0 3 -2 63.43 57.40 38.40 25 <
0 -4 1 29.58 8.20 37.60 25 <
0 -3 1 35.35 22.30 38.30 25 <
1 2 2 756.38 646.60 47.30 25 o
1 -2 4 1183.00 930.30 50.70 25 o
2 4 4 284.70 278.20 39.70 25 o
2 1 6 714.49 635.70 48.00 25 o
2 -1 7 1963.20 2157.80 60.40 25 o
3 4 7 28.67 -6.00 36.20 25 <
2 -4 8 39.90 37.20 37.40 25 <
3 3 8 223.46 253.60 39.80 25 o
3 1 9 933.52 533.40 44.20 25 o
3 -1 10 952.61 868.70 47.60 25 o
3 -3 11 190.26 162.60 38.30 25 o
4 3 11 191.82 123.40 38.00 25 o
4 1 12 72.01 55.70 37.00 25 <
4 -1 13 501.27 509.90 42.90 25 o
4 0 13 399.38 424.10 41.80 25 o
5 1 15 161.16 97.20 37.20 25 <
-4 1 -16 92.45 -24.10 35.50 26 <
-4 -1 -15 83.69 -6.10 35.80 26 <
-3 2 -13 174.16 -95.30 38.00 26 <
-3 1 -12 33.70 46.90 37.00 26 <
-3 -1 -11 285.80 274.20 40.30 26 o
-3 -3 -10 414.46 318.10 40.10 26 o
-2 3 -10 703.25 653.20 44.20 26 o
-2 2 -9 796.11 775.70 46.40 26 o
-2 1 -8 463.27 373.20 43.20 26 o
-2 -1 -7 1833.10 1825.70 58.20 26 o
-1 4 -7 435.98 41.20 36.60 26 <
-2 -4 -6 134.18 121.20 37.30 26 o
-1 3 -6 543.58 445.50 42.80 26 o
-1 2 -5 2058.00 2058.20 59.30 26 o
-1 -2 -3 939.92 907.20 49.20 26 o
0 4 -3 604.26 461.30 42.20 26 o
0 3 -2 140.33 111.30 38.00 26 <
0 -4 1 19.36 7.30 37.40 26 <
0 -3 1 38.10 27.10 38.80 26 <
1 1 3 1541.90 1661.00 60.20 26 o
1 -1 4 9798.20 9923.50 107.50 26 o
2 4 4 286.63 267.30 39.30 26 o
2 3 5 500.73 582.30 43.90 26 o
2 0 7 2821.50 2706.70 65.80 26 o
3 4 7 38.95 44.00 36.10 26 <
2 -4 8 66.07 69.70 37.60 26 <
2 -3 8 113.82 67.50 38.20 26 <
3 3 8 72.21 82.90 37.50 26 <
3 2 9 1365.10 1284.10 51.40 26 o
3 0 10 89.15 61.20 38.60 26 <
3 -3 11 82.05 74.60 37.80 26 <
3 -2 11 591.93 514.80 43.00 26 o
4 2 12 43.86 40.80 36.20 26 <
4 1 13 862.56 769.70 45.60 26 o
4 -2 14 64.75 101.80 37.80 26 <
4 -1 14 19.56 18.00 36.70 26 <
-4 -1 -16 46.63 -14.10 35.50 27 <
-3 2 -14 72.34 42.40 36.90 27 <
-3 1 -13 27.20 -16.90 36.90 27 <
-3 0 -12 1424.60 1221.40 51.30 27 o
-3 -3 -11 55.57 40.30 36.20 27 <
-3 -2 -11 546.03 421.00 41.70 27 o
-2 0 -8 287.29 241.40 43.60 27 o
-2 -3 -7 281.91 334.10 40.40 27 o
-2 -2 -7 822.12 650.80 45.50 27 o
-1 0 -4 8609.20 8904.80 108.30 27 o
-1 -2 -3 583.39 575.40 47.00 27 o
1 4 0 368.19 332.20 40.50 27 o
0 -3 1 70.32 52.80 39.20 27 <
0 -2 1 127.04 93.20 44.50 27 <
1 1 3 1131.90 1324.10 58.10 27 o
2 4 4 356.87 274.40 39.70 27 o
1 -4 5 305.77 213.90 40.80 27 o
1 -3 5 383.47 343.50 43.90 27 o
2 3 5 285.05 323.80 41.00 27 o
2 2 6 1357.80 1180.80 51.50 27 o
2 -2 8 72.43 86.30 39.30 27 <
2 -1 8 426.35 464.50 44.50 27 o
3 4 8 142.45 148.00 37.30 27 o
2 -4 9 459.83 388.60 42.10 27 o
3 1 10 1059.60 857.30 47.60 27 o
3 0 11 1188.60 1206.70 50.70 27 o
3 -3 12 32.25 37.00 37.20 27 <
3 -2 12 650.22 569.00 44.50 27 o
4 3 12 26.22 -11.40 36.30 27 <
4 2 13 267.06 199.30 39.00 27 o
4 0 14 198.13 211.90 39.50 27 o
4 -1 15 156.80 120.90 37.30 27 o
-3 2 -15 93.87 45.30 36.50 28 <
-3 1 -14 302.25 191.30 38.50 28 o
-3 -1 -13 52.85 43.60 36.20 28 <
-3 0 -13 444.86 228.00 39.60 28 o
-3 -3 -12 6.65 18.00 35.70 28 <
-3 -2 -12 522.82 397.50 41.20 28 o
-2 3 -11 16.43 -1.90 36.90 28 <
-2 2 -10 160.98 144.70 38.90 28 o
-2 -1 -8 257.92 255.00 42.00 28 o
-1 4 -8 23.54 -95.40 38.80 28 <
-2 -4 -7 183.34 66.90 37.60 28 <
-1 3 -7 63.44 30.90 37.20 28 <
-1 2 -6 323.93 417.10 43.20 28 o
-1 1 -5 5536.10 5768.30 86.50 28 o
-1 -4 -3 186.53 140.10 38.30 28 o
-1 -3 -3 71.31 120.10 38.80 28 o
0 -4 1 50.31 70.80 38.00 28 <
0 -3 1 123.01 162.80 40.30 28 o
0 -2 1 151.80 183.10 43.80 28 o
1 4 1 116.55 88.50 37.10 28 <
1 3 2 145.00 161.70 39.10 28 o
1 0 4 6112.40 5841.10 91.90 28 o
1 -4 5 318.00 247.70 40.70 28 o
1 -3 5 528.88 554.90 44.70 28 o
1 -2 5 1160.20 1138.60 50.80 28 o
2 4 5 73.18 1.10 36.40 28 <
2 0 8 256.83 232.30 41.50 28 o
2 -4 9 227.03 181.70 39.80 28 o
2 -3 9 129.65 151.50 39.00 28 o
2 -2 9 819.57 803.20 47.20 28 o
3 2 10 33.80 23.60 37.10 28 <
3 1 11 121.05 158.40 38.70 28 o
3 -1 12 21.38 45.00 36.30 28 <
3 -3 13 21.05 -6.40 36.40 28 <
4 2 14 10.23 16.80 35.90 28 <
4 0 15 97.66 83.50 36.60 28 <
4 -1 16 95.71 82.40 36.90 28 <
-3 1 -15 665.51 412.00 41.20 29 o
-3 -1 -14 296.47 233.80 39.80 29 o
-3 0 -14 143.68 113.50 37.80 29 o
-3 -3 -13 61.82 36.20 35.80 29 <
-3 -2 -13 124.90 103.50 37.20 29 <
-2 3 -12 24.22 -9.20 36.30 29 <
-2 2 -11 265.39 264.60 40.60 29 o
-2 1 -10 2584.40 2498.90 63.00 29 o
-2 -4 -8 42.52 27.70 36.10 29 <
-2 -3 -8 49.61 66.30 37.00 29 <
-2 -2 -8 116.35 57.60 38.50 29 <
-1 4 -8 40.99 33.00 36.90 29 <
-1 3 -7 133.12 66.60 37.70 29 <
-1 2 -6 209.47 264.50 41.30 29 o
-1 -1 -4 9174.60 9326.20 104.80 29 o
0 4 -4 24.72 -63.40 38.00 29 <
-1 -4 -3 168.39 133.40 38.80 29 o
-1 -3 -3 40.34 52.90 38.10 29 <
0 -4 1 148.87 101.90 38.70 29 <
0 -3 1 107.47 110.80 40.40 29 <
0 -2 1 159.01 154.50 44.20 29 o
1 4 1 95.97 59.70 36.80 29 <
1 3 2 197.34 119.60 38.70 29 o
1 2 3 873.81 799.50 48.90 29 o
1 -1 5 6315.10 6722.50 91.90 29 o
2 4 5 165.94 115.30 37.60 29 o
1 -4 6 54.17 57.40 38.80 29 <
2 3 6 209.03 165.50 38.80 29 o
2 2 7 725.64 661.30 45.80 29 o
2 1 8 301.01 421.30 43.60 29 o
2 -1 9 378.00 620.50 45.30 29 o
3 3 10 447.55 386.10 40.80 29 o
3 2 11 575.94 524.50 42.90 29 o
3 1 12 33.09 49.60 37.00 29 <
3 -2 13 50.45 50.80 37.50 29 <
3 -1 13 30.66 43.40 37.10 29 <
4 0 16 100.55 133.40 37.30 29 o
-3 1 -17 463.06 -250.00 40.60 30 <
-3 0 -16 303.03 258.30 39.00 30 o
-3 1 -16 135.64 61.30 36.90 30 <
-3 -1 -15 519.20 381.20 40.20 30 o
-3 -2 -14 249.74 223.50 38.40 30 o
-2 3 -13 180.46 161.60 38.00 30 o
-2 2 -12 281.43 271.00 40.00 30 o
-2 1 -11 271.25 231.40 40.60 30 o
-2 0 -10 1111.20 885.40 48.00 30 o
-2 -4 -9 266.73 -58.60 37.30 30 <
-2 -3 -9 526.64 262.70 39.30 30 o
-2 -2 -9 746.26 765.80 45.90 30 o
-1 4 -9 41.81 6.30 36.30 30 <
-2 -4 -8 28.26 18.00 36.20 30 <
-1 3 -8 104.13 -38.40 37.80 30 <
-1 0 -5 8980.70 10289.50 110.10 30 o
-1 -2 -4 1356.10 1358.20 53.20 30 o
0 4 -4 14.70 -1.00 36.50 30 <
-1 -4 -3 150.89 47.30 37.50 30 <
0 3 -3 518.60 312.50 40.50 30 o
0 -4 1 126.61 108.80 39.10 30 <
0 -3 1 153.07 160.70 39.30 30 o
0 -2 1 178.05 187.60 43.40 30 o
1 4 1 179.10 149.40 38.10 30 o
1 3 2 99.87 66.50 38.00 30 <
1 2 3 638.21 565.80 46.40 30 o
1 1 4 8342.30 8380.90 99.80 30 o
1 -1 5 7702.10 6119.60 87.30 30 o
2 4 5 141.41 -64.60 37.00 30 <
1 -4 6 67.61 55.00 38.50 30 <
1 -3 6 199.06 163.50 40.60 30 o
2 0 9 2533.20 2184.40 59.80 30 o
2 -3 10 727.68 650.50 45.10 30 o
2 -2 10 258.36 185.50 39.50 30 o
3 3 11 30.09 35.30 36.40 30 <
3 2 12 800.88 707.80 45.10 30 o
3 0 13 419.08 248.50 39.40 30 o
3 -2 14 131.83 108.20 37.80 30 <
3 -1 14 153.15 120.20 37.80 30 o
-3 0 -17 30.85 2.90 35.70 31 <
-3 -1 -16 193.61 123.40 37.60 31 o
-2 3 -14 35.03 12.20 35.70 31 <
-2 2 -13 25.59 13.60 36.60 31 <
-2 1 -12 157.58 97.70 38.00 31 <
-2 0 -11 629.05 741.20 46.40 31 o
-2 -2 -10 170.96 255.90 39.30 31 o
-2 -1 -10 2042.50 1824.30 56.70 31 o
-1 4 -10 295.68 -73.90 37.20 31 <
-2 -4 -9 235.42 -73.90 37.00 31 <
-2 -3 -9 160.76 -68.20 38.60 31 <
-1 3 -8 240.08 243.40 40.10 31 o
-1 2 -7 1753.70 1736.10 55.60 31 o
-1 1 -6 2986.90 2677.30 65.90 31 o
-1 -4 -4 511.18 427.00 41.90 31 o
-1 -3 -4 658.41 515.80 44.00 31 o
-1 -2 -4 1208.10 1053.60 50.70 31 o
0 4 -4 15.91 -37.90 37.30 31 <
0 3 -3 326.49 321.10 41.00 31 o
0 -4 1 138.08 35.50 38.10 31 <
0 -3 1 105.33 91.90 39.00 31 <
0 -2 1 274.06 333.30 45.50 31 o
1 4 1 67.05 71.80 37.10 31 <
1 3 2 51.02 55.20 37.40 31 <
1 0 5 8913.20 9991.40 108.00 31 o
1 -4 6 62.44 58.70 38.80 31 <
1 -3 6 223.27 260.90 41.50 31 o
1 -2 6 128.35 115.60 40.20 31 <
2 4 6 156.08 109.30 38.00 31 <
2 3 7 327.74 271.90 40.40 31 o
2 2 8 198.48 148.40 39.70 31 o
2 1 9 388.06 468.60 43.50 31 o
2 -1 10 1922.10 1675.90 55.50 31 o
2 -3 11 15.97 13.90 37.20 31 <
3 3 12 7.22 15.90 36.00 31 <
3 2 13 184.57 164.80 38.40 31 o
3 0 14 103.78 145.50 37.50 31 o
3 -2 15 37.15 28.20 36.90 31 <
3 -1 15 454.50 448.10 41.70 31 o
-2 2 -14 28.36 -9.30 36.20 32 <
-2 1 -13 208.04 262.40 39.80 32 o
-2 0 -12 402.16 331.30 41.10 32 o
-2 -2 -11 178.41 178.10 38.30 32 o
-2 -1 -11 34.46 32.20 37.30 32 <
-2 -3 -10 637.12 499.30 42.00 32 o
-1 3 -9 502.97 488.80 42.20 32 o
-1 2 -8 88.67 70.30 38.00 32 <
-1 -1 -5 6168.10 6217.30 88.60 32 o
0 4 -5 198.25 226.80 38.90 32 o
-1 -4 -4 214.90 224.30 39.30 32 o
-1 -3 -4 401.96 452.50 42.80 32 o
0 3 -3 324.66 251.40 40.10 32 o
0 2 -2 257.67 251.30 43.50 32 o
0 1 -1 718.84 792.40 60.40 32 o
0 -2 1 156.56 140.00 42.80 32 o
1 4 1 171.06 -78.70 38.50 32 <
0 -4 2 36.54 -11.20 37.50 32 <
1 3 2 178.36 143.70 38.90 32 o
1 -1 6 2070.00 2065.10 61.10 32 o
2 4 6 143.43 151.90 37.70 32 o
1 -4 7 288.45 268.10 40.80 32 o
1 -3 7 93.28 80.30 38.70 32 <
2 2 9 766.86 786.20 46.30 32 o
2 -1 11 116.58 86.70 38.70 32 <
2 -3 12 48.83 55.90 37.00 32 <
3 3 12 36.39 37.80 36.20 32 <
3 1 14 301.29 220.40 39.20 32 o
3 0 15 137.32 81.30 37.80 32 <
3 -1 16 100.00 132.30 37.60 32 o
-2 2 -16 242.34 210.30 39.10 33 o
-2 2 -15 113.14 -24.90 36.10 33 <
-2 1 -14 50.54 -4.80 36.30 33 <
-2 0 -13 43.06 81.10 36.60 33 <
-2 -3 -12 44.08 38.80 35.90 33 <
-2 -2 -12 167.12 157.80 37.90 33 o
-2 -1 -12 37.59 19.50 37.00 33 <
-2 -3 -11 30.17 37.70 36.00 33 <
-1 3 -10 650.39 634.40 44.10 33 o
-1 1 -7 432.02 327.20 45.30 33 o
-1 -4 -5 644.17 399.40 41.30 33 o
-1 -3 -5 609.55 614.40 44.70 33 o
-1 -2 -5 1604.80 1543.90 54.80 33 o
0 4 -5 15.32 17.10 36.60 33 <
-1 -4 -4 291.56 250.00 40.00 33 o
0 3 -3 674.43 603.80 43.90 33 o
0 2 -2 104.47 203.70 42.90 33 o
0 1 -1 165.18 260.90 56.90 33 o
0 -2 1 224.47 214.10 44.50 33 o
1 4 1 64.38 34.00 36.50 33 <
0 -4 2 16.26 20.70 37.20 33 <
0 -3 2 126.37 107.70 38.50 33 <
1 3 3 95.72 91.20 37.80 33 <
1 2 4 1290.00 1281.60 52.50 33 o
1 1 5 7130.90 7300.50 94.20 33 o
1 0 6 619.48 757.60 49.40 33 o
1 -4 7 615.04 470.30 43.50 33 o
1 -3 7 120.93 96.80 39.20 33 <
1 -2 7 1722.70 1619.40 55.40 33 o
2 4 7 235.54 192.50 37.80 33 o
1 -4 8 25.87 20.80 38.10 33 <
2 3 8 146.82 115.40 37.70 33 o
2 0 11 713.96 629.10 44.90 33 o
2 -2 12 259.25 227.90 39.50 33 o
2 -1 12 102.04 67.00 37.30 33 <
2 -3 13 165.68 162.00 38.40 33 o
3 3 13 23.95 -2.30 35.90 33 <
3 2 15 87.91 62.00 36.30 33 <
3 0 16 254.59 237.30 39.20 33 o
3 1 16 119.71 128.20 37.80 33 o
3 -1 17 306.62 240.60 39.20 33 o
-2 1 -16 121.39 86.30 37.20 34 <
-2 0 -15 51.51 58.00 36.50 34 <
-2 -1 -14 25.47 13.70 36.70 34 <
-2 -3 -13 169.53 -80.70 36.80 34 <
-2 -2 -13 16.24 -4.80 36.20 34 <
-2 -3 -12 30.86 11.80 36.10 34 <
-1 3 -11 372.00 349.50 40.90 34 o
-1 2 -9 151.62 155.70 39.50 34 o
-1 1 -8 1124.30 1389.10 53.90 34 o
-1 0 -7 6370.30 6072.40 88.20 34 o
-1 -1 -6 2594.60 2313.60 62.60 34 o
-1 -4 -5 345.51 298.60 40.00 34 o
-1 -3 -5 568.13 521.80 44.00 34 o
0 4 -5 150.74 -44.10 37.70 34 <
0 3 -4 203.92 143.90 39.60 34 o
0 2 -2 215.15 173.10 44.20 34 o
0 1 -1 284.56 404.80 57.80 34 o
1 4 1 91.69 -23.00 37.20 34 <
0 -4 2 53.37 -2.70 37.60 34 <
0 -3 2 32.98 22.50 38.30 34 <
1 4 2 198.87 186.30 38.60 34 o
1 3 3 67.76 37.70 38.00 34 <
1 -1 7 312.58 246.30 43.50 34 o
1 -4 8 32.36 34.80 38.10 34 <
1 -3 8 237.87 267.20 40.90 34 o
2 4 8 23.49 14.50 36.20 34 <
2 3 9 39.79 34.60 36.60 34 <
2 2 10 197.95 181.40 39.30 34 o
2 1 11 35.01 23.40 37.80 34 <
2 0 12 359.31 253.50 41.10 34 o
2 -2 13 14.14 11.60 36.60 34 <
2 -1 13 154.15 185.10 38.50 34 o
2 -3 14 13.38 16.60 36.10 34 <
3 1 17 441.54 355.50 40.10 34 o
-2 1 -18 127.70 -28.90 36.00 35 <
-2 0 -17 15.57 22.30 35.80 35 <
-2 1 -17 344.99 23.20 35.60 35 <
-2 -1 -16 41.37 57.50 36.30 35 <
-2 0 -16 282.16 250.20 39.40 35 o
-2 -2 -15 48.16 66.60 36.10 35 <
-2 -1 -15 102.32 52.70 37.20 35 <
-2 -3 -14 24.62 5.60 35.80 35 <
-2 -2 -14 67.37 21.20 36.10 35 <
-1 3 -12 54.19 11.50 36.90 35 <
-1 2 -10 1269.80 1266.40 51.70 35 o
-1 1 -9 3286.20 3053.70 68.80 35 o
-1 0 -8 171.26 165.20 45.20 35 o
-1 -1 -7 253.46 305.30 44.80 35 o
-1 -4 -6 38.10 16.00 36.70 35 <
-1 -3 -6 440.27 438.00 42.20 35 o
-1 -2 -6 187.31 224.70 41.30 35 o
0 4 -6 525.92 514.30 42.80 35 o
-1 -4 -5 332.33 239.60 39.20 35 o
0 4 -5 13.07 9.90 36.40 35 <
0 3 -4 112.25 142.60 38.80 35 o
0 2 -2 107.35 112.00 43.10 35 <
0 1 -1 235.98 230.00 56.50 35 o
0 -4 2 26.08 50.30 37.30 35 <
0 -3 2 53.83 33.70 38.80 35 <
1 4 2 25.24 28.30 36.30 35 <
1 3 3 204.08 202.40 39.60 35 o
1 2 5 1940.40 1844.40 57.90 35 o
1 1 6 3433.70 3328.60 71.10 35 o
1 0 7 6645.00 6609.20 91.10 35 o
1 -4 8 13.37 -18.00 37.90 35 <
1 -3 8 207.45 282.00 41.40 35 o
1 -2 8 45.31 40.70 38.80 35 <
2 4 8 12.61 21.80 35.80 35 <
1 -4 9 32.77 17.10 37.80 35 <
2 4 9 141.75 148.20 37.80 35 o
2 3 10 720.83 601.80 43.30 35 o
2 2 11 131.20 112.10 38.20 35 <
2 1 12 262.73 276.10 40.40 35 o
2 0 13 30.26 42.90 36.80 35 <
2 -3 14 17.45 15.00 36.70 35 <
2 -2 14 91.86 48.50 37.30 35 <
2 -1 14 67.12 51.80 36.60 35 <
-2 -1 -18 124.57 11.90 35.50 36 <
-2 -1 -17 325.42 243.50 38.40 36 o
-2 -2 -16 352.54 -135.20 37.90 36 <
-1 3 -14 273.33 189.10 39.70 36 o
-1 3 -13 776.74 751.70 45.10 36 o
-1 2 -12 223.38 179.30 39.80 36 o
-1 1 -10 4452.30 4052.10 75.60 36 o
-1 0 -9 619.00 913.80 51.80 36 o
-1 -1 -8 1172.80 1369.70 55.50 36 o
-1 -4 -7 926.56 541.30 42.70 36 o
-1 -3 -7 177.02 186.40 39.00 36 o
-1 -2 -7 1917.70 1618.70 55.60 36 o
0 4 -7 16.57 -10.80 37.10 36 <
-1 -4 -6 27.58 -38.10 36.90 36 <
-1 -3 -6 441.38 449.50 42.70 36 o
0 4 -6 740.24 797.30 46.00 36 o
0 3 -5 77.67 48.20 39.30 36 <
0 3 -4 118.13 113.20 39.40 36 <
0 2 -3 7347.70 7314.20 94.20 36 o
0 1 -1 360.54 609.50 62.00 36 o
0 -1 1 534.15 777.40 62.50 36 o
0 -4 2 67.00 42.10 38.00 36 <
0 -3 2 35.64 73.60 38.90 36 <
1 4 2 228.95 231.60 38.60 36 o
1 3 4 819.56 944.30 47.80 36 o
1 2 5 2361.10 2034.80 59.20 36 o
1 -4 9 48.31 60.60 37.80 36 <
1 -3 9 897.97 824.70 47.40 36 o
1 -2 9 232.85 360.50 42.30 36 o
2 4 9 138.74 138.50 37.50 36 o
1 -4 10 330.14 352.40 41.70 36 o
1 -3 10 1196.20 1179.60 51.00 36 o
2 3 11 48.56 -9.60 36.70 36 <
2 2 12 313.33 271.10 40.20 36 o
2 0 14 47.99 15.10 36.80 36 <
2 1 14 80.43 91.40 37.60 36 <
2 -1 15 168.06 168.20 38.20 36 o
2 0 15 62.36 31.80 37.30 36 <
2 -2 16 258.10 226.00 39.50 36 o
-1 2 -14 130.27 102.80 37.90 37 <
-1 2 -13 151.05 151.70 38.30 37 o
-1 1 -12 9.53 -0.50 37.90 37 <
-1 1 -11 757.42 623.80 45.40 37 o
-1 0 -10 1902.80 1999.10 58.50 37 o
-1 -1 -9 1572.90 1731.10 56.80 37 o
-1 -4 -8 23.66 55.30 36.40 37 <
-1 -3 -8 156.11 181.80 38.60 37 o
-1 -2 -8 30.39 33.50 37.80 37 <
-1 -4 -7 375.45 214.20 38.30 37 o
-1 -3 -7 91.11 52.00 37.30 37 <
0 4 -7 9.19 13.10 36.50 37 <
0 4 -6 334.45 449.40 41.60 37 o
0 3 -5 67.26 51.20 38.30 37 <
0 2 -3 4453.70 4109.40 74.30 37 o
0 -1 1 77.42 81.80 53.70 37 <
0 -4 2 26.03 17.00 37.20 37 <
0 -3 2 26.91 23.40 38.10 37 <
1 4 2 107.27 88.30 36.80 37 <
1 4 3 112.17 111.70 36.90 37 o
1 3 4 722.59 707.30 44.30 37 o
1 2 6 123.62 71.60 39.30 37 <
1 -1 9 1415.20 1352.40 52.80 37 o
1 -4 10 180.38 130.30 38.40 37 o
1 -3 10 777.55 837.50 47.10 37 o
1 -2 10 668.46 721.70 46.20 37 o
2 3 12 12.14 7.80 35.50 37 <
2 2 14 30.37 29.90 36.30 37 <
2 1 15 70.78 53.30 37.00 37 <
2 -1 16 81.27 68.70 36.90 37 <
2 0 16 187.07 152.50 38.00 37 o
2 -1 17 154.32 147.50 38.00 37 o
-1 2 -17 24.70 -1.80 36.10 38 <
-1 2 -16 969.84 897.20 46.00 38 o
-1 2 -15 400.90 387.30 41.00 38 o
-1 1 -14 557.69 505.50 42.70 38 o
-1 1 -13 1275.80 1113.60 49.20 38 o
-1 0 -12 301.38 194.00 40.10 38 o
-1 -1 -11 769.59 618.40 44.90 38 o
-1 0 -11 25.20 -50.00 39.60 38 <
-1 -2 -10 924.87 1076.50 48.10 38 o
-1 -1 -10 2517.30 2244.70 60.80 38 o
-1 -4 -9 21.14 -10.20 35.70 38 <
-1 -3 -9 522.69 434.20 41.60 38 o
-1 -2 -9 100.80 142.10 39.00 38 o
0 4 -9 413.11 -114.30 38.70 38 <
-1 -4 -8 46.90 9.40 36.50 38 <
-1 -3 -8 201.61 242.80 39.70 38 o
0 4 -8 9.00 2.20 36.40 38 <
0 4 -7 5.66 -0.80 36.60 38 <
0 3 -6 2679.30 2697.20 63.00 38 o
0 3 -5 32.22 38.60 37.10 38 <
0 2 -3 3803.00 3892.00 73.00 38 o
0 -1 1 237.06 282.10 54.90 38 o
0 -4 2 46.68 4.80 37.70 38 <
0 -3 2 45.67 43.80 38.60 38 <
0 -2 2 74.88 68.90 42.20 38 <
1 4 2 83.96 65.00 36.10 38 <
0 -4 3 508.38 381.90 41.90 38 o
1 4 3 89.40 79.70 36.00 38 <
1 3 5 558.46 504.40 42.20 38 o
1 2 7 1739.20 1636.60 54.30 38 o
1 1 8 1174.90 1170.10 51.90 38 o
1 0 9 433.93 522.60 45.20 38 o
1 -1 10 2280.20 2032.70 59.10 38 o
1 -3 11 224.59 232.90 39.50 38 o
1 -2 11 4.97 2.60 37.10 38 <
1 -3 12 21.46 23.60 37.40 38 <
2 3 13 102.10 75.00 36.70 38 <
2 3 14 8.81 -11.20 35.60 38 <
2 2 15 52.28 38.40 36.10 38 <
2 1 16 50.53 22.30 36.00 38 <
2 0 17 8.01 -17.10 35.60 38 <
2 1 17 116.87 78.50 36.90 38 <
2 -1 18 47.25 12.80 35.90 38 <
2 0 18 41.72 23.40 35.90 38 <
-1 1 -18 8.29 5.80 35.80 39 <
-1 1 -17 28.40 25.30 35.60 39 <
-1 1 -16 64.47 69.90 37.20 39 <
-1 0 -15 748.91 752.70 45.20 39 o
-1 0 -14 156.99 160.30 38.50 39 o
-1 -1 -13 1075.70 1070.90 48.80 39 o
-1 -2 -12 138.45 112.60 37.30 39 o
-1 -1 -12 26.15 -34.10 37.60 39 <
-1 -3 -11 279.15 197.70 38.60 39 o
-1 -2 -11 15.62 31.00 36.40 39 <
-1 -4 -10 396.22 316.90 39.40 39 o
-1 -3 -10 1125.50 1031.60 48.10 39 o
0 4 -10 38.05 5.60 36.50 39 <
-1 -4 -9 50.95 26.40 36.50 39 <
0 4 -9 616.85 469.80 41.70 39 o
0 3 -7 23.17 22.10 37.80 39 <
0 3 -6 3220.30 3022.20 65.60 39 o
0 2 -4 30.32 16.40 41.20 39 <
0 -2 2 47.87 45.50 42.60 39 <
0 -4 3 801.93 721.80 45.60 39 o
0 -3 3 499.21 452.90 43.90 39 o
1 4 3 112.87 87.10 37.00 39 <
1 3 5 532.80 533.70 42.70 39 o
1 3 6 288.36 247.30 40.20 39 o
1 2 7 2063.60 1671.40 55.30 39 o
1 2 8 105.32 63.80 39.20 39 <
1 1 9 2213.70 2142.10 60.80 39 o
1 0 11 36.02 76.00 38.30 39 <
1 -2 12 136.37 105.70 38.20 39 <
1 -1 12 20.65 33.40 38.00 39 <
1 -3 13 802.66 666.40 44.80 39 o
1 -2 13 428.45 361.30 40.80 39 o
2 1 18 92.74 68.70 36.20 39 <
-1 0 -19 336.31 -135.90 38.00 40 <
-1 -1 -18 19.64 -36.30 35.80 40 <
-1 0 -18 30.99 12.00 35.70 40 <
-1 -2 -17 32.51 -39.20 36.20 40 <
-1 -1 -17 11.49 31.80 35.90 40 <
-1 0 -17 92.50 -45.60 36.80 40 <
-1 -2 -16 1129.40 1194.70 49.50 40 o
-1 -1 -16 48.90 71.00 36.90 40 <
-1 -2 -15 588.73 521.60 42.80 40 o
-1 -1 -15 151.43 -44.30 36.70 40 <
-1 -3 -14 314.87 287.90 39.40 40 o
-1 -2 -14 142.20 151.80 37.50 40 o
-1 -3 -13 584.35 505.90 41.40 40 o
-1 -2 -13 203.16 203.90 38.80 40 o
-1 -3 -12 26.38 2.30 36.00 40 <
0 3 -9 1491.40 1389.40 52.10 40 o
0 3 -8 24.46 23.00 37.50 40 <
0 3 -7 32.84 -2.40 38.20 40 <
0 2 -5 127.51 78.80 43.10 40 <
0 2 -4 66.35 26.40 42.70 40 <
0 1 -2 516.69 657.00 60.00 40 o
0 -2 2 66.43 71.10 42.90 40 <
0 -4 3 1085.80 952.50 48.30 40 o
0 -3 3 610.08 547.50 44.80 40 o
0 -2 3 5689.40 5543.10 84.50 40 o
1 4 3 127.96 94.20 37.20 40 <
0 -4 4 18.07 23.90 37.60 40 <
0 -3 4 79.20 80.30 39.60 40 <
1 4 4 482.64 328.30 39.80 40 o
1 4 5 384.87 368.60 40.30 40 o
1 3 6 543.12 418.90 42.30 40 o
1 3 7 358.70 264.60 39.90 40 o
1 2 9 196.48 281.00 41.00 40 o
1 1 11 913.19 865.50 48.40 40 o
1 0 12 400.96 274.00 40.80 40 o
1 -1 13 953.20 864.80 47.10 40 o
1 0 13 454.93 341.80 41.80 40 o
1 -3 14 313.79 247.10 39.70 40 o
1 -2 14 117.14 143.50 38.20 40 o
1 -1 14 655.01 595.90 43.70 40 o
1 -2 15 525.79 470.10 42.10 40 o
0 3 -12 372.95 355.90 40.50 41 o
0 3 -11 19.22 4.50 37.00 41 <
0 3 -10 7.27 -16.10 37.20 41 <
0 3 -9 1484.70 1388.20 51.50 41 o
0 2 -6 4331.20 4948.30 79.80 41 o
0 2 -5 112.04 104.20 41.70 41 <
0 1 -2 472.11 521.50 57.60 41 o
0 -1 2 525.58 589.90 57.30 41 o
0 -4 3 1543.90 1238.40 50.80 41 o
0 -3 3 737.84 498.00 44.30 41 o
0 -2 3 4645.40 4599.30 78.80 41 o
0 -4 4 9.82 12.00 37.30 41 <
0 -3 4 108.95 50.30 39.30 41 <
1 4 4 217.96 143.10 37.70 41 o
0 -4 5 17.50 16.30 37.40 41 <
1 4 5 185.37 193.90 38.20 41 o
1 4 6 29.64 38.60 36.20 41 <
1 3 8 168.31 167.10 38.80 41 o
1 3 9 538.22 562.30 43.20 41 o
1 2 10 1426.20 1027.70 49.20 41 o
1 2 11 49.97 104.70 37.80 41 <
1 1 13 1365.30 1200.80 50.80 41 o
1 0 14 238.40 202.80 39.40 41 o
1 -1 15 105.83 66.00 37.30 41 <
1 0 15 718.36 736.30 45.90 41 o
1 -2 16 1207.50 925.40 47.30 41 o
1 -1 16 141.40 147.30 38.00 41 o
1 -2 17 18.26 17.20 36.70 41 <
0 3 -15 146.87 16.20 38.10 42 <
0 3 -14 12.36 7.10 36.20 42 <
0 3 -13 11.77 5.00 36.30 42 <
0 2 -10 187.35 198.10 40.20 42 o
0 2 -9 2292.00 2218.90 60.10 42 o
0 2 -8 137.06 119.10 40.00 42 <
0 2 -7 60.99 42.30 40.50 42 <
0 1 -4 1960.00 1977.30 63.50 42 o
0 1 -3 4198.30 4403.10 82.70 42 o
0 -1 2 345.22 368.00 56.00 42 o
0 -2 3 5338.10 4447.40 78.20 42 o
0 -4 4 5.43 1.30 37.40 42 <
0 -3 4 127.08 99.60 40.10 42 <
0 -2 4 29.78 38.20 42.00 42 <
0 -4 5 23.03 7.90 38.10 42 <
0 -3 5 35.96 55.50 39.90 42 <
1 4 5 396.45 218.50 38.60 42 o
0 -4 6 697.77 697.30 46.90 42 o
0 -3 6 2891.50 3033.70 67.00 42 o
1 4 6 37.75 84.60 36.50 42 <
1 4 7 442.51 265.20 39.10 42 o
1 3 9 547.89 410.00 41.30 42 o
1 3 10 816.11 676.90 44.50 42 o
1 3 11 202.75 226.80 39.30 42 o
1 2 12 139.44 124.60 38.10 42 o
1 2 13 299.31 159.80 38.10 42 o
1 2 14 143.53 215.50 38.80 42 o
1 1 15 130.44 119.50 37.90 42 o
1 1 16 211.34 152.00 38.20 42 o
1 0 17 81.06 71.80 36.60 42 <
1 -1 18 13.63 7.40 36.00 42 <
1 0 18 34.97 14.00 36.20 42 <
0 2 -18 68.05 -29.50 36.60 43 <
0 2 -17 24.49 6.60 36.30 43 <
0 2 -16 46.57 -20.30 37.50 43 <
0 2 -15 201.61 -109.20 39.00 43 <
0 2 -14 29.15 3.20 37.50 43 <
0 2 -13 103.42 -4.00 37.70 43 <
0 2 -12 524.40 591.30 44.20 43 o
0 2 -11 109.27 60.30 38.30 43 <
0 2 -10 163.61 178.70 40.40 43 o
0 1 -6 26105.00 26457.00 166.50 43 o
0 1 -5 515.07 542.80 52.90 43 o
0 1 -4 1663.30 1574.00 61.90 43 o
0 -1 3 5405.70 5000.90 85.60 43 o
0 -4 4 6.86 -15.00 38.20 43 <
0 -2 4 12.49 14.80 42.30 43 <
0 -4 5 23.74 -12.30 38.00 43 <
0 -3 5 32.65 48.60 40.10 43 <
0 -2 5 93.28 110.90 42.80 43 <
0 -4 6 1091.10 1122.30 50.10 43 o
0 -3 6 3101.00 2686.60 65.60 43 o
0 -2 6 4564.10 4969.40 80.70 43 o
0 -4 7 4.19 46.50 38.40 43 <
0 -3 7 62.81 82.10 40.30 43 <
1 4 7 347.66 298.50 39.50 43 o
0 -4 8 28.27 19.80 38.30 43 <
1 4 8 72.93 75.20 36.70 43 <
1 4 9 36.66 43.30 36.00 43 <
1 4 10 280.96 196.60 38.50 43 o
1 3 12 25.98 14.90 36.30 43 <
1 3 13 801.43 556.00 42.90 43 o
1 3 14 292.41 255.90 39.10 43 o
1 2 15 617.44 494.00 42.80 43 o
1 2 16 1330.40 1233.10 50.00 43 o
1 2 17 18.60 13.70 36.20 43 <
1 1 18 33.23 11.50 36.40 43 <
0 0 -19 14.95 -24.50 35.40 44 <
0 1 -19 77.57 -8.70 35.20 44 <
0 0 -18 44.99 -65.40 36.40 44 <
0 1 -18 376.12 -129.60 37.60 44 <
0 1 -17 119.12 0.20 35.80 44 <
0 1 -16 34.12 -35.00 36.70 44 <
0 1 -15 1588.80 1111.60 48.70 44 o
0 1 -14 132.70 104.60 38.10 44 <
0 1 -13 43.38 91.40 38.10 44 <
0 1 -12 1330.80 1487.00 53.30 44 o
0 1 -11 54.72 73.50 40.20 44 <
0 1 -10 231.72 214.10 42.70 44 o
0 1 -9 4821.30 4780.60 79.10 44 o
0 1 -8 204.07 281.80 45.60 44 o
0 1 -7 205.02 260.00 48.70 44 o
0 -1 4 1308.30 1273.30 57.90 44 o
0 -1 5 432.95 459.80 51.60 44 o
0 -2 6 3423.10 3931.90 74.10 44 o
0 -4 7 3.82 -6.50 37.60 44 <
0 -3 7 41.97 25.70 39.60 44 <
0 -2 7 45.22 67.60 40.80 44 <
0 -4 8 21.24 44.30 37.70 44 <
0 -3 8 40.08 30.50 38.70 44 <
0 -2 8 94.51 101.30 39.90 44 <
1 4 8 33.69 34.70 35.30 44 <
0 -4 9 315.08 302.30 42.00 44 o
0 -3 9 1994.40 1777.90 56.40 44 o
0 -2 9 2133.40 2287.60 60.40 44 o
1 4 9 14.58 -24.90 36.10 44 <
0 -4 10 17.32 36.20 37.00 44 <
0 -3 10 6.58 10.20 38.10 44 <
1 4 10 155.34 127.80 37.50 44 o
1 3 14 208.43 169.70 37.90 44 o
0 -1 -19 67.83 0.60 35.40 45 <
0 -2 -18 36.47 -6.00 36.00 45 <
0 -1 -18 194.77 139.90 37.30 45 o
0 -2 -17 37.40 25.40 35.70 45 <
0 -1 -17 73.91 45.40 36.50 45 <
0 -2 -16 39.09 47.30 36.50 45 <
0 -1 -16 27.27 5.50 36.50 45 <
0 -2 -15 392.55 593.50 43.00 45 o
0 -1 -15 1256.90 1252.20 49.80 45 o
0 -1 -14 102.84 73.00 37.80 45 <
0 0 -14 77.21 32.90 38.80 45 <
0 -1 -13 33.10 34.50 37.60 45 <
0 0 -13 86.79 76.60 38.70 45 <
0 0 -12 1205.50 1596.60 54.90 45 o
0 0 -11 155.64 165.40 41.10 45 o
0 0 -10 118.83 114.40 43.10 45 <
0 0 -9 8135.70 7903.70 96.80 45 o
0 0 -8 269.16 173.50 45.90 45 o
0 0 -7 40.48 78.10 48.40 45 <
0 0 -6 23287.00 24063.60 159.50 45 o
0 0 -5 269.02 224.30 55.90 45 o
0 0 -4 604.04 513.40 63.60 45 o
0 0 -3 33616.00 32165.70 184.90 45 o
0 -1 6 14402.00 13479.10 122.10 45 o
0 -1 7 143.25 163.40 44.90 45 o
0 -2 8 55.99 42.80 39.20 45 <
0 -1 8 160.61 217.30 44.00 45 o
0 -4 9 255.40 100.40 38.70 45 <
0 -3 9 1168.10 874.20 47.80 45 o
0 -2 9 1460.70 1444.00 53.40 45 o
0 -1 9 3618.80 3394.80 70.00 45 o
0 -4 10 9.92 -25.20 37.30 45 <
0 -3 10 18.96 9.30 37.80 45 <
0 -2 10 56.51 75.40 38.40 45 <
0 -3 11 20.94 27.10 37.20 45 <
0 -2 11 70.47 65.30 37.90 45 <
0 -3 12 296.37 407.50 42.00 45 o
0 -2 12 346.21 514.70 43.10 45 o
0 -3 13 6.57 20.30 36.90 45 <
0 -2 13 58.76 76.90 37.70 45 <
0 -3 14 13.92 41.00 37.00 45 <
0 -3 15 300.56 404.10 41.60 45 o
0 -3 -15 266.19 -48.20 36.10 46 <
0 -2 -15 184.34 269.50 38.70 46 o
0 -3 -14 12.56 -14.70 35.60 46 <
0 -2 -14 9.18 -4.60 36.10 46 <
0 -3 -13 5.72 -2.70 35.90 46 <
0 -2 -13 61.09 66.10 36.50 46 <
0 -3 -12 289.82 397.80 40.50 46 o
0 -2 -12 311.22 394.60 41.10 46 o
0 -3 -11 21.71 -4.80 36.00 46 <
0 -2 -11 52.98 56.80 37.40 46 <
0 -1 -11 49.55 -18.40 38.70 46 <
0 -2 -10 71.73 49.40 37.90 46 <
0 -1 -10 176.34 131.70 40.90 46 o
0 -1 -9 2974.80 3120.10 68.20 46 o
0 -1 -8 145.28 174.50 43.60 46 o
0 -1 -7 112.87 194.60 46.20 46 o
0 0 1 227.63 -571.80 103.90 46 <
0 0 2 1312.30 1279.60 72.90 46 o
0 0 3 34323.00 30704.60 181.10 46 o
0 0 4 552.12 424.40 60.30 46 o
0 0 5 242.33 163.90 54.00 46 o
0 0 6 22127.00 23095.70 155.90 46 o
0 0 7 42.63 67.50 46.20 46 <
0 0 8 246.65 204.50 45.30 46 o
0 0 9 8558.40 8293.70 98.70 46 o
0 0 10 118.77 150.40 42.20 46 o
0 0 11 181.71 152.00 40.70 46 o
0 -1 12 875.24 997.90 48.70 46 o
0 0 12 1036.60 2200.50 60.60 46 o
0 -1 13 34.32 21.90 37.80 46 <
0 -1 14 96.78 58.50 37.40 46 <
0 -2 15 220.82 454.70 42.40 46 o
0 -1 15 1179.50 1099.60 48.80 46 o
0 -2 16 29.76 76.60 37.10 46 <
0 -1 16 20.16 17.50 36.50 46 <
0 -2 17 35.44 40.80 37.20 46 <
0 -1 17 82.61 72.60 36.80 46 <
0 -2 18 23.82 39.60 36.90 46 <
0 -1 18 213.58 145.80 38.20 46 o
0 -3 -11 27.63 51.70 36.50 47 <
0 -4 -10 15.51 -9.50 35.90 47 <
0 -3 -10 20.62 -5.90 36.80 47 <
0 -4 -9 248.79 173.70 38.10 47 o
0 -3 -9 1493.60 1391.40 51.40 47 o
0 -2 -9 1588.40 1523.00 54.10 47 o
0 -4 -8 19.70 6.90 36.20 47 <
0 -3 -8 40.85 2.00 37.00 47 <
0 -2 -8 51.70 44.40 39.40 47 <
0 -4 -7 7.02 34.50 36.00 47 <
0 -3 -7 40.76 -49.20 38.20 47 <
0 -2 -7 46.41 49.10 40.40 47 <
0 -4 -6 624.50 495.70 42.70 47 o
0 -2 -6 3514.50 3970.30 73.40 47 o
0 -1 -6 18245.00 17790.10 138.10 47 o
0 -1 -5 314.59 300.50 48.10 47 o
0 -1 -4 1295.00 1218.20 56.40 47 o
0 0 11 209.33 175.80 41.30 47 o
0 0 12 1492.60 1678.60 55.90 47 o
0 0 13 97.96 76.40 39.10 47 <
0 0 14 78.82 143.70 38.00 47 o
0 0 15 693.11 671.60 45.10 47 o
0 0 16 13.31 -5.80 36.70 47 <
0 -1 17 77.60 60.90 36.80 47 <
0 0 17 34.03 30.50 36.90 47 <
0 -1 18 244.52 196.80 38.10 47 o
0 0 18 37.85 58.00 36.90 47 <
0 -1 19 76.62 19.20 36.60 47 <
0 0 19 16.51 42.50 35.90 47 <
1 2 -18 15.45 -17.50 35.80 48 <
1 2 -17 300.03 327.00 39.80 48 o
1 3 -15 318.83 323.30 39.50 48 o
1 3 -14 116.88 -158.40 39.20 48 <
1 3 -13 1285.30 1212.90 49.50 48 o
1 4 -11 93.97 34.30 36.90 48 <
1 4 -10 247.11 197.20 39.00 48 o
1 4 -9 100.37 77.70 37.50 48 <
0 -4 -8 26.37 -3.50 36.00 48 <
0 -3 -8 43.20 39.70 37.20 48 <
0 -4 -7 3.34 -21.10 36.40 48 <
0 -3 -7 41.02 17.80 37.60 48 <
0 -4 -6 950.49 825.20 45.60 48 o
0 -3 -6 2372.40 2514.50 61.80 48 o
0 -2 -6 3691.30 4024.70 73.60 48 o
0 -4 -5 10.98 37.10 36.40 48 <
0 -3 -5 33.03 42.10 38.30 48 <
0 -2 -5 57.24 67.80 40.60 48 <
0 -2 -4 9.60 35.40 40.30 48 <
0 -1 -4 1608.30 1601.20 60.20 48 o
0 -1 -3 4529.30 4199.10 80.60 48 o
0 1 4 1546.70 1439.00 59.60 48 o
0 1 5 359.94 348.50 50.30 48 o
0 1 6 21809.00 20160.80 146.30 48 o
0 1 7 278.68 209.00 47.30 48 o
0 1 8 191.39 186.50 44.30 48 o
0 2 12 588.26 583.30 43.30 48 o
0 2 13 109.02 101.80 37.70 48 <
0 2 14 25.43 8.40 36.70 48 <
0 2 15 165.70 151.20 38.10 48 o
0 2 16 41.24 24.50 36.60 48 <
0 2 17 21.15 24.50 36.10 48 <
0 2 18 56.77 62.60 36.40 48 <
1 0 -20 7.57 7.60 35.00 49 <
1 -1 -19 45.53 40.60 35.40 49 <
1 0 -19 334.15 304.40 39.00 49 o
1 0 -18 11.24 0.10 35.90 49 <
1 1 -18 46.59 -13.50 35.60 49 <
1 1 -17 44.42 37.50 36.50 49 <
1 2 -16 489.02 509.60 41.40 49 o
1 2 -15 47.71 6.40 36.40 49 <
1 2 -14 52.50 45.80 37.00 49 <
1 3 -13 686.18 653.20 43.90 49 o
1 3 -12 102.46 -29.90 37.20 49 <
1 3 -11 345.88 313.00 40.10 49 o
1 4 -10 310.96 355.60 40.50 49 o
1 4 -9 134.26 155.90 38.00 49 o
1 4 -8 180.56 156.30 38.10 49 o
1 4 -7 598.64 574.60 43.40 49 o
0 -4 -5 24.36 -3.50 36.70 49 <
0 -3 -5 33.93 -3.20 38.10 49 <
0 -4 -4 1.45 30.00 36.40 49 <
0 -3 -4 104.38 65.40 38.00 49 <
0 -2 -4 11.26 -29.50 41.40 49 <
0 -4 -3 1344.60 1022.30 47.70 49 o
0 -3 -3 703.17 663.70 45.30 49 o
0 -2 -3 4936.40 4309.90 76.20 49 o
0 -1 -2 323.82 383.40 55.30 49 o
0 1 3 4120.40 4337.80 81.10 49 o
0 2 6 4183.30 4913.60 79.20 49 o
0 2 7 55.50 56.00 40.90 49 <
0 2 8 111.68 114.70 40.10 49 <
0 2 9 2262.00 1891.80 57.00 49 o
0 2 10 108.88 107.50 38.90 49 <
0 3 12 383.49 273.00 39.80 49 o
0 3 13 6.02 -0.30 36.30 49 <
0 3 14 7.88 -0.40 36.10 49 <
0 3 15 128.79 90.50 37.10 49 <
1 -2 -18 10.76 -5.40 35.80 50 <
1 -1 -18 53.94 -4.00 36.00 50 <
1 -2 -17 234.69 279.50 38.90 50 o
1 -1 -17 30.33 43.50 36.00 50 <
1 0 -17 363.08 288.20 39.90 50 o
1 0 -16 627.85 553.20 42.90 50 o
1 1 -15 518.56 449.30 41.90 50 o
1 1 -14 149.38 143.40 38.90 50 o
1 2 -13 56.39 -45.70 36.80 50 <
1 2 -12 243.23 218.40 39.40 50 o
1 3 -11 303.71 254.90 39.50 50 o
1 3 -10 153.72 173.40 38.40 50 o
1 4 -8 75.26 92.90 37.00 50 <
1 4 -7 724.97 718.60 44.80 50 o
1 4 -6 76.18 -17.00 36.30 50 <
0 -4 -4 5.23 11.10 36.50 50 <
0 -3 -4 97.61 64.10 37.60 50 <
0 -4 -3 1221.90 910.30 46.50 50 o
0 -3 -3 702.68 556.80 43.80 50 o
0 -2 -3 4500.60 4244.50 75.50 50 o
0 -4 -2 24.22 -1.60 36.80 50 <
0 -3 -2 41.11 48.30 38.40 50 <
0 -2 -2 63.78 44.80 41.60 50 <
0 1 2 498.83 553.50 56.50 50 o
0 2 5 63.19 93.80 39.80 50 <
0 2 6 3237.30 3684.60 71.50 50 o
0 3 8 30.37 52.10 37.00 50 <
0 3 9 1264.90 1168.20 49.40 50 o
0 3 10 6.24 4.30 36.80 50 <
0 3 11 27.43 22.00 36.30 50 <
1 -2 -16 504.81 426.60 41.40 51 o
1 -3 -15 152.65 123.30 37.20 51 o
1 -2 -15 57.79 -16.90 36.40 51 <
1 -1 -15 590.58 644.50 43.70 51 o
1 0 -14 134.18 131.20 37.90 51 o
1 1 -13 2198.00 2140.30 58.50 51 o
1 2 -11 290.61 313.90 40.80 51 o
1 3 -9 176.68 157.70 38.70 51 o
1 3 -8 71.22 -46.50 37.20 51 <
1 4 -7 398.14 356.90 40.80 51 o
1 4 -6 130.92 90.10 37.50 51 <
0 -4 -3 1186.30 982.20 47.50 51 o
0 -3 -3 522.92 394.80 42.20 51 o
0 -4 -2 14.22 -8.20 37.00 51 <
0 -3 -2 38.23 13.60 38.20 51 <
0 -2 -2 44.11 62.50 42.00 51 <
0 -1 -1 102.58 107.90 54.20 51 <
0 1 2 400.37 489.40 55.80 51 o
0 2 4 34.40 33.00 40.30 51 <
0 2 5 92.81 23.00 40.10 51 <
0 3 6 3215.70 3075.60 64.90 51 o
0 3 7 30.02 29.60 36.80 51 <
0 3 8 17.00 11.20 37.10 51 <
0 4 10 29.14 7.40 35.70 51 <
-1 -2 17 227.19 251.40 39.70 51 o
-1 -2 18 5.26 -13.60 36.20 51 <
-1 -1 18 33.02 21.10 36.00 51 <
-1 -1 19 37.45 -8.20 36.10 51 <
-1 0 20 5.23 37.60 35.20 51 <
1 -3 -14 32.90 55.20 36.20 52 <
1 -2 -14 76.55 47.30 37.00 52 <
1 -3 -13 678.83 588.00 43.20 52 o
1 -2 -13 127.26 114.80 37.80 52 o
1 -1 -13 2662.00 2659.60 63.10 52 o
1 0 -12 437.82 355.40 42.50 52 o
1 1 -11 1417.60 1461.30 53.50 52 o
1 2 -10 1674.30 1632.20 54.50 52 o
1 2 -9 677.44 620.90 45.10 52 o
1 3 -8 25.73 19.60 37.10 52 <
1 3 -7 137.49 174.60 39.50 52 o
1 4 -6 65.19 69.00 37.10 52 <
1 4 -5 146.20 98.20 37.50 52 <
0 -4 -2 37.02 46.50 37.50 52 <
0 -3 -2 47.61 33.50 38.70 52 <
0 -2 -2 112.06 113.50 43.50 52 <
0 -4 -1 18.71 -9.70 38.20 52 <
0 -1 -1 107.92 181.00 55.80 52 o
0 2 3 5958.50 5255.40 82.40 52 o
0 3 5 47.23 -27.60 38.60 52 <
0 3 6 2952.50 2703.10 63.00 52 o
0 4 8 8.61 -19.40 35.70 52 <
0 4 9 416.06 310.90 39.50 52 o
0 4 10 49.14 70.80 36.10 52 <
-1 -3 12 253.77 218.00 39.90 52 o
-1 -3 13 1046.80 1198.20 50.60 52 o
-1 -2 13 162.31 81.30 37.90 52 <
-1 -3 14 48.44 29.80 38.00 52 <
-1 -2 14 75.74 22.70 37.20 52 <
-1 -1 14 138.85 125.30 39.50 52 o
-1 -3 15 146.02 130.70 37.90 52 o
-1 -2 15 38.21 69.20 37.20 52 <
-1 -1 15 607.17 676.60 44.40 52 o
-1 0 15 41.73 63.20 37.50 52 <
-1 -1 16 1341.20 1345.70 51.60 52 o
-1 0 16 656.49 643.00 43.90 52 o
-1 0 17 328.07 295.00 39.80 52 o
-1 1 17 43.42 25.80 37.00 52 <
-1 1 18 31.06 49.00 36.40 52 <
-1 1 19 73.62 48.40 36.00 52 <
2 0 -20 55.14 82.40 36.40 53 <
2 1 -20 73.96 9.40 36.00 53 <
2 1 -19 55.85 -34.50 36.10 53 <
2 2 -18 40.95 6.80 36.30 53 <
1 -3 -13 831.53 738.60 45.00 53 o
1 -3 -12 107.68 105.90 37.40 53 <
1 -2 -12 276.67 259.40 39.80 53 o
1 -1 -12 628.65 640.30 45.80 53 o
1 0 -11 787.65 759.80 48.90 53 o
1 1 -10 231.75 227.80 42.30 53 o
1 2 -9 537.63 478.50 43.70 53 o
1 3 -7 67.97 99.90 38.40 53 <
1 4 -5 242.28 183.00 38.70 53 o
0 -4 -2 16.50 42.30 37.20 53 <
0 -3 -2 36.15 52.70 38.50 53 <
0 -4 -1 20.78 21.80 37.40 53 <
0 -2 -1 83.45 84.70 45.80 53 <
0 -1 -1 114.79 190.80 55.70 53 o
0 2 3 5100.60 4778.40 79.30 53 o
0 3 5 77.96 62.20 38.00 53 <
0 4 7 40.19 66.60 36.70 53 <
0 4 8 38.78 20.90 36.20 53 <
-1 -4 11 59.95 26.50 37.60 53 <
-1 -3 11 439.09 493.00 43.20 53 o
-1 -2 11 359.31 332.00 42.00 53 o
-1 -3 12 110.90 95.70 38.60 53 <
-1 -2 12 213.96 254.80 40.00 53 o
-1 -1 12 655.89 630.30 45.10 53 o
-1 -1 13 2582.50 2535.20 62.00 53 o
-1 0 13 292.76 342.50 41.40 53 o
-1 0 14 115.92 139.90 38.70 53 o
-1 1 15 662.62 632.90 44.50 53 o
-1 1 16 1409.30 1372.80 51.60 53 o
-1 2 17 179.75 164.00 38.40 53 o
-1 2 18 27.22 18.90 36.60 53 <
2 -1 -20 54.85 -30.70 35.90 54 <
2 -1 -19 78.25 96.00 36.50 54 <
2 0 -19 171.11 147.90 37.60 54 o
2 1 -18 117.27 95.90 37.20 54 <
2 2 -17 266.38 235.80 38.50 54 o
2 3 -16 29.17 -19.10 36.20 54 <
2 3 -15 21.57 17.10 35.60 54 <
1 -4 -11 84.69 74.40 37.00 54 <
1 -3 -11 325.46 263.70 39.80 54 o
1 -2 -11 428.82 448.60 41.60 54 o
1 -1 -11 1548.00 1428.40 53.20 54 o
1 0 -10 3262.70 3391.00 70.00 54 o
1 1 -9 917.33 1017.10 50.10 54 o
1 2 -8 627.05 529.60 44.90 54 o
1 3 -6 840.60 840.30 46.70 54 o
1 4 -5 157.41 106.70 38.00 54 <
1 4 -4 173.21 177.30 38.70 54 o
0 -4 -2 98.20 63.10 36.90 54 <
0 -3 -2 67.95 54.20 38.30 54 <
0 -4 -1 54.91 17.90 37.70 54 <
0 -3 -1 78.29 66.20 38.70 54 <
0 -2 -1 131.49 102.00 45.70 54 <
0 1 1 72.35 109.80 53.60 54 <
0 3 4 80.33 82.20 37.50 54 <
0 3 5 53.25 53.60 37.70 54 <
0 4 6 522.90 532.00 42.40 54 o
0 4 7 11.48 19.00 36.20 54 <
-1 -4 9 186.38 138.60 40.00 54 o
-1 -4 10 236.26 164.50 39.70 54 o
-1 -3 10 69.86 3.60 38.30 54 <
-1 -2 10 1556.30 1749.70 55.80 54 o
-1 -4 11 96.31 29.60 37.50 54 <
-1 -2 11 338.24 336.30 41.30 54 o
-1 -1 11 1322.50 1235.30 50.80 54 o
-1 0 12 324.53 289.40 41.20 54 o
-1 1 13 1980.30 2010.20 57.50 54 o
-1 1 14 191.17 201.90 39.10 54 o
-1 2 14 114.63 87.70 37.40 54 <
-1 2 15 51.03 40.40 36.90 54 <
-1 2 16 457.54 353.30 40.90 54 o
2 -2 -18 18.55 5.00 35.40 55 <
2 -1 -18 219.95 211.80 37.60 55 o
2 0 -17 203.17 213.60 37.70 55 o
2 1 -16 105.96 99.90 37.00 55 <
2 2 -15 84.89 73.20 36.20 55 <
2 3 -14 15.38 -7.70 36.20 55 <
1 -4 -10 302.06 309.10 39.10 55 o
1 -3 -10 48.17 -3.00 36.40 55 <
1 -2 -10 1627.60 1628.70 53.70 55 o
1 0 -9 1062.50 937.00 51.30 55 o
1 1 -8 177.41 184.70 42.50 55 o
1 2 -7 4543.10 4500.00 75.80 55 o
1 3 -6 947.36 952.20 46.50 55 o
1 4 -4 90.29 85.00 37.00 55 <
0 -4 -1 37.06 26.70 37.10 55 <
0 -3 -1 68.40 50.50 38.20 55 <
0 -2 -1 77.73 57.20 46.50 55 <
0 1 1 183.30 248.30 54.90 55 o
0 2 2 88.19 79.90 41.90 55 <
0 3 4 140.64 140.90 38.70 55 o
0 4 5 3.54 16.50 36.00 55 <
0 4 6 508.32 495.80 42.20 55 o
-1 -4 8 343.69 258.80 40.30 55 o
-1 -3 8 70.61 29.10 38.30 55 <
-1 -4 9 125.92 74.70 38.30 55 <
-1 -3 9 160.06 167.10 39.50 55 o
-1 -2 9 602.32 590.40 44.70 55 o
-1 -1 9 1191.20 1158.30 51.70 55 o
-1 0 10 3116.40 3226.70 68.40 55 o
-1 1 11 1391.10 1389.90 52.40 55 o
-1 2 13 382.19 366.60 40.60 55 o
-1 3 14 23.35 27.00 36.40 55 <
-1 3 15 297.24 219.90 38.70 55 o
2 -2 -17 140.19 99.60 36.90 56 <
2 -1 -16 148.84 123.50 37.50 56 o
2 0 -16 94.39 -54.00 37.30 56 <
2 1 -15 77.29 114.40 37.70 56 o
2 2 -14 18.51 13.10 36.30 56 <
2 3 -13 341.21 345.30 40.40 56 o
2 4 -11 178.69 200.10 38.50 56 o
1 -4 -9 111.43 87.30 37.00 56 <
1 -3 -9 156.42 94.30 37.60 56 <
1 -2 -9 486.67 424.50 42.50 56 o
1 -1 -9 946.54 1013.00 50.00 56 o
1 0 -8 1290.90 1241.10 54.10 56 o
1 2 -6 640.51 741.20 46.80 56 o
1 3 -5 557.15 514.40 43.50 56 o
1 4 -4 156.46 113.10 37.50 56 o
1 4 -3 34.77 -13.60 36.50 56 <
0 -4 -1 31.57 -13.90 37.70 56 <
0 -3 -1 48.86 75.40 38.40 56 <
0 -2 -1 54.50 62.00 47.80 56 <
0 1 1 83.04 119.20 54.10 56 <
0 2 2 103.72 101.10 42.40 56 <
0 3 3 674.75 573.60 43.70 56 o
0 4 5 36.16 6.60 36.50 56 <
-1 -4 7 1265.70 1252.00 51.70 56 o
-1 -4 8 97.54 75.10 39.30 56 <
-1 -3 8 33.64 39.10 38.00 56 <
-1 -2 8 600.24 579.40 45.90 56 o
-1 -1 8 92.37 79.90 41.20 56 <
-1 0 9 1020.10 838.40 49.90 56 o
-1 1 10 80.08 122.70 40.60 56 o
-1 2 11 309.08 295.50 39.90 56 o
-1 3 13 550.48 516.00 42.30 56 o
-2 -2 18 33.90 26.40 36.60 56 <
-2 -1 18 230.77 195.70 38.20 56 o
-2 -1 19 97.63 58.00 36.70 56 <
-2 0 19 185.90 104.50 37.00 56 <
-2 0 20 51.12 32.20 36.20 56 <
-2 1 20 19.37 22.10 36.00 56 <
3 0 -21 92.08 -45.30 36.50 57 <
2 -3 -16 58.51 -48.60 36.30 57 <
2 -2 -16 84.04 66.70 36.90 57 <
2 -2 -15 159.18 221.20 38.20 57 o
2 -1 -15 152.19 185.50 38.40 57 o
2 0 -15 277.28 -137.10 40.40 57 <
2 1 -14 55.34 44.70 37.50 57 <
2 2 -13 106.37 99.90 37.80 57 <
2 3 -12 91.23 122.40 37.80 57 o
2 4 -11 105.77 -76.20 37.20 57 <
1 -4 -9 145.91 71.10 37.50 57 <
1 -3 -9 223.49 236.10 39.20 57 o
1 -4 -8 201.64 188.10 39.50 57 o
1 -1 -8 73.96 83.80 42.00 57 <
1 1 -7 1022.00 1142.60 53.50 57 o
1 2 -6 614.62 647.60 47.00 57 o
1 3 -5 514.07 505.20 43.00 57 o
1 4 -4 113.52 142.50 37.20 57 o
1 4 -3 22.56 19.50 36.50 57 <
0 -4 -1 34.99 21.30 37.80 57 <
0 -3 -1 47.14 40.10 38.90 57 <
0 -2 -1 94.84 75.20 49.20 57 <
0 2 2 91.63 98.50 41.60 57 <
0 3 3 467.76 375.10 41.50 57 o
0 4 4 9.63 7.70 35.90 57 <
0 4 5 8.51 23.30 36.30 57 <
-1 -4 7 709.64 413.10 43.50 57 o
-1 -3 7 167.98 248.90 41.60 57 o
-1 -2 7 4436.10 4530.20 76.60 57 o
-1 -1 8 130.21 86.10 41.80 57 <
-1 1 9 907.70 988.80 50.60 57 o
-1 2 10 1395.70 1349.80 51.60 57 o
-1 3 12 147.34 177.90 38.20 57 o
-2 -3 16 43.32 33.30 36.60 57 <
-2 -2 16 56.52 24.40 36.60 57 <
-2 -2 17 125.21 136.50 37.90 57 o
-2 -1 17 17.68 23.80 36.30 57 <
-2 0 17 221.91 160.50 38.40 57 o
-2 0 18 17.78 18.60 35.90 57 <
-2 1 18 185.50 188.00 38.50 57 o
-2 1 19 41.23 27.20 36.00 57 <
3 -1 -20 244.00 -75.10 36.90 58 <
3 0 -20 54.69 38.10 36.60 58 <
3 1 -19 58.35 32.70 37.40 58 <
3 2 -18 79.85 -36.40 36.70 58 <
2 -3 -14 51.55 -47.60 37.00 58 <
2 -2 -14 235.41 271.20 39.90 58 o
2 -1 -14 158.26 170.30 38.70 58 o
2 1 -13 828.33 765.30 46.80 58 o
2 2 -12 1619.00 1922.70 56.80 58 o
2 3 -11 114.21 128.90 38.40 58 o
2 4 -10 17.31 35.20 36.80 58 <
1 -4 -8 106.29 -34.60 37.40 58 <
1 -3 -8 21.57 45.70 37.10 58 <
1 -4 -7 554.71 299.20 40.40 58 o
1 0 -7 15320.00 13941.10 124.10 58 o
1 4 -3 22.81 11.50 37.10 58 <
0 -4 -1 72.85 106.70 38.70 58 <
0 -3 -1 68.69 105.20 39.80 58 <
0 4 4 34.66 -6.30 36.20 58 <
-1 -4 7 1038.90 965.30 49.00 58 o
-1 -3 7 129.94 123.40 40.20 58 o
-1 -2 7 4257.20 4373.60 76.90 58 o
-1 -1 7 1028.30 1191.10 54.80 58 o
-1 1 8 152.20 149.70 43.70 58 o
-1 2 9 651.88 490.20 43.80 58 o
-1 3 10 68.65 84.80 37.00 58 <
-1 4 11 61.30 41.90 36.30 58 <
-2 -3 14 86.61 50.00 37.80 58 <
-2 -3 15 52.29 15.20 37.20 58 <
-2 -2 15 229.93 182.90 39.20 58 o
-2 -1 15 94.64 130.80 38.40 58 o
-2 0 16 123.82 67.90 37.20 58 <
-2 1 16 267.58 272.30 40.70 58 o
-2 2 17 120.80 124.20 38.00 58 o
-2 2 18 29.44 31.80 35.90 58 <
3 -2 -19 219.29 16.30 35.70 59 <
3 -1 -19 46.09 1.20 36.60 59 <
3 0 -19 245.74 275.90 39.10 59 o
3 1 -18 668.30 603.70 43.20 59 o
3 2 -17 87.89 108.10 37.00 59 <
2 -1 -13 1107.00 1276.00 51.00 59 o
2 0 -13 33.65 37.80 38.70 59 <
2 1 -12 283.65 306.40 41.80 59 o
2 4 -9 87.10 87.10 37.20 59 <
1 -4 -7 863.20 966.80 46.60 59 o
1 -3 -7 201.84 201.30 39.00 59 o
1 -2 -7 3109.10 3273.00 68.10 59 o
1 -1 -7 1046.60 1001.30 52.20 59 o
1 1 -6 7681.50 7198.50 93.70 59 o
1 2 -5 1730.50 1619.90 55.00 59 o
1 3 -4 397.17 232.60 39.70 59 o
1 4 -3 29.30 18.10 36.30 59 <
0 -4 -1 73.13 120.50 39.00 59 o
0 -3 -1 341.84 395.60 41.70 59 o
0 4 4 7.88 5.10 35.50 59 <
-1 -4 6 97.25 54.80 38.70 59 <
-1 -3 6 1135.90 1055.30 50.30 59 o
-1 -2 6 519.02 617.60 47.90 59 o
-1 0 7 12703.00 12034.80 116.10 59 o
-1 3 10 86.31 61.60 37.60 59 <
-1 4 11 61.50 75.50 35.90 59 <
-2 -3 13 823.26 955.50 48.00 59 o
-2 -3 14 35.94 23.00 37.00 59 <
-2 -2 14 168.70 299.60 40.30 59 o
-2 -1 14 91.82 142.00 38.20 59 o
-2 0 14 357.38 327.10 41.00 59 o
-2 1 15 59.24 68.00 37.30 59 <
-2 2 16 30.54 48.60 36.50 59 <
3 -2 -18 69.48 0.90 35.60 60 <
3 -1 -18 790.87 665.20 43.80 60 o
3 1 -17 149.30 154.90 37.50 60 o
3 2 -16 20.39 -15.80 36.30 60 <
3 3 -15 213.30 186.40 37.40 60 o
2 -1 -12 297.67 326.10 41.60 60 o
2 0 -12 1937.00 2617.00 63.30 60 o
2 3 -10 324.86 252.90 39.70 60 o
2 4 -9 103.93 94.30 36.80 60 <
1 -4 -7 914.87 467.20 42.00 60 o
1 -3 -7 185.56 149.90 39.60 60 o
1 0 -6 3325.50 3479.50 74.00 60 o
1 2 -5 1586.60 1317.10 53.00 60 o
1 3 -4 158.72 131.60 38.40 60 o
1 4 -3 35.92 -11.00 36.80 60 <
0 -4 -1 88.71 186.60 39.90 60 o
0 -3 -1 137.04 133.50 39.60 60 o
0 3 2 59.30 84.80 38.60 60 <
0 4 3 756.49 638.70 43.30 60 o
-1 -4 6 234.99 94.10 39.60 60 <
-1 -3 6 840.47 709.10 47.00 60 o
-1 -1 6 8104.90 7611.30 95.70 60 o
-1 1 7 1765.20 1697.60 58.30 60 o
-1 2 8 702.66 546.90 44.60 60 o
-1 3 9 246.43 158.90 38.00 60 o
-1 4 10 222.72 168.70 38.10 60 o
-2 -3 12 68.42 135.20 38.60 60 o
-2 -2 12 2811.50 3150.10 66.50 60 o
-2 -1 13 1293.10 1181.70 50.60 60 o
-2 0 13 35.10 23.70 38.40 60 <
-2 1 14 73.66 73.30 38.00 60 <
-2 2 15 172.42 123.90 37.80 60 o
-2 3 16 69.89 78.40 36.60 60 <
-3 -2 19 492.30 469.10 42.10 60 o
-3 -1 20 106.47 59.00 36.70 60 <
-3 0 20 58.58 18.50 36.20 60 <
-3 0 21 141.60 92.50 36.90 60 <
3 -2 -17 145.96 193.70 38.10 61 o
3 -1 -17 159.57 145.40 37.80 61 o
3 1 -16 290.06 207.60 38.50 61 o
3 2 -15 1077.40 1108.00 48.70 61 o
2 -3 -12 88.73 60.20 37.10 61 <
2 -2 -12 2015.70 1701.80 54.70 61 o
2 0 -11 2129.40 1879.00 57.30 61 o
2 2 -10 163.02 105.20 38.90 61 <
2 3 -9 125.23 177.30 38.50 61 o
2 4 -8 118.92 -61.70 37.30 61 <
1 -1 -6 7413.40 7799.50 96.10 61 o
1 4 -3 71.19 50.90 36.90 61 <
0 -4 -1 141.57 88.80 38.50 61 <
0 -3 -1 257.95 240.50 40.80 61 o
0 3 2 209.85 242.90 40.00 61 o
0 4 3 390.31 300.50 39.70 61 o
-1 -4 5 401.48 457.30 42.80 61 o
-1 -3 5 594.83 607.30 45.30 61 o
-1 0 6 3423.00 3283.80 71.60 61 o
-1 3 8 48.93 14.00 36.70 61 <
-1 4 9 123.31 112.10 36.80 61 o
-1 4 10 238.28 201.40 37.60 61 o
-2 -4 11 132.00 158.60 39.30 61 o
-2 -3 11 447.31 455.30 43.00 61 o
-2 -1 12 234.59 266.30 41.00 61 o
-2 0 12 2380.30 2463.50 61.70 61 o
-2 1 13 1040.20 922.00 47.30 61 o
-2 2 14 37.04 54.00 36.40 61 <
-2 3 15 93.17 44.40 35.70 61 <
-3 -2 18 57.40 43.20 36.90 61 <
-3 -1 18 977.87 928.60 46.60 61 o
-3 -1 19 53.63 82.20 37.00 61 <
-3 0 19 229.69 396.20 40.60 61 o
-3 1 20 142.90 58.70 37.00 61 <
4 0 -21 121.18 -37.80 36.10 62 <
4 1 -20 32.15 -11.80 35.50 62 <
3 -3 -16 105.75 112.00 36.60 62 o
3 -2 -16 105.15 87.50 36.60 62 <
3 -1 -16 389.05 460.70 41.50 62 o
3 0 -16 322.90 225.20 39.50 62 o
3 2 -15 639.77 599.00 43.30 62 o
3 3 -14 65.50 -7.00 36.20 62 <
2 -4 -11 225.20 217.00 37.90 62 o
2 -3 -11 171.70 137.30 37.80 62 o
2 -2 -11 767.70 919.10 47.40 62 o
2 -1 -11 798.47 609.70 45.20 62 o
2 3 -9 85.60 125.30 37.20 62 o
2 4 -8 135.68 -63.10 37.50 62 <
1 -4 -6 109.09 63.50 37.00 62 <
1 -3 -6 1277.50 1110.10 49.70 62 o
1 -2 -6 494.39 407.50 43.00 62 o
1 1 -5 7224.70 7763.10 95.80 62 o
1 4 -3 33.45 39.10 35.90 62 <
0 -4 0 1291.70 1570.70 54.00 62 o
0 2 1 243.02 178.20 42.50 62 o
0 3 2 70.71 36.10 37.70 62 <
0 4 3 457.65 298.60 39.80 62 o
-1 -4 5 189.70 150.40 39.20 62 o
-1 -3 5 1022.70 1380.50 53.10 62 o
-1 -2 5 1161.90 989.50 51.40 62 o
-1 1 6 6431.50 6806.00 91.30 62 o
-1 2 7 3397.40 2896.40 64.90 62 o
-1 3 8 76.66 36.50 36.50 62 <
-1 4 9 86.85 78.50 36.70 62 <
-2 -4 11 110.87 83.60 38.70 62 <
-2 -3 11 135.32 83.80 38.30 62 <
-2 -2 11 777.37 818.30 47.50 62 o
-2 -1 11 648.79 572.00 44.60 62 o
-2 1 12 557.05 540.60 43.60 62 o
-2 2 13 59.49 49.50 37.60 62 <
-2 3 14 29.81 10.40 36.00 62 <
-3 -2 17 55.46 106.70 37.10 62 <
-3 -1 18 592.36 626.30 43.10 62 o
-3 0 18 104.66 108.40 37.10 62 <
-3 1 18 655.39 591.70 43.50 62 o
-3 2 19 133.18 132.60 37.50 62 o
4 -1 -20 111.53 -29.10 35.70 63 <
4 0 -20 119.16 -77.20 36.90 63 <
4 1 -19 37.31 33.10 35.40 63 <
4 2 -19 242.50 -106.30 37.60 63 <
3 -3 -15 265.79 215.60 37.50 63 o
3 -1 -15 465.42 437.00 41.20 63 o
3 0 -15 1683.60 1640.80 53.40 63 o
3 2 -14 31.01 47.80 36.30 63 <
2 0 -10 285.40 235.40 41.90 63 o
2 2 -9 640.99 605.90 44.20 63 o
2 4 -8 143.35 -57.90 36.90 63 <
1 2 -4 1323.70 1219.20 52.10 63 o
1 4 -3 44.35 -10.70 36.30 63 <
0 -4 0 1520.50 1640.20 54.60 63 o
0 2 1 271.46 144.50 42.70 63 o
0 3 2 238.46 246.50 40.40 63 o
0 4 3 592.71 505.90 42.30 63 o
-1 -4 5 274.11 200.00 39.70 63 o
-1 -3 5 553.49 601.80 45.20 63 o
-1 -2 5 1448.20 1388.70 54.60 63 o
-1 -1 5 7008.00 6859.40 91.60 63 o
-1 3 7 191.90 172.20 38.50 63 o
-1 4 8 102.93 79.30 36.90 63 <
-2 -4 11 279.70 198.20 39.10 63 o
-2 0 11 1782.70 1901.70 57.40 63 o
-2 2 12 2252.30 1944.00 56.80 63 o
-2 3 13 218.18 175.60 37.80 63 o
-3 -3 16 86.33 41.70 37.70 63 <
-3 -2 16 113.70 65.30 37.50 63 <
-3 0 17 186.13 159.70 38.40 63 o
-3 1 17 160.02 134.50 38.30 63 o
-3 2 18 59.03 63.10 36.20 63 <
4 -2 -19 466.94 302.40 39.40 64 o
4 -1 -19 43.16 19.60 35.50 64 <
4 0 -19 661.82 650.30 43.00 64 o
4 2 -18 173.66 -21.80 35.80 64 <
3 -3 -15 138.81 85.80 36.30 64 <
3 0 -14 58.15 41.10 37.40 64 <
3 1 -14 237.03 171.50 38.70 64 o
3 3 -13 185.83 147.80 37.20 64 o
2 -4 -10 33.81 -10.30 36.00 64 <
2 -3 -10 439.60 435.00 41.00 64 o
2 -2 -10 165.83 126.00 38.20 64 o
2 -1 -10 2521.50 2606.70 62.80 64 o
2 3 -8 296.17 387.30 40.60 64 o
2 4 -7 280.56 152.80 38.40 64 o
1 -4 -5 105.74 73.70 37.40 64 <
1 2 -4 744.79 645.30 46.40 64 o
0 -4 0 1778.80 2066.50 58.20 64 o
0 2 1 146.93 166.60 42.80 64 o
-1 -4 5 59.03 68.90 38.30 64 <
-1 0 5 8782.80 7430.90 99.30 64 o
-1 2 6 871.36 746.50 47.20 64 o
-1 3 7 202.38 220.80 40.10 64 o
-1 4 8 117.56 103.60 37.10 64 <
-2 -4 10 25.30 45.00 37.70 64 <
-2 -3 10 452.41 381.70 42.30 64 o
-2 -2 10 158.33 88.40 38.80 64 <
-2 -1 10 3030.20 2908.20 65.30 64 o
-2 2 11 1127.30 1108.30 49.70 64 o
-2 3 12 105.24 85.60 37.20 64 <
-3 -3 15 111.51 97.90 37.70 64 <
-3 -2 15 626.86 654.70 44.20 64 o
-3 0 16 329.31 281.80 40.10 64 o
-3 1 16 295.09 335.10 40.70 64 o
-3 2 17 236.73 115.30 37.60 64 o
-4 0 21 209.60 156.10 37.60 64 o
4 -2 -18 189.32 -13.80 35.40 65 <
4 -1 -18 138.63 172.90 37.50 65 o
4 0 -18 414.99 403.70 40.00 65 o
4 2 -17 111.31 103.10 36.90 65 <
3 -3 -14 66.95 55.60 35.90 65 <
3 -2 -14 30.45 -18.80 36.30 65 <
3 -1 -14 251.73 158.10 38.00 65 o
3 2 -13 41.18 -27.80 38.00 65 <
3 3 -12 22.13 -13.90 36.00 65 <
2 1 -9 200.59 231.80 41.50 65 o
2 3 -8 468.31 434.30 41.30 65 o
2 4 -7 153.94 -53.00 36.80 65 <
1 -4 -5 273.75 216.70 39.50 65 o
1 -3 -5 748.96 695.90 45.30 65 o
1 -2 -5 1415.10 1201.40 52.10 65 o
1 -1 -5 7310.70 7216.30 93.30 65 o
1 2 -4 870.08 722.70 46.70 65 o
1 3 -3 337.45 274.60 39.80 65 o
0 -4 0 1521.80 1595.50 54.80 65 o
0 2 1 85.53 104.00 42.40 65 <
0 4 2 99.94 79.20 36.30 65 <
-1 4 7 465.54 486.50 41.80 65 o
-2 0 10 292.55 203.40 40.90 65 o
-2 1 10 1010.30 1064.20 49.80 65 o
-2 2 11 590.78 491.40 43.30 65 o
-3 -1 15 462.64 443.30 41.80 65 o
-3 0 15 1708.80 1659.70 53.90 65 o
-3 2 16 32.64 53.70 36.30 65 <
-4 -1 20 139.01 171.30 37.30 65 o
-4 0 20 113.10 106.20 37.10 65 <
5 0 -21 79.51 40.80 35.50 66 <
4 0 -17 137.43 94.90 37.50 66 <
4 1 -17 199.28 191.10 37.90 66 o
4 3 -16 32.14 5.00 36.30 66 <
3 0 -13 160.84 131.30 38.90 66 o
3 1 -13 477.08 400.20 41.90 66 o
3 3 -12 28.13 3.70 35.90 66 <
3 4 -11 162.61 -16.00 36.00 66 <
2 -4 -9 79.73 70.00 36.90 66 <
2 -3 -9 139.31 217.70 38.40 66 o
2 -2 -9 825.32 735.30 45.70 66 o
2 -1 -9 194.75 290.90 42.80 66 o
2 2 -8 1250.10 1115.50 50.00 66 o
2 4 -7 94.40 52.90 37.00 66 <
1 -3 -5 1488.90 1428.50 52.30 66 o
1 3 -3 304.67 263.60 39.90 66 o
0 -4 0 1822.60 2046.80 58.50 66 o
0 4 2 19.89 -10.80 35.90 66 <
-1 1 5 8596.60 8393.50 99.10 66 o
-1 3 6 815.09 802.80 45.80 66 o
-1 4 7 533.11 501.90 41.60 66 o
-2 -4 9 124.34 90.90 38.60 66 <
-2 -3 9 184.35 139.10 39.40 66 o
-2 -2 9 971.29 1063.80 49.80 66 o
-2 -1 9 170.94 304.40 42.30 66 o
-2 2 10 309.21 233.50 40.30 66 o
-2 3 11 170.94 126.70 37.60 66 o
-3 -3 14 63.60 44.30 37.00 66 <
-3 -2 14 29.26 18.20 36.80 66 <
-3 -1 14 380.70 308.70 39.90 66 o
-3 0 14 64.80 54.20 37.70 66 <
-3 2 15 766.97 675.70 44.30 66 o
-3 3 16 104.82 125.60 37.00 66 o
-4 -2 19 258.50 191.90 38.80 66 o
-4 -1 19 43.74 58.90 35.90 66 <
-4 0 19 849.55 738.20 44.90 66 o
-4 1 20 68.38 67.90 36.40 66 <
5 0 -20 22.53 -18.00 35.60 67 <
5 1 -20 58.76 -37.70 35.80 67 <
4 -2 -17 89.15 41.10 36.00 67 <
4 1 -16 74.37 76.00 36.70 67 <
4 3 -15 28.57 -14.10 36.40 67 <
3 -3 -13 49.35 41.50 36.00 67 <
3 -2 -13 99.65 75.90 37.20 67 <
3 1 -12 296.60 277.90 40.40 67 o
3 3 -11 97.24 73.60 36.60 67 <
2 1 -8 3762.70 3585.10 71.20 67 o
2 3 -7 172.45 140.10 38.50 67 o
1 1 -4 2086.70 1481.70 59.00 67 o
1 3 -3 153.71 216.10 38.90 67 o
1 4 -2 107.04 93.70 36.50 67 <
0 -4 0 1385.10 1532.30 53.50 67 o
0 4 2 46.56 -34.80 36.40 67 <
-1 -4 4 189.72 100.90 38.00 67 <
-1 -3 4 234.74 320.30 41.80 67 o
-1 -2 4 667.27 681.50 48.20 67 o
-1 -1 4 2331.30 2349.50 64.60 67 o
-1 2 5 1426.20 1210.50 51.00 67 o
-1 3 6 937.09 776.30 45.20 67 o
-2 1 9 245.47 256.60 41.70 67 o
-2 3 10 319.60 257.80 39.40 67 o
-2 4 11 27.12 -32.00 36.20 67 <
-3 -3 13 91.09 52.50 37.60 67 <
-3 -2 13 71.97 78.10 37.60 67 <
-3 -1 13 628.77 586.30 43.10 67 o
-3 1 14 66.34 68.80 37.50 67 <
-3 2 14 60.03 35.00 36.90 67 <
-3 3 15 224.65 129.80 37.30 67 o
-4 -2 18 215.57 102.40 38.00 67 <
-4 -1 18 129.55 100.70 37.50 67 <
-4 0 18 499.10 476.90 42.10 67 o
-4 2 19 325.64 306.30 39.90 67 o
5 -1 -20 113.23 -1.00 36.00 68 <
5 1 -19 131.19 -63.50 36.70 68 <
5 2 -19 20.86 -9.90 36.00 68 <
4 -3 -16 31.40 63.70 36.10 68 <
4 -2 -16 119.52 -49.00 36.80 68 <
4 -1 -16 96.04 98.00 37.40 68 <
4 0 -16 125.37 101.20 36.80 68 <
4 2 -15 73.81 81.50 36.70 68 <
3 -3 -12 91.48 104.10 37.00 68 <
3 -2 -12 2341.40 2010.40 57.00 68 o
3 -1 -12 492.05 434.90 42.30 68 o
3 0 -12 5036.40 4961.50 78.90 68 o
3 2 -11 992.73 1076.60 49.20 68 o
3 3 -11 62.42 52.50 36.70 68 <
3 4 -10 61.94 -8.60 37.00 68 <
2 -4 -8 156.89 169.70 38.10 68 o
2 0 -8 6906.90 6182.90 87.80 68 o
2 3 -7 33.61 10.10 36.50 68 <
2 4 -6 183.59 124.80 38.10 68 o
1 -4 -4 47.03 63.40 37.60 68 <
1 0 -4 10090.00 10152.10 113.20 68 o
1 3 -3 309.00 162.40 39.00 68 o
1 4 -2 80.97 54.10 36.60 68 <
0 -4 0 1638.90 1582.60 54.30 68 o
0 4 2 7.88 -4.10 35.80 68 <
-1 -4 4 233.17 286.00 41.00 68 o
-1 -3 4 445.16 354.20 43.00 68 o
-1 -2 4 2160.30 1878.30 59.90 68 o
-1 -1 4 2826.10 3017.60 69.50 68 o
-1 2 5 1591.10 1187.20 51.00 68 o
-1 4 6 55.66 53.40 36.50 68 <
-2 -4 8 323.26 218.10 40.70 68 o
-2 -3 8 480.50 456.30 43.80 68 o
-2 -2 8 1049.00 1170.80 51.90 68 o
-2 2 9 360.16 355.60 41.70 68 o
-2 3 10 177.31 179.40 38.50 68 o
-3 0 13 111.82 136.80 38.80 68 o
-3 1 13 462.84 345.70 40.70 68 o
-3 3 14 51.89 28.30 36.60 68 <
-4 -2 17 72.25 17.70 37.00 68 <
-4 -1 17 322.42 278.30 39.70 68 o
-4 0 17 134.62 74.00 37.10 68 <
-4 2 18 168.76 141.50 37.50 68 o
5 -2 -19 20.76 -30.00 35.40 69 <
5 -1 -19 239.56 162.30 37.20 69 o
5 0 -19 17.27 4.10 35.50 69 <
5 2 -18 382.98 -168.20 37.90 69 <
4 0 -15 131.31 276.70 39.50 69 o
4 1 -15 19.13 29.40 36.30 69 <
4 3 -14 447.75 400.60 41.20 69 o
3 -3 -12 23.11 21.30 35.80 69 <
3 -2 -12 2032.40 1958.70 56.30 69 o
3 2 -11 885.26 805.30 45.80 69 o
3 4 -10 46.82 60.10 36.70 69 <
2 -4 -8 332.37 350.30 40.20 69 o
2 -3 -8 711.71 648.90 43.70 69 o
2 -2 -8 2377.20 2022.70 57.50 69 o
2 -1 -8 4324.30 5134.90 81.40 69 o
2 2 -7 914.06 881.70 47.70 69 o
2 4 -6 196.84 191.40 38.20 69 o
1 -4 -4 74.03 36.90 36.80 69 <
1 -3 -4 348.95 376.00 41.40 69 o
1 4 -2 129.99 135.80 37.10 69 o
0 -4 0 1105.80 1423.20 52.80 69 o
0 3 1 85.38 37.20 37.20 69 <
0 4 2 12.83 12.70 35.70 69 <
-1 -4 4 17.49 19.90 37.30 69 <
-1 0 4 10068.00 9305.00 109.30 69 o
-1 3 5 425.97 413.40 41.70 69 o
-1 4 6 99.23 91.40 36.70 69 <
-2 -4 8 209.21 145.80 39.70 69 o
-2 -3 8 942.09 1050.90 49.80 69 o
-2 -1 8 7221.30 7021.90 91.80 69 o
-2 0 8 7109.50 6305.80 88.60 69 o
-2 2 9 336.50 272.40 40.80 69 o
-2 4 10 12.57 7.10 35.80 69 <
-3 -3 12 44.86 34.00 37.60 69 <
-3 -2 12 2170.70 2005.50 57.80 69 o
-3 -1 12 383.59 411.30 42.20 69 o
-3 2 13 157.82 102.20 37.80 69 <
-4 -3 16 15.26 32.00 36.40 69 <
-4 -2 16 121.03 121.60 37.60 69 o
-4 1 17 254.08 182.10 38.10 69 o
-4 2 17 137.81 94.20 36.50 69 <
-5 0 21 88.06 35.00 35.70 69 <
5 -1 -18 1305.70 1167.80 48.80 70 o
5 0 -18 1287.60 1199.10 49.30 70 o
5 1 -18 785.43 572.00 42.60 70 o
4 -3 -15 41.33 70.70 36.90 70 <
4 -2 -15 70.47 83.90 37.10 70 <
4 -1 -15 84.72 150.00 37.80 70 o
4 2 -14 155.27 159.20 38.40 70 o
3 -4 -11 236.25 227.40 39.00 70 o
3 0 -11 2962.10 2937.00 65.60 70 o
3 3 -10 20.79 38.60 36.20 70 <
2 4 -6 114.78 138.80 37.90 70 o
1 -4 -4 193.31 168.30 38.90 70 o
1 -3 -4 227.60 204.80 40.10 70 o
1 -2 -4 879.77 912.80 49.90 70 o
1 -1 -4 1522.60 1535.60 59.10 70 o
1 2 -3 107.00 106.40 41.10 70 <
1 4 -2 44.95 22.10 36.00 70 <
0 -4 0 1408.00 1751.70 56.40 70 o
0 3 1 59.91 42.40 37.60 70 <
0 4 2 42.30 28.30 36.10 70 <
-1 3 5 609.37 572.90 42.70 70 o
-2 1 8 3329.10 3110.50 68.20 70 o
-2 3 9 85.37 65.20 38.00 70 <
-3 1 12 227.91 172.00 40.00 70 o
-3 3 13 152.72 129.80 37.30 70 o
-4 0 16 115.60 67.20 37.60 70 <
-4 1 16 45.42 27.60 37.00 70 <
-5 -1 20 88.31 72.20 37.20 70 <
-5 0 20 56.18 114.10 37.30 70 o
-5 1 20 78.14 87.10 36.70 70 <
6 0 -21 74.72 -19.20 35.80 71 <
5 1 -17 33.62 -10.40 36.30 71 <
5 2 -17 89.10 -6.60 35.80 71 <
4 -3 -14 707.86 720.90 44.20 71 o
4 -2 -14 71.74 80.30 36.90 71 <
4 -1 -14 2600.80 2370.80 60.00 71 o
4 0 -14 268.15 277.20 39.70 71 o
4 3 -13 402.79 351.40 40.50 71 o
3 -3 -11 35.30 26.50 36.10 71 <
3 -2 -11 1032.60 1133.70 49.00 71 o
3 2 -10 294.26 344.70 41.50 71 o
3 4 -9 31.10 10.30 36.40 71 <
2 -4 -7 143.65 141.10 38.00 71 o
2 1 -7 89.92 116.60 42.30 71 <
2 3 -6 2086.80 2207.50 58.60 71 o
1 -3 -4 562.83 425.60 42.30 71 o
1 2 -3 147.74 76.30 41.50 71 <
1 4 -2 101.14 91.70 36.70 71 <
0 -4 0 1609.30 1735.40 56.10 71 o
0 3 1 55.49 89.20 38.10 71 <
-1 1 4 1983.50 1667.00 60.00 71 o
-2 -3 7 81.70 67.90 39.40 71 <
-2 -2 7 1080.50 1278.40 52.10 71 o
-2 2 8 1598.70 1387.40 52.80 71 o
-2 4 9 73.36 48.70 35.90 71 <
-3 -4 11 203.26 132.20 39.20 71 o
-3 -3 11 103.26 79.20 37.50 71 <
-3 -2 11 907.31 897.80 47.80 71 o
-3 -1 11 240.14 264.00 40.80 71 o
-3 2 12 2852.20 2305.10 60.00 71 o
-4 -3 15 41.17 67.80 38.20 71 <
-4 -2 15 74.97 81.20 38.00 71 <
-4 -1 15 119.03 131.20 38.30 71 o
-4 0 15 201.05 200.00 39.90 71 o
-4 2 16 103.52 100.70 37.70 71 <
-4 3 16 34.67 43.50 36.10 71 <
-5 -2 19 13.16 45.30 36.30 71 <
-5 -1 19 252.87 198.50 37.90 71 o
-5 0 19 8.65 28.20 36.00 71 <
-5 1 19 122.42 107.20 37.10 71 <
6 -1 -20 68.43 82.40 35.90 72 <
6 0 -20 278.76 284.10 38.50 72 o
6 1 -20 16.23 -18.70 35.50 72 <
5 -2 -17 35.40 -30.20 35.60 72 <
5 -1 -17 63.09 -35.80 36.30 72 <
5 0 -17 63.92 68.40 36.00 72 <
5 3 -16 30.25 -1.60 36.30 72 <
4 -3 -14 422.36 426.00 41.50 72 o
4 -2 -14 99.42 62.00 37.00 72 <
4 2 -13 67.79 40.20 37.30 72 <
3 1 -10 21.29 49.40 38.30 72 <
3 4 -9 25.08 40.40 36.40 72 <
2 -4 -7 144.79 150.70 37.70 72 o
2 -3 -7 45.00 7.70 37.20 72 <
2 -2 -7 1169.40 994.30 49.40 72 o
2 -1 -7 127.02 77.70 43.00 72 <
2 0 -7 6237.60 5633.80 85.20 72 o
2 3 -6 1824.80 1862.20 55.50 72 o
1 2 -3 166.94 169.50 41.70 72 o
1 4 -2 34.24 42.70 36.60 72 <
0 -4 0 1477.60 1820.00 56.70 72 o
0 3 1 19.43 0.40 37.00 72 <
-1 2 4 870.58 655.90 47.20 72 o
-1 4 5 187.28 169.70 38.50 72 o
-2 -4 7 160.17 147.80 39.30 72 o
-2 -3 7 30.62 0.60 38.40 72 <
-2 -2 7 1494.70 1343.50 52.90 72 o
-2 -1 7 124.43 81.70 42.50 72 <
-2 3 8 477.36 431.80 41.80 72 o
-2 4 9 94.78 48.70 36.90 72 <
-3 -4 11 210.95 262.80 41.00 72 o
-3 1 11 181.46 145.40 39.80 72 o
-3 3 12 9.69 50.00 35.70 72 <
-4 1 15 75.27 87.00 37.80 72 <
-4 2 15 114.52 124.90 37.80 72 o
-5 -2 18 372.29 332.60 40.60 72 o
-5 -1 18 1319.60 1199.50 49.80 72 o
-5 2 19 85.06 71.20 37.20 72 <
6 1 -19 60.37 -33.80 35.90 73 <
5 1 -16 42.06 39.10 36.20 73 <
4 0 -13 240.01 263.20 40.80 73 o
4 1 -13 1005.10 886.40 47.10 73 o
4 3 -12 149.53 116.50 37.80 73 o
3 -4 -10 39.41 55.10 37.10 73 <
3 -3 -10 6.85 -37.30 36.10 73 <
3 -2 -10 367.73 323.60 40.30 73 o
3 -1 -10 70.59 79.70 38.80 73 <
3 0 -10 1426.80 1385.30 53.30 73 o
3 3 -9 680.60 514.80 43.00 73 o
2 -4 -7 221.52 201.00 38.60 73 o
2 -3 -7 26.57 -4.80 37.20 73 <
2 -2 -7 1089.50 1009.90 49.30 73 o
2 2 -6 1875.10 1924.60 58.10 73 o
2 4 -5 94.81 87.90 37.60 73 <
1 4 -2 84.97 87.40 37.20 73 <
0 -4 0 1855.70 2069.70 58.60 73 o
0 3 1 47.82 107.60 38.10 73 <
-1 -3 3 588.96 569.70 45.30 73 o
-1 2 4 939.65 812.60 49.00 73 o
-1 4 5 210.89 139.50 37.50 73 o
-2 -4 7 174.49 139.70 40.20 73 o
-2 1 7 264.97 244.00 44.10 73 o
-2 3 8 402.53 412.20 41.40 73 o
-3 -4 10 101.69 92.50 38.50 73 <
-3 -3 10 7.38 39.80 37.80 73 <
-3 -2 10 398.48 451.70 43.00 73 o
-3 2 11 983.96 944.30 47.90 73 o
-4 -3 14 944.17 712.60 45.10 73 o
-4 0 14 274.59 275.00 40.10 73 o
-4 1 14 1877.40 1758.40 54.90 73 o
-4 3 15 83.74 148.00 37.50 73 o
-5 1 18 890.44 610.40 43.70 73 o
-5 2 18 559.43 516.70 42.10 73 o
-6 0 21 66.13 92.70 36.20 73 <
6 -1 -19 64.19 23.10 36.20 74 <
6 2 -18 218.36 206.60 38.60 74 o
5 -3 -16 9.36 0.60 35.70 74 <
5 -2 -16 89.48 -7.20 36.30 74 <
5 -1 -16 104.70 76.90 37.10 74 <
5 2 -15 467.29 534.90 42.90 74 o
5 3 -15 85.54 93.80 37.60 74 <
4 -3 -13 280.11 249.20 39.40 74 o
4 -2 -13 113.65 56.70 37.00 74 <
4 2 -12 1551.00 1464.80 52.90 74 o
4 4 -11 97.13 93.40 37.40 74 <
3 2 -9 287.55 363.10 42.20 74 o
3 4 -8 43.42 2.30 36.70 74 <
2 2 -6 2195.50 1907.40 58.70 74 o
2 4 -5 125.28 48.30 37.50 74 <
1 1 -3 2452.30 2545.60 71.90 74 o
1 4 -2 65.49 -24.30 36.70 74 <
0 -4 0 1631.00 1655.10 55.50 74 o
0 3 1 139.01 230.40 40.10 74 o
-1 -4 3 39.54 93.40 37.90 74 <
-1 -3 3 475.42 578.60 45.00 74 o
-1 -2 3 215.29 179.50 44.00 74 o
-1 4 5 245.90 177.20 38.60 74 o
-2 4 8 375.88 251.90 38.40 74 o
-3 -4 10 71.95 46.00 38.00 74 <
-3 -3 10 20.51 34.60 38.20 74 <
-3 0 10 1708.50 1419.80 54.50 74 o
-3 3 11 86.74 52.40 36.00 74 <
-4 -3 13 430.96 439.50 42.40 74 o
-4 -2 13 101.84 106.80 38.30 74 <
-4 2 14 70.91 75.60 37.00 74 <
-5 -1 17 117.18 57.50 36.50 74 <
-5 0 17 85.75 36.50 36.90 74 <
-5 1 17 104.88 22.40 36.70 74 <
-6 -1 20 53.21 43.20 36.60 74 <
6 -2 -18 120.71 131.10 37.50 75 o
6 -1 -18 467.23 411.10 41.80 75 o
6 0 -18 279.54 330.30 40.50 75 o
6 1 -18 502.97 452.10 41.30 75 o
5 0 -15 2273.40 1994.80 58.70 75 o
5 1 -15 386.35 462.70 42.50 75 o
4 1 -12 528.77 515.90 44.10 75 o
4 4 -11 35.92 9.00 36.40 75 <
3 -4 -9 85.06 254.50 39.50 75 o
3 1 -9 2676.80 2404.40 63.10 75 o
3 4 -8 36.94 32.30 36.60 75 <
2 -4 -6 488.76 355.90 40.70 75 o
2 1 -6 19708.00 18752.50 141.90 75 o
2 4 -5 75.61 67.80 37.30 75 <
1 -4 -3 49.10 61.20 37.80 75 <
1 4 -2 76.18 61.20 37.10 75 <
0 -4 0 1740.00 2304.50 60.90 75 o
0 3 1 37.28 27.50 37.80 75 <
-1 -4 3 88.82 63.60 38.50 75 <
-1 -3 3 394.45 320.10 42.10 75 o
-1 -2 3 258.77 238.30 45.00 75 o
-1 -1 3 1727.20 1749.60 64.90 75 o
-1 3 4 160.38 191.40 39.30 75 o
-2 2 7 1382.90 1092.70 49.80 75 o
-3 2 10 265.67 223.60 40.70 75 o
-3 4 11 157.74 174.00 37.90 75 o
-4 -3 13 517.71 368.40 42.30 75 o
-4 0 13 385.24 251.50 41.10 75 o
-4 1 13 1227.80 1287.40 51.20 75 o
-4 3 14 657.12 549.50 42.70 75 o
-5 -3 16 37.74 8.40 36.90 75 <
-5 -2 16 32.98 53.40 36.50 75 <
-5 -1 16 24.90 67.30 36.80 75 <
-5 2 17 40.80 34.30 36.40 75 <
-6 1 20 38.26 46.10 36.30 75 <
7 1 -20 28.74 -11.20 35.90 76 <
6 2 -17 59.57 66.20 36.90 76 <
5 -3 -15 141.81 154.80 37.80 76 o
5 -2 -15 553.12 670.80 44.20 76 o
5 -1 -15 563.17 531.80 43.30 76 o
5 3 -14 264.94 -45.00 37.40 76 <
4 -3 -12 83.51 130.90 37.90 76 o
4 -2 -12 868.49 953.60 47.00 76 o
4 -1 -12 1302.20 1039.60 49.20 76 o
4 0 -12 4052.90 3836.80 72.20 76 o
4 3 -11 278.02 307.20 40.30 76 o
3 -4 -9 24.77 10.10 37.40 76 <
3 -3 -9 571.67 794.60 46.50 76 o
3 -2 -9 315.76 349.80 42.90 76 o
3 -1 -9 2463.00 2208.10 61.90 76 o
3 0 -9 883.10 810.60 51.00 76 o
3 3 -8 26.92 69.00 37.30 76 <
3 4 -8 109.99 79.90 37.30 76 <
2 -4 -6 85.70 133.60 38.50 76 o
2 -3 -6 4145.20 5181.20 80.00 76 o
2 -2 -6 2408.20 2327.10 61.60 76 o
2 -1 -6 15677.00 17093.70 136.20 76 o
2 0 -6 12118.00 10377.50 111.10 76 o
2 4 -5 103.00 -63.30 37.40 76 <
1 -4 -3 27.61 100.90 38.50 76 <
1 -3 -3 165.49 353.90 42.10 76 o
1 0 -3 4598.60 5246.70 93.20 76 o
1 4 -2 60.75 37.40 36.40 76 <
0 -4 0 1638.30 2093.10 59.30 76 o
0 -2 0 29787.00 32452.60 183.60 76 o
0 4 1 33.51 4.00 36.80 76 <
-1 -4 3 73.57 121.40 38.90 76 o
-1 -3 3 267.03 412.60 44.30 76 o
-1 -2 3 659.01 881.30 51.60 76 o
-1 -1 3 4903.40 3585.00 77.20 76 o
-1 3 4 291.86 163.00 39.50 76 o
-2 -3 6 2563.40 2197.00 60.80 76 o
-2 -2 6 2442.20 2592.70 64.60 76 o
-2 -1 6 27938.00 24443.60 160.40 76 o
-2 3 7 18.00 17.20 37.20 76 <
-3 3 10 41.80 32.50 36.40 76 <
-4 2 13 78.71 66.80 37.70 76 <
-5 1 16 20.20 6.00 37.00 76 <
-5 2 16 96.40 70.00 36.90 76 <
-6 -1 19 34.30 29.90 36.70 76 <
-6 0 19 49.91 58.60 36.60 76 <
-6 1 19 52.07 47.70 36.40 76 <
7 -1 -20 102.94 5.10 35.00 77 <
6 -2 -17 51.86 -19.30 35.60 77 <
6 -1 -17 334.23 131.30 37.70 77 o
6 0 -17 80.33 -37.60 36.40 77 <
6 1 -17 232.36 210.30 38.40 77 o
5 1 -14 212.29 325.40 39.90 77 o
5 2 -14 102.30 53.00 37.30 77 <
4 2 -11 197.24 218.60 39.20 77 o
3 3 -8 55.78 57.10 37.30 77 <
2 -4 -6 438.40 337.40 40.70 77 o
2 -3 -6 2505.80 2325.20 60.50 77 o
2 -2 -6 2352.70 2031.30 58.90 77 o
2 -1 -6 17795.00 21167.20 149.40 77 o
2 3 -5 19.34 -19.40 37.40 77 <
1 -4 -3 45.13 82.90 37.80 77 <
1 -3 -3 290.07 471.10 43.50 77 o
1 -2 -3 1019.50 468.80 46.80 77 o
1 -1 -3 4056.00 3124.20 73.70 77 o
1 3 -2 409.55 484.10 42.60 77 o
0 -4 0 1212.70 1803.90 56.70 77 o
-1 -4 3 68.82 58.40 37.70 77 <
-1 -3 3 242.47 378.30 43.00 77 o
-1 4 4 120.65 106.70 36.90 77 <
-2 -4 6 114.27 111.90 39.20 77 <
-2 -3 6 4056.70 5061.40 79.80 77 o
-2 0 6 12451.00 9433.00 105.70 77 o
-2 4 7 141.60 101.30 37.50 77 <
-3 -4 9 26.10 35.70 38.10 77 <
-3 -3 9 665.79 716.20 46.20 77 o
-3 -2 9 402.19 298.60 41.90 77 o
-3 -1 9 3232.40 1796.40 58.20 77 o
-3 0 9 875.71 717.30 49.20 77 o
-3 3 10 20.27 11.30 36.60 77 <
-3 4 10 101.97 -27.70 35.90 77 <
-4 -3 12 66.50 194.60 39.10 77 o
-4 -2 12 977.47 968.80 47.80 77 o
-4 -1 12 1323.00 967.80 48.00 77 o
-4 0 12 3737.90 3988.30 73.20 77 o
-4 3 13 418.59 244.10 39.00 77 o
-5 -3 15 144.25 184.60 39.20 77 o
-5 -2 15 552.69 752.00 45.80 77 o
-5 -1 15 470.15 524.70 43.30 77 o
-5 0 15 1870.20 1956.40 57.20 77 o
-5 3 16 16.32 35.10 36.10 77 <
-6 -2 18 98.63 158.80 38.30 77 o
-6 -1 18 407.62 470.90 42.30 77 o
7 0 -19 12.31 11.40 35.80 78 <
7 1 -19 75.17 51.30 36.30 78 <
6 2 -16 162.72 139.70 37.70 78 o
5 -3 -14 77.55 7.20 37.00 78 <
5 -2 -14 75.54 -32.30 36.80 78 <
5 -1 -14 119.64 159.50 38.30 78 o
5 0 -14 192.51 168.80 38.50 78 o
4 -4 -11 55.31 35.80 36.40 78 <
4 -3 -11 357.66 429.20 41.60 78 o
4 1 -11 1425.80 1237.40 51.60 78 o
4 4 -10 43.40 27.10 36.50 78 <
3 -4 -8 53.99 30.80 36.80 78 <
3 2 -8 239.35 230.40 40.10 78 o
2 3 -5 59.10 14.90 37.20 78 <
1 4 -2 71.85 86.60 36.70 78 <
0 -2 0 37179.00 36418.90 192.80 78 o
0 4 1 17.29 29.60 36.10 78 <
-1 -4 3 72.33 53.00 37.90 78 <
-1 -3 3 287.40 501.20 44.30 78 o
-1 1 3 1567.90 1577.40 63.20 78 o
-1 4 4 102.15 101.20 36.60 78 <
-2 -4 6 405.48 441.10 43.00 78 o
-2 -3 6 2446.80 2268.60 61.90 78 o
-2 1 6 14337.00 14170.10 125.20 78 o
-2 2 6 2158.30 2140.30 59.80 78 o
-2 4 7 109.14 85.50 36.80 78 <
-3 -4 9 138.99 116.20 39.60 78 <
-3 2 9 354.82 381.10 42.40 78 o
-3 4 10 18.13 13.10 36.10 78 <
-4 1 12 969.90 714.10 45.70 78 o
-4 2 12 1185.50 1143.60 50.00 78 o
-5 -3 15 148.52 137.30 38.50 78 o
-5 1 15 508.81 478.70 42.50 78 o
-5 2 15 700.29 738.40 45.50 78 o
-6 1 18 460.26 415.80 41.50 78 o
-6 2 18 183.55 161.40 38.50 78 o
7 2 -18 92.47 -39.80 36.50 79 <
6 -2 -16 167.72 208.50 38.00 79 o
6 -1 -16 8.58 -24.80 35.70 79 <
6 0 -16 412.96 391.10 41.10 79 o
6 1 -16 14.02 43.70 35.90 79 <
5 2 -13 13.24 4.40 36.20 79 <
4 -3 -11 315.07 297.30 39.80 79 o
4 -2 -11 194.47 194.30 38.70 79 o
4 -1 -11 1814.10 891.60 47.80 79 o
4 3 -10 234.66 265.70 39.40 79 o
3 -4 -8 45.08 29.50 36.60 79 <
3 -3 -8 24.84 9.40 36.30 79 <
3 1 -8 83.99 90.60 41.00 79 <
3 4 -7 31.18 49.00 36.70 79 <
2 2 -5 325.03 463.00 44.10 79 o
1 3 -2 379.20 348.50 41.50 79 o
0 -4 0 1374.40 1866.60 57.20 79 o
0 -2 0 40530.00 37446.40 195.50 79 o
0 4 1 12.57 9.50 36.10 79 <
-1 -4 3 17.96 60.30 37.40 79 <
-1 4 4 89.87 98.20 37.00 79 <
-2 2 6 1620.80 1417.80 53.70 79 o
-3 3 9 792.11 593.00 43.60 79 o
-4 -3 11 208.26 169.10 39.20 79 o
-4 -2 11 281.70 366.60 41.40 79 o
-4 3 12 142.24 144.10 37.90 79 o
-5 -3 14 226.93 187.90 38.50 79 o
-5 -2 14 81.15 117.20 37.90 79 o
-5 -1 14 284.97 261.00 39.50 79 o
-5 0 14 189.46 200.70 38.80 79 o
-5 3 15 76.39 73.40 36.50 79 <
-6 -2 17 30.46 3.00 36.50 79 <
-6 -1 17 155.11 119.10 37.60 79 o
-6 0 17 85.04 99.20 37.30 79 <
-7 -1 20 28.49 8.90 36.00 79 <
-7 0 20 786.10 703.20 44.40 79 o
-7 1 20 96.97 86.70 36.40 79 <
7 1 -18 29.93 -23.00 35.70 80 <
7 2 -18 36.73 -2.50 36.20 80 <
6 3 -15 47.53 -3.90 36.60 80 <
5 -3 -13 58.30 76.60 36.20 80 <
5 0 -13 72.60 86.40 38.30 80 <
5 1 -13 221.38 240.60 40.50 80 o
4 3 -10 361.32 363.00 40.80 80 o
3 -4 -8 33.36 10.50 36.60 80 <
3 -3 -8 29.45 50.40 37.00 80 <
3 -2 -8 307.31 285.60 41.00 80 o
3 -1 -8 51.28 30.90 41.20 80 <
3 0 -8 1501.50 1187.80 54.20 80 o
3 4 -7 18.31 -10.30 36.90 80 <
2 -4 -5 149.97 -31.40 37.40 80 <
2 2 -5 526.44 470.70 44.40 80 o
1 3 -2 247.30 245.60 40.30 80 o
0 -4 0 1636.20 1989.60 58.80 80 o
0 -2 0 42180.00 43691.40 210.60 80 o
0 4 1 12.00 -13.60 35.90 80 <
-1 -4 3 52.94 84.80 37.20 80 <
-1 2 3 163.80 155.10 42.10 80 o
-2 3 6 2604.20 2243.60 59.40 80 o
-3 3 9 740.62 571.50 42.80 80 o
-4 -4 11 82.10 65.40 37.80 80 <
-4 -3 11 445.19 318.20 41.40 80 o
-4 -2 11 168.67 133.60 38.80 80 o
-4 -1 11 663.01 662.20 45.50 80 o
-4 0 11 880.02 674.20 45.00 80 o
-5 -3 14 48.12 40.20 37.50 80 <
-5 0 14 166.66 169.60 38.40 80 o
-5 1 14 344.41 184.40 39.70 80 o
-6 1 17 322.97 221.20 38.80 80 o
-6 2 17 121.99 127.40 36.40 80 o
-7 1 20 94.92 63.30 36.70 80 <
8 0 -20 58.66 67.30 35.60 81 <
6 -3 -15 38.65 -12.80 35.20 81 <
6 1 -15 52.54 28.30 36.30 81 <
6 2 -15 335.44 360.90 40.50 81 o
5 3 -12 1478.60 1461.30 51.90 81 o
4 -4 -10 45.86 18.10 35.70 81 <
4 -3 -10 398.93 423.10 41.10 81 o
4 1 -10 3106.60 3099.20 66.00 81 o
4 2 -10 85.19 94.30 38.00 81 <
3 3 -7 21.50 38.20 36.80 81 <
3 4 -7 39.29 12.10 36.30 81 <
2 -4 -5 155.53 126.40 37.60 81 o
2 -3 -5 30.50 16.50 37.70 81 <
2 1 -5 227.38 259.40 45.80 81 o
1 3 -2 340.38 288.50 40.40 81 o
0 -2 0 41584.00 42672.20 208.30 81 o
0 4 1 7.28 1.60 36.40 81 <
-1 -4 3 34.53 18.40 37.10 81 <
-1 2 3 131.60 125.40 41.70 81 o
-2 3 6 2341.70 2175.90 59.60 81 o
-2 4 6 332.44 276.70 39.10 81 o
-3 -4 8 71.61 44.70 38.20 81 <
-3 -3 8 30.03 42.20 37.70 81 <
-3 -2 8 331.07 275.20 41.20 81 o
-3 -1 8 75.20 100.50 41.00 81 <
-3 0 8 1486.90 1310.90 54.60 81 o
-3 1 8 146.91 116.40 42.90 81 <
-3 4 9 35.49 27.50 36.10 81 <
-4 -4 11 96.79 97.30 37.30 81 <
-4 2 11 255.02 165.90 39.90 81 o
-5 3 14 56.73 24.80 36.50 81 <
-6 -2 16 203.39 153.70 38.60 81 o
-6 -1 16 7.23 14.40 36.30 81 <
-6 0 16 506.77 495.10 42.70 81 o
-7 -1 19 18.52 11.40 36.30 81 <
-7 0 19 15.17 25.30 36.00 81 <
-7 1 19 38.27 51.40 36.50 81 <
7 -2 -17 203.33 253.20 38.80 82 o
7 0 -17 554.64 471.00 42.00 82 o
7 1 -17 746.14 708.90 44.00 82 o
7 2 -17 141.03 -53.80 36.80 82 <
6 -1 -15 36.15 16.40 36.60 82 <
5 2 -12 475.20 487.10 42.70 82 o
5 3 -12 1780.20 1770.30 54.90 82 o
4 -3 -10 811.85 704.10 45.20 82 o
4 -2 -10 100.52 94.60 38.00 82 <
4 -1 -10 1823.60 1953.60 58.40 82 o
4 0 -10 453.71 344.90 44.00 82 o
4 4 -9 14.57 12.30 36.30 82 <
3 3 -7 40.53 32.40 37.50 82 <
2 -3 -5 19.54 1.40 38.20 82 <
2 -2 -5 836.22 767.20 48.80 82 o
2 -1 -5 95.51 166.10 45.70 82 o
2 0 -5 4465.80 4141.80 82.60 82 o
2 4 -4 86.99 -6.60 36.50 82 <
1 3 -2 502.57 385.30 42.00 82 o
0 -2 0 45835.00 43576.30 211.00 82 o
0 4 1 15.38 14.70 36.30 82 <
-1 -4 3 98.16 32.40 37.90 82 <
-1 3 3 408.50 297.10 40.80 82 o
-2 -2 5 1023.00 962.00 51.20 82 o
-2 -1 5 414.90 533.90 49.10 82 o
-2 4 6 400.58 275.70 39.70 82 o
-3 -4 8 60.03 64.60 38.70 82 <
-3 2 8 337.66 292.10 42.30 82 o
-4 3 11 425.71 364.30 40.60 82 o
-4 4 11 99.34 59.20 36.80 82 <
-5 -3 13 60.68 60.80 37.80 82 <
-5 -2 13 28.15 5.60 37.40 82 <
-5 -1 13 135.98 173.90 39.50 82 o
-5 0 13 51.39 97.10 38.50 82 <
-5 1 13 297.91 342.80 41.60 82 o
-6 2 16 136.95 184.70 38.50 82 o
8 -1 -19 81.70 13.70 35.70 83 <
8 0 -19 44.07 60.90 35.90 83 <
6 2 -14 9.50 53.50 36.70 83 <
5 -3 -12 2205.30 1898.80 56.20 83 o
5 -2 -12 488.02 466.10 42.20 83 o
5 -1 -12 3788.90 4652.80 77.60 83 o
5 0 -12 1363.40 1001.30 49.60 83 o
4 3 -9 260.25 269.30 40.40 83 o
3 -4 -7 63.39 14.80 36.40 83 <
3 2 -7 197.85 178.00 41.00 83 o
2 -3 -5 59.74 28.80 38.70 83 <
2 -2 -5 1142.40 1020.20 51.40 83 o
2 4 -4 54.74 -15.30 37.30 83 <
0 -4 0 2396.50 2653.40 64.40 83 o
0 -2 0 54404.00 48877.40 223.40 83 o
0 4 1 22.71 -10.70 36.30 83 <
-1 3 3 324.69 295.80 41.50 83 o
-2 -4 5 64.25 21.10 38.50 83 <
-2 -3 5 43.87 45.20 39.40 83 <
-2 4 6 251.35 305.80 40.20 83 o
-3 3 8 18.13 7.40 36.70 83 <
-4 -4 10 53.63 31.60 38.00 83 <
-4 -3 10 780.82 828.00 47.80 83 o
-4 -2 10 94.14 66.70 38.70 83 <
-4 -1 10 1666.20 1737.20 57.50 83 o
-4 0 10 426.74 427.90 44.80 83 o
-4 1 10 4099.00 4179.00 75.70 83 o
-4 4 11 104.56 144.30 37.50 83 o
-5 2 13 22.94 18.70 37.00 83 <
-5 3 13 63.95 55.60 37.30 83 <
-6 -3 15 15.32 38.60 36.90 83 <
-6 -2 15 423.70 406.60 41.70 83 o
-6 -1 15 24.74 30.60 37.00 83 <
-6 0 15 1492.50 1380.50 52.30 83 o
-7 1 18 74.30 99.00 37.50 83 <
-7 2 18 128.13 64.70 36.90 83 <
7 1 -16 390.11 383.20 40.80 84 o
7 2 -16 51.12 3.50 36.50 84 <
6 -3 -14 747.26 377.00 40.60 84 o
6 -2 -14 8.82 19.90 36.60 84 <
6 -1 -14 674.58 713.70 45.60 84 o
6 0 -14 34.88 38.40 37.50 84 <
5 3 -11 451.02 354.90 41.30 84 o
4 -4 -9 11.50 0.10 36.10 84 <
4 2 -9 24.62 49.30 39.00 84 <
4 3 -9 233.75 229.50 39.80 84 o
3 -4 -7 51.12 10.10 36.80 84 <
3 -3 -7 23.37 33.50 37.80 84 <
3 -2 -7 201.27 150.90 41.20 84 o
3 0 -7 1195.10 1085.20 54.40 84 o
3 1 -7 162.65 164.00 45.20 84 o
3 4 -6 394.65 498.30 43.40 84 o
2 4 -4 63.43 40.70 37.50 84 <
1 -4 -2 257.11 227.90 39.90 84 o
1 2 -2 812.86 865.10 52.80 84 o
0 -4 0 2117.30 2432.40 63.00 84 o
0 -2 0 48073.00 46974.10 219.30 84 o
0 4 1 16.79 0.20 37.20 84 <
-1 3 3 305.11 239.70 41.30 84 o
-2 -4 5 170.92 162.60 39.00 84 o
-2 -3 5 39.84 -12.80 39.80 84 <
-2 1 5 114.44 187.60 46.70 84 o
-3 4 8 199.23 62.10 37.00 84 <
-4 -4 10 43.16 1.90 37.60 84 <
-4 2 10 73.73 102.50 39.50 84 <
-5 -2 12 561.59 459.10 43.40 84 o
-5 -1 12 6884.60 7641.90 96.00 84 o
-6 1 15 55.25 65.40 37.90 84 <
-6 2 15 597.79 433.10 42.10 84 o
-7 -2 17 223.69 265.70 39.60 84 o
-7 -1 17 441.42 381.90 40.90 84 o
-8 0 20 109.32 56.70 36.50 84 <
8 -1 -18 55.80 -27.40 36.00 85 <
8 0 -18 696.14 485.50 41.90 85 o
6 3 -13 125.14 -30.90 37.00 85 <
5 2 -11 24.18 -3.00 37.20 85 <
4 -4 -9 7.93 7.90 36.20 85 <
4 -3 -9 265.42 184.90 38.80 85 o
4 -2 -9 17.17 -32.30 39.20 85 <
4 0 -9 75.12 149.90 43.20 85 o
4 1 -9 1852.30 2034.20 59.30 85 o
3 -2 -7 342.40 261.30 41.40 85 o
3 4 -6 430.87 557.80 43.80 85 o
2 3 -4 478.67 529.20 44.40 85 o
1 -4 -2 313.00 265.30 39.70 85 o
1 2 -2 739.03 849.90 53.20 85 o
0 -2 0 48883.00 52216.30 230.60 85 o
0 4 1 18.50 19.60 36.90 85 <
-1 3 3 244.11 275.50 41.30 85 o
-1 4 3 53.37 37.90 36.30 85 <
-2 -4 5 224.17 100.30 39.00 85 <
-2 2 5 860.35 595.70 47.60 85 o
-3 -3 7 15.18 8.30 39.30 85 <
-3 -2 7 146.21 191.20 41.30 85 o
-3 -1 7 38.19 43.70 43.50 85 <
-3 0 7 1047.30 1104.70 54.00 85 o
-3 4 8 81.37 -1.40 36.80 85 <
-4 3 10 628.06 558.10 43.60 85 o
-5 -3 12 2185.80 2162.20 59.60 85 o
-5 1 12 7641.80 7174.80 93.30 85 o
-5 2 12 479.21 450.10 42.50 85 o
-6 3 15 63.49 48.20 36.40 85 <
-7 1 17 884.46 735.80 45.40 85 o
-7 2 17 247.47 202.50 38.60 85 o
-8 -1 19 48.93 50.40 37.00 85 <
-8 0 19 45.04 34.80 36.80 85 <
7 3 -15 394.77 469.10 42.50 86 o
6 -3 -13 68.39 -42.60 36.80 86 <
6 2 -13 128.49 136.80 38.50 86 o
6 3 -13 82.59 50.90 37.70 86 <
5 -3 -11 563.36 494.30 42.30 86 o
5 -2 -11 20.40 31.30 37.70 86 <
5 0 -11 42.81 33.30 40.00 86 <
5 1 -11 2329.20 2279.90 60.90 86 o
5 2 -11 18.24 26.40 37.60 86 <
4 -2 -9 36.20 101.50 39.00 86 <
4 -1 -9 795.58 865.60 49.20 86 o
4 0 -9 71.86 148.00 42.70 86 o
4 4 -8 852.24 825.80 46.40 86 o
3 4 -6 505.97 632.40 44.50 86 o
2 3 -4 514.82 519.00 44.30 86 o
1 -4 -2 149.25 113.90 38.80 86 <
1 2 -2 637.21 651.30 52.50 86 o
0 -2 0 52202.00 50128.90 226.40 86 o
-1 4 3 20.40 28.00 36.60 86 <
-2 -4 5 187.41 144.00 39.50 86 o
-2 3 5 54.34 22.70 38.20 86 <
-3 -4 7 53.07 59.30 38.30 86 <
-3 -3 7 15.36 7.20 39.30 86 <
-3 -2 7 300.07 222.60 43.40 86 o
-3 1 7 150.89 146.20 44.50 86 o
-4 4 10 31.81 19.00 36.00 86 <
-5 2 12 669.02 520.70 43.30 86 o
-5 3 12 1826.10 1866.10 56.10 86 o
-6 -3 14 536.79 462.10 42.60 86 o
-6 -2 14 14.33 19.70 37.30 86 <
-6 -1 14 696.22 732.80 45.30 86 o
-6 0 14 26.10 62.90 37.50 86 <
-6 1 14 1465.40 1170.10 50.50 86 o
-8 1 19 228.23 153.20 37.90 86 o
9 0 -19 52.90 33.30 35.80 87 <
9 1 -19 103.46 134.00 37.40 87 o
8 -2 -17 37.52 52.80 36.60 87 <
8 -1 -17 178.53 167.00 38.20 87 o
8 0 -17 82.51 80.80 37.50 87 <
8 1 -17 149.88 133.40 37.70 87 o
8 2 -17 25.70 3.70 36.50 87 <
7 -3 -15 316.86 293.50 39.70 87 o
7 -2 -15 734.32 837.30 46.00 87 o
7 -1 -15 432.51 514.50 42.40 87 o
7 0 -15 1172.90 1184.40 49.90 87 o
7 1 -15 902.63 792.20 46.00 87 o
6 -3 -13 137.52 72.40 37.20 87 <
6 -2 -13 186.49 209.00 38.50 87 o
6 -1 -13 93.68 131.40 38.50 87 o
6 0 -13 198.37 186.70 39.40 87 o
5 4 -10 194.79 -111.20 38.60 87 <
4 4 -8 882.44 811.00 46.50 87 o
3 3 -6 3146.60 3242.10 68.80 87 o
3 4 -6 755.65 768.50 46.30 87 o
2 -4 -4 300.44 285.70 40.70 87 o
2 3 -4 514.98 486.50 44.90 87 o
1 -4 -2 165.16 116.20 38.60 87 o
1 -3 -2 860.45 804.70 47.90 87 o
1 2 -2 741.02 679.30 53.00 87 o
0 -2 0 50338.00 50249.60 226.80 87 o
-1 4 3 21.20 32.20 36.70 87 <
-2 3 5 52.05 31.70 38.30 87 <
-2 4 5 401.57 310.90 39.80 87 o
-3 -4 7 31.82 13.90 38.30 87 <
-3 2 7 274.21 175.60 42.30 87 o
-3 3 7 17.72 35.00 37.10 87 <
-4 -3 9 352.59 414.20 43.10 87 o
-4 -2 9 27.42 27.80 39.50 87 <
-4 -1 9 603.38 709.80 47.70 87 o
-4 0 9 62.46 98.70 42.20 87 <
-4 1 9 1605.80 1292.40 54.50 87 o
-6 3 14 362.68 300.40 40.90 87 o
-7 -2 16 5.36 32.00 36.40 87 <
-7 -1 16 165.78 159.50 38.40 87 o
-7 0 16 6.50 8.80 36.80 87 <
-7 1 16 253.57 243.20 39.80 87 o
-7 2 16 5.90 -6.10 36.50 87 <
7 3 -14 324.09 430.90 41.90 88 o
6 3 -12 328.06 334.10 41.50 88 o
5 3 -10 66.20 72.80 38.30 88 <
5 4 -10 115.06 -9.70 37.70 88 <
4 -4 -8 975.61 875.20 46.60 88 o
4 3 -8 189.76 229.20 40.70 88 o
3 -4 -6 615.72 549.30 43.50 88 o
3 3 -6 3008.40 3116.10 68.70 88 o
2 -4 -4 245.53 127.10 39.00 88 o
2 -3 -4 686.94 1013.00 49.60 88 o
2 2 -4 1012.30 997.90 53.90 88 o
1 -4 -2 74.87 66.90 38.10 88 <
1 -3 -2 645.65 737.70 47.30 88 o
1 1 -2 3157.90 4099.10 84.40 88 o
0 -2 0 44768.00 44841.80 215.20 88 o
-1 4 3 44.17 49.00 36.40 88 <
-2 4 5 209.11 120.70 38.20 88 o
-3 3 7 21.15 20.80 37.60 88 <
-4 -4 9 18.14 -0.60 38.20 88 <
-4 2 9 27.23 55.40 39.00 88 <
-4 3 9 205.32 320.30 41.00 88 o
-5 -3 11 401.90 278.30 41.80 88 o
-5 -2 11 27.00 54.20 37.20 88 <
-5 -1 11 852.83 609.80 46.00 88 o
-5 0 11 22.37 31.50 38.70 88 <
-5 1 11 2139.60 1402.50 54.00 88 o
-5 2 11 30.74 38.20 37.70 88 <
-6 -2 13 108.58 109.90 39.00 88 <
-6 -1 13 85.48 93.60 38.70 88 <
-6 0 13 287.24 329.90 41.00 88 o
9 1 -18 63.55 112.60 37.50 89 o
8 2 -16 446.97 321.80 40.50 89 o
7 -3 -14 153.44 133.40 38.40 89 o
7 2 -14 257.14 205.10 39.60 89 o
7 3 -14 177.53 -32.60 38.00 89 <
6 -3 -12 101.99 174.20 38.80 89 o
6 2 -12 209.59 236.30 40.90 89 o
6 3 -12 336.39 600.90 43.90 89 o
5 -4 -10 160.37 87.60 37.70 89 <
5 -3 -10 114.10 120.80 38.30 89 o
5 2 -10 384.71 460.20 43.70 89 o
5 3 -10 154.84 237.90 40.20 89 o
4 -4 -8 622.26 446.00 42.20 89 o
4 -3 -8 140.10 105.20 38.90 89 <
4 2 -8 2890.60 3168.70 69.20 89 o
4 3 -8 173.73 155.20 40.60 89 o
3 -4 -6 604.16 517.60 43.40 89 o
3 -3 -6 2880.70 2212.90 60.50 89 o
3 2 -6 3204.80 3666.80 73.40 89 o
2 -4 -4 302.50 229.60 40.20 89 o
2 -3 -4 761.51 904.50 49.70 89 o
2 2 -4 938.73 726.30 51.20 89 o
1 -3 -2 469.70 582.50 46.20 89 o
1 -2 -2 1106.60 1229.90 56.10 89 o
1 1 -2 2586.20 3096.40 79.20 89 o
0 -2 0 41346.00 38350.30 199.30 89 o
-2 4 5 273.13 155.70 38.40 89 o
-3 4 7 85.15 39.80 36.40 89 <
-4 -4 9 24.20 15.80 38.40 89 <
-4 3 9 245.78 208.70 39.90 89 o
-4 4 9 65.40 54.20 36.70 89 <
-5 -3 11 212.33 138.10 40.20 89 o
-5 2 11 15.52 14.20 37.70 89 <
-5 3 11 357.38 248.30 39.70 89 o
-6 -3 13 38.72 20.70 38.00 89 <
-6 -2 13 263.35 123.50 38.80 89 o
-6 0 13 220.82 94.60 39.30 89 <
-6 1 13 233.01 113.00 39.60 89 <
-6 2 13 249.50 212.20 38.60 89 o
-7 -2 15 883.61 861.00 47.10 89 o
-7 -1 15 398.51 431.60 41.90 89 o
-7 0 15 822.55 733.70 46.20 89 o
-7 1 15 764.84 673.80 44.90 89 o
7 -2 -14 554.14 510.60 42.90 90 o
7 -1 -14 611.01 317.10 41.10 90 o
7 0 -14 125.97 137.60 38.90 90 o
6 -3 -12 447.37 583.90 43.40 90 o
6 -2 -12 182.11 194.00 39.40 90 o
6 -1 -12 1435.70 1533.10 54.30 90 o
6 0 -12 1059.80 834.20 47.60 90 o
5 -3 -10 57.53 198.70 39.10 90 o
5 -2 -10 299.10 299.50 41.60 90 o
5 -1 -10 250.25 512.00 45.60 90 o
5 0 -10 1071.50 821.00 48.70 90 o
4 -3 -8 200.70 162.00 39.90 90 o
4 -2 -8 1952.40 1554.70 55.40 90 o
4 -1 -8 474.57 389.60 46.90 90 o
4 0 -8 4936.10 4189.70 77.30 90 o
4 1 -8 703.36 566.50 48.50 90 o
3 -3 -6 3158.10 2976.00 65.60 90 o
3 -2 -6 2996.30 2995.10 68.10 90 o
3 -1 -6 9793.40 9742.60 107.00 90 o
3 0 -6 16363.00 13920.80 125.90 90 o
3 1 -6 13238.00 10680.60 112.30 90 o
2 -3 -4 691.74 1154.80 51.30 90 o
2 -2 -4 647.92 598.50 48.20 90 o
2 0 -4 2773.00 2961.50 78.60 90 o
2 1 -4 9344.90 5886.50 90.60 90 o
1 -3 -2 306.97 637.10 46.80 90 o
1 -2 -2 1326.00 2247.10 63.90 90 o
0 -2 0 27307.00 30159.00 178.10 90 o
-1 -3 2 497.46 960.20 50.60 90 o
-1 -2 2 1674.90 2327.90 65.10 90 o
-1 -1 2 3832.20 5352.80 90.00 90 o
-2 -2 4 866.82 927.10 53.20 90 o
-2 -1 4 10161.00 9599.50 108.10 90 o
-2 4 5 117.04 38.40 37.20 90 <
-3 4 7 47.78 33.00 36.40 90 <
-4 4 9 11.08 45.90 36.40 90 <
-6 3 13 69.15 51.30 36.80 90 <
-7 2 15 606.67 540.50 43.50 90 o
-7 3 15 272.41 175.60 38.20 90 o
-8 1 17 235.73 124.20 37.60 90 o
-8 2 17 31.42 42.50 36.60 90 <
-9 -1 19 51.10 40.30 36.20 90 <
-9 0 19 57.79 -5.10 36.30 90 <
-9 1 19 94.25 66.60 37.00 90 <
9 -2 -17 28.17 -2.00 35.80 92 <
9 -1 -17 322.66 207.30 38.20 92 o
9 0 -17 27.12 1.30 36.00 92 <
9 1 -17 565.77 -49.80 36.90 92 <
8 -2 -15 674.65 751.20 45.00 92 o
8 -1 -15 24.86 13.80 36.20 92 <
8 0 -15 1217.00 868.80 46.60 92 o
8 1 -15 53.54 -6.80 36.90 92 <
8 2 -15 611.18 589.80 43.30 92 o
7 -3 -13 11.71 15.80 35.90 92 <
7 2 -13 83.88 129.80 38.20 92 o
7 3 -13 42.26 -27.00 36.90 92 <
6 3 -11 103.39 121.90 38.50 92 o
5 3 -9 2414.10 2243.50 59.90 92 o
5 4 -9 59.56 -10.80 37.60 92 <
4 4 -7 82.33 67.30 37.50 92 <
3 4 -5 182.23 199.00 39.20 92 o
1 -2 -2 1283.90 1903.00 61.00 92 o
0 -2 0 34017.00 33226.70 186.10 92 o
-1 -3 2 466.77 734.30 47.20 92 o
-1 -2 2 1250.90 1585.00 59.60 92 o
-1 1 2 2119.70 4153.10 84.40 92 o
-2 -4 4 155.75 122.70 39.10 92 o
-2 -3 4 919.37 1148.10 51.70 92 o
-2 -2 4 830.84 661.40 50.90 92 o
-2 1 4 7083.50 6915.30 94.90 92 o
-3 -4 6 999.16 954.80 49.00 92 o
-3 -3 6 2266.70 1730.90 57.60 92 o
-3 1 6 13531.00 11521.20 115.70 92 o
-3 2 6 3244.60 4460.50 78.20 92 o
-4 -4 8 967.57 913.80 48.80 92 o
-4 -3 8 107.26 134.80 40.20 92 o
-4 1 8 656.35 531.80 47.90 92 o
-4 2 8 2585.60 2555.40 64.20 92 o
-5 -4 10 99.69 109.70 38.80 92 <
-5 -3 10 65.38 116.90 39.50 92 <
-5 -2 10 373.34 355.80 42.80 92 o
-5 1 10 394.69 313.50 43.20 92 o
-5 2 10 435.70 561.00 44.80 92 o
-6 -3 12 414.42 444.90 43.00 92 o
-6 -2 12 188.41 125.80 39.20 92 o
-6 0 12 908.57 691.10 46.80 92 o
-6 1 12 2884.70 2105.90 59.10 92 o
-6 2 12 192.96 145.20 39.40 92 o
-7 -3 14 269.10 176.40 39.80 92 o
-7 -2 14 499.96 350.50 41.40 92 o
-7 -1 14 263.07 269.60 40.60 92 o
-7 0 14 109.92 89.70 38.90 92 <
-7 1 14 943.90 675.20 45.60 92 o
-7 2 14 254.19 255.20 39.70 92 o
-8 -2 16 148.92 103.60 38.50 92 <
-8 -1 16 30.27 -7.50 37.10 92 <
-8 0 16 361.78 316.60 40.80 92 o
-8 1 16 51.94 17.70 37.00 92 <
-8 2 16 368.45 260.50 39.90 92 o
-9 -1 18 56.97 56.80 36.80 92 <
-9 0 18 427.36 492.20 42.70 92 o
-9 1 18 82.00 65.00 36.80 92 <
7 -2 -13 65.19 33.70 36.70 93 <
7 -1 -13 33.93 58.20 37.80 93 <
7 0 -13 20.48 75.40 37.90 93 <
7 1 -13 49.28 89.90 38.20 93 <
6 -3 -11 61.39 23.60 36.90 93 <
6 -2 -11 209.46 234.20 39.70 93 o
6 1 -11 57.24 69.20 39.60 93 <
6 2 -11 171.05 218.30 39.90 93 o
5 -4 -9 15.93 -44.70 36.60 93 <
5 -3 -9 1915.60 1654.20 53.90 93 o
5 3 -9 1745.60 1976.20 57.60 93 o
4 -4 -7 174.50 120.00 37.70 93 o
4 3 -7 40.95 32.70 37.90 93 <
4 4 -7 182.92 156.90 38.20 93 o
3 4 -5 287.70 312.50 41.40 93 o
0 -2 0 35575.00 36561.40 194.90 93 o
-1 -3 2 508.03 587.60 46.30 93 o
-1 -2 2 506.96 751.80 51.90 93 o
-1 2 2 473.07 681.30 52.30 93 o
-2 -4 4 302.99 213.20 40.10 93 o
-2 -3 4 599.57 653.50 47.30 93 o
-2 2 4 822.82 627.80 50.10 93 o
-3 -4 6 361.15 332.50 41.90 93 o
-3 -3 6 2812.40 2413.30 62.90 93 o
-3 2 6 2941.80 3163.70 69.90 93 o
-3 3 6 2691.40 2220.00 61.00 93 o
-4 -4 8 625.79 361.50 42.80 93 o
-4 3 8 170.47 150.40 39.00 93 o
-5 -4 10 76.43 72.90 38.50 93 <
-5 3 10 103.55 121.00 38.20 93 o
-6 3 12 305.82 324.80 41.20 93 o
-7 3 14 270.34 225.60 39.00 93 o
10 -1 -18 67.69 -37.80 36.80 94 <
10 0 -18 151.98 -16.90 36.00 94 <
9 -2 -16 20.53 38.00 36.50 94 <
9 -1 -16 52.65 57.20 37.20 94 <
9 0 -16 8.70 17.30 36.70 94 <
9 1 -16 108.45 -68.30 37.60 94 <
9 2 -16 15.61 14.30 36.40 94 <
8 3 -14 45.77 -14.30 36.60 94 <
5 -3 -9 1933.10 1784.90 55.90 94 o
5 -2 -9 159.41 220.10 40.30 94 o
5 -1 -9 5217.20 5784.70 85.40 94 o
5 0 -9 210.47 484.00 45.80 94 o
5 1 -9 5198.40 5244.90 83.00 94 o
5 2 -9 139.30 143.60 40.70 94 o
4 -4 -7 78.31 44.40 37.30 94 <
4 -3 -7 38.25 51.10 37.90 94 <
4 3 -7 26.89 17.10 38.00 94 <
3 -4 -5 172.42 226.40 39.40 94 o
3 4 -5 145.23 164.80 39.70 94 o
2 4 -3 448.26 442.60 42.60 94 o
0 -2 0 45178.00 43268.30 211.70 94 o
-1 -3 2 465.97 548.40 46.40 94 o
-1 -2 2 573.71 581.50 50.80 94 o
-1 2 2 582.69 437.90 51.00 94 o
-2 -4 4 257.29 196.40 40.40 94 o
-2 -3 4 497.06 575.80 46.70 94 o
-2 3 4 440.92 506.20 44.50 94 o
-3 -4 6 920.24 725.20 47.00 94 o
-3 3 6 2404.80 2262.80 62.20 94 o
-3 4 6 1010.20 789.90 46.60 94 o
-4 -4 8 1046.20 840.60 48.20 94 o
-4 4 8 964.91 789.10 45.70 94 o
-5 4 10 96.46 94.50 37.20 94 <
-9 -1 17 183.72 197.10 39.10 94 o
-9 0 17 22.32 43.80 36.80 94 <
-9 1 17 316.97 401.40 40.90 94 o
8 -3 -14 187.37 -58.50 36.50 95 <
8 -2 -14 123.42 83.60 37.10 95 <
8 -1 -14 108.04 109.10 38.40 95 <
8 0 -14 118.86 139.90 37.80 95 o
8 1 -14 111.24 -11.10 37.40 95 <
7 -3 -12 164.23 -23.10 36.50 95 <
7 2 -12 70.79 125.30 38.10 95 o
7 3 -12 92.32 18.90 37.50 95 <
4 -3 -7 32.92 -26.30 37.40 95 <
4 -2 -7 971.40 605.40 46.70 95 o
4 -1 -7 112.32 194.60 44.50 95 o
4 0 -7 2280.80 1950.10 62.70 95 o
4 1 -7 271.38 295.30 45.50 95 o
3 -4 -5 279.13 386.40 40.50 95 o
3 3 -5 312.99 304.60 42.20 95 o
2 4 -3 782.73 702.40 45.00 95 o
0 -2 0 38311.00 39332.60 202.10 95 o
-1 -4 2 150.71 230.40 39.50 95 o
-1 -3 2 664.64 502.90 45.50 95 o
-1 2 2 487.96 570.70 49.80 95 o
-2 -4 4 263.83 123.20 38.80 95 o
-2 3 4 327.86 292.80 43.00 95 o
-3 4 6 409.99 391.10 41.70 95 o
-4 4 8 759.44 604.10 43.90 95 o
-5 -1 9 5960.60 6663.30 91.70 95 o
-6 -3 11 22.73 34.20 37.20 95 <
-6 -2 11 177.83 145.80 39.20 95 o
-6 -1 11 107.07 56.80 39.60 95 <
-6 0 11 179.64 253.60 42.10 95 o
-6 1 11 154.00 105.90 40.10 95 <
-7 -3 13 18.34 12.80 37.10 95 <
-7 -2 13 97.89 42.00 37.70 95 <
-7 1 13 88.27 93.60 38.80 95 <
-7 2 13 53.42 34.80 36.90 95 <
-8 2 15 818.49 481.40 43.50 95 o
10 -1 -17 415.30 366.90 40.50 96 o
10 0 -17 61.56 48.70 36.40 96 <
10 1 -17 460.71 -74.60 37.60 96 <
7 -2 -12 38.95 -0.70 37.10 96 <
7 -1 -12 149.24 161.50 38.90 96 o
7 0 -12 80.68 79.10 38.90 96 <
7 1 -12 159.73 184.00 39.30 96 o
7 2 -12 27.82 37.40 37.20 96 <
6 -3 -10 263.79 264.40 39.70 96 o
6 3 -10 289.46 289.30 40.60 96 o
4 0 -7 1510.50 1509.60 58.20 96 o
3 -3 -5 565.42 612.80 44.60 96 o
3 3 -5 550.37 615.00 45.00 96 o
2 -4 -3 644.93 469.00 42.70 96 o
2 4 -3 629.39 514.80 42.40 96 o
-1 -3 2 703.92 495.00 45.20 96 o
-1 3 2 682.24 515.80 44.40 96 o
-2 -4 4 153.77 151.90 38.30 96 o
-2 4 4 152.29 129.20 37.80 96 o
-5 -2 9 111.79 109.80 40.40 96 <
-5 -1 9 5168.30 5120.00 82.40 96 o
-5 0 9 356.20 440.20 45.10 96 o
-5 1 9 4750.50 4646.00 80.10 96 o
-5 2 9 93.44 152.40 39.90 96 o
-6 -3 11 26.80 30.60 37.20 96 <
-6 2 11 142.23 118.10 38.30 96 o
-6 3 11 31.03 11.20 36.90 96 <
-7 -3 13 26.26 34.10 37.00 96 <
-7 3 13 17.10 -23.50 36.20 96 <
-10 -1 18 110.69 90.10 37.20 96 <
-10 0 18 143.71 129.00 38.00 96 o
-10 1 18 111.64 135.10 37.80 96 o
9 -2 -15 102.76 113.20 37.20 97 o
9 -1 -15 43.60 71.10 36.40 97 <
9 0 -15 134.60 155.60 37.80 97 o
9 1 -15 47.28 71.60 37.00 97 <
9 2 -15 82.68 96.20 37.00 97 <
8 -3 -13 63.00 -0.10 35.60 97 <
8 3 -13 61.02 75.50 36.70 97 <
6 -3 -10 224.67 164.10 38.70 97 o
6 -2 -10 53.98 82.80 38.50 97 <
6 -1 -10 753.03 977.10 50.10 97 o
6 0 -10 74.33 94.40 40.10 97 <
6 1 -10 794.40 1049.00 50.10 97 o
6 2 -10 50.44 67.90 38.10 97 <
5 -4 -8 197.18 -90.20 37.20 97 <
5 4 -8 191.93 198.70 39.00 97 o
3 -2 -5 2994.10 2877.10 66.60 97 o
3 -1 -5 3930.50 4413.00 79.70 97 o
3 1 -5 4269.70 4641.20 81.90 97 o
3 2 -5 3461.00 3294.30 70.80 97 o
2 -4 -3 1105.80 846.10 46.60 97 o
2 4 -3 1098.80 815.90 46.50 97 o
-1 -4 2 213.70 238.70 40.20 97 o
-1 -3 2 505.22 335.90 43.10 97 o
-1 3 2 471.06 286.10 42.80 97 o
-2 -4 4 50.87 26.90 38.10 97 <
-2 4 4 44.81 46.50 36.80 97 <
-4 -2 7 399.45 547.90 46.00 97 o
-4 -1 7 42.33 103.30 42.60 97 <
-4 0 7 1370.20 1665.70 59.90 97 o
-4 1 7 52.58 89.80 43.50 97 <
-4 2 7 417.64 517.00 45.40 97 o
-5 -4 9 42.41 96.30 38.00 97 <
-5 -3 9 1744.80 1668.90 55.30 97 o
-5 3 9 1718.70 1533.40 54.50 97 o
-5 4 9 55.39 21.30 36.40 97 <
-8 -2 14 106.01 119.60 38.00 97 o
-8 -1 14 118.02 127.50 38.50 97 o
-8 0 14 122.07 127.00 39.10 97 o
-8 1 14 133.96 149.60 39.00 97 o
-8 2 14 97.37 114.30 38.20 97 <
-9 -2 16 23.65 41.90 36.80 97 <
-9 -1 16 50.62 0.90 36.60 97 <
-9 0 16 18.47 38.90 36.60 97 <
-9 1 16 42.05 26.90 36.70 97 <
-9 2 16 20.61 33.20 36.70 97 <
10 -1 -16 30.61 1.50 36.80 98 <
10 0 -16 133.78 -6.90 36.10 98 <
10 1 -16 41.49 -8.80 36.50 98 <
8 -2 -13 222.96 189.30 38.40 98 o
8 -1 -13 103.20 184.40 39.60 98 o
8 0 -13 229.88 226.70 39.80 98 o
8 1 -13 118.01 210.50 39.60 98 o
8 2 -13 235.84 193.30 39.40 98 o
5 -3 -8 213.06 182.80 39.00 98 o
5 -2 -8 776.14 727.80 46.80 98 o
5 2 -8 871.81 805.20 47.40 98 o
5 3 -8 199.89 158.60 39.60 98 o
4 -4 -6 152.04 134.90 38.20 98 o
2 -4 -3 961.25 931.80 47.60 98 o
2 -3 -3 1395.00 1267.90 52.40 98 o
2 3 -3 1468.20 1272.60 53.00 98 o
2 4 -3 959.41 900.30 47.60 98 o
-1 -4 2 381.81 299.30 41.00 98 o
-1 -3 2 426.09 332.20 43.70 98 o
-1 3 2 469.80 370.00 43.30 98 o
-1 4 2 375.12 259.30 40.30 98 o
-3 0 5 7573.80 8740.00 105.70 98 o
-3 1 5 2482.70 2640.50 68.30 98 o
-4 -3 7 66.67 70.20 39.40 98 <
-4 3 7 68.34 47.90 38.50 98 <
-4 4 7 119.15 120.50 37.20 98 o
-5 -4 9 33.07 15.10 37.70 98 <
-5 4 9 34.21 43.20 36.10 98 <
-7 -3 12 40.36 42.90 37.80 98 <
-7 -2 12 35.91 63.10 37.40 98 <
-7 -1 12 165.55 122.80 38.80 98 o
-7 0 12 94.08 105.60 39.50 98 <
-7 1 12 202.77 155.10 38.90 98 o
-7 2 12 26.17 29.30 37.50 98 <
-7 3 12 59.97 104.70 37.40 98 <
-8 -3 14 113.84 78.60 37.80 98 <
-8 3 14 102.67 85.40 36.90 98 <
-10 0 17 47.94 51.60 36.60 98 <
10 0 -16 122.55 -62.90 37.30 99 <
7 -3 -11 313.82 195.60 38.70 99 o
7 -2 -11 1001.40 739.40 46.10 99 o
7 2 -11 739.66 719.60 45.80 99 o
7 3 -11 294.26 235.70 39.50 99 o
5 -2 -8 435.62 582.60 45.00 99 o
5 -1 -8 551.05 599.10 46.30 99 o
5 0 -8 1491.70 1684.10 57.70 99 o
5 1 -8 522.60 568.20 46.50 99 o
5 2 -8 429.96 486.40 44.80 99 o
4 -4 -6 99.05 229.00 39.30 99 o
4 4 -6 122.75 277.30 40.50 99 o
2 -3 -3 1685.90 2050.70 59.10 99 o
2 3 -3 1795.10 2093.70 59.80 99 o
-1 -4 2 240.83 161.60 39.20 99 o
-1 4 2 254.47 150.50 38.50 99 o
-3 -2 5 1820.30 1919.60 59.80 99 o
-3 -1 5 3028.10 2618.10 66.80 99 o
-3 1 5 2670.80 2192.80 63.70 99 o
-3 2 5 1308.90 1415.70 54.80 99 o
-4 -4 7 205.61 143.40 40.00 99 o
-4 4 7 195.54 172.70 37.90 99 o
-6 -2 10 36.24 58.00 38.10 99 <
-6 -1 10 756.38 900.90 48.50 99 o
-6 0 10 67.12 50.70 39.00 99 <
-6 1 10 646.07 768.70 46.70 99 o
-6 2 10 45.24 95.70 37.90 99 <
-7 -3 12 118.75 98.70 38.00 99 <
-7 3 12 120.56 76.80 37.20 99 <
-9 -1 15 59.12 53.40 36.80 99 <
-9 0 15 150.76 109.10 37.90 99 <
-9 1 15 60.91 37.20 37.00 99 <
-10 -1 17 394.93 258.40 39.60 99 o
-10 0 17 62.35 56.50 36.20 99 <
-10 1 17 446.87 296.90 40.20 99 o
11 0 -17 193.03 -81.50 36.50 100 <
9 -1 -14 588.65 545.20 43.00 100 o
9 0 -14 922.31 953.70 47.30 100 o
9 1 -14 474.02 300.00 39.70 100 o
7 0 -11 1112.50 1121.00 50.50 100 o
6 -4 -9 62.74 -16.70 36.50 100 <
6 -3 -9 607.43 622.20 44.70 100 o
6 4 -9 72.11 0.10 36.90 100 <
4 -4 -6 246.63 154.90 38.00 100 o
4 -3 -6 298.66 260.40 39.40 100 o
4 3 -6 277.09 310.20 41.00 100 o
4 4 -6 222.48 140.90 38.10 100 o
2 -3 -3 3072.30 3171.60 67.20 100 o
2 -2 -3 3510.10 3158.50 70.00 100 o
2 2 -3 3807.50 3478.70 72.50 100 o
2 3 -3 3229.30 3474.20 70.30 100 o
-1 -4 2 434.84 276.30 40.50 100 o
-1 4 2 452.24 240.60 39.80 100 o
-3 -3 5 510.71 425.50 44.10 100 o
-3 -2 5 686.96 839.20 49.50 100 o
-3 3 5 446.41 378.60 41.90 100 o
-4 -4 7 44.23 74.40 38.40 100 <
-5 0 8 1446.40 1591.80 57.50 100 o
-6 -3 10 239.19 237.20 40.40 100 o
-6 3 10 206.59 136.80 38.20 100 o
-8 -2 13 250.90 169.90 39.20 100 o
-8 -1 13 73.25 132.90 38.20 100 o
-8 0 13 240.13 192.70 39.30 100 o
-8 1 13 89.43 109.80 38.20 100 <
-8 2 13 288.56 174.80 39.20 100 o
10 -2 -15 40.49 3.10 36.50 101 <
10 -1 -15 28.29 15.80 36.50 101 <
10 0 -15 26.37 -19.60 36.60 101 <
10 1 -15 29.01 4.70 35.90 101 <
10 2 -15 68.92 39.80 36.00 101 <
8 -3 -12 174.80 61.80 36.20 101 <
8 -2 -12 185.75 215.20 39.00 101 o
8 -1 -12 100.67 154.10 38.60 101 o
8 0 -12 120.75 213.50 39.90 101 o
8 1 -12 153.39 152.40 39.00 101 o
8 2 -12 213.58 173.70 38.80 101 o
6 -3 -9 347.58 228.20 39.60 101 o
6 -2 -9 438.18 434.50 42.80 101 o
6 1 -9 1537.20 1322.10 53.80 101 o
6 2 -9 417.41 438.70 43.10 101 o
6 3 -9 416.79 210.70 39.40 101 o
4 -3 -6 486.85 626.50 44.50 101 o
4 -2 -6 604.72 760.70 49.00 101 o
4 2 -6 726.54 922.80 49.40 101 o
3 4 -4 46.43 43.90 37.10 101 <
2 -3 -3 2040.80 2435.70 62.70 101 o
2 -2 -3 4386.80 5191.50 83.60 101 o
2 1 -3 17890.00 17016.90 139.50 101 o
2 2 -3 5743.50 4846.60 81.80 101 o
1 4 -1 38.08 39.20 37.90 101 <
-1 -4 2 227.86 92.30 38.50 101 <
-1 4 2 208.12 91.50 38.70 101 <
-3 -4 5 448.20 324.10 41.60 101 o
-3 3 5 291.44 412.00 43.60 101 o
-3 4 5 306.27 262.70 39.60 101 o
-5 -3 8 432.05 403.60 42.60 101 o
-5 -2 8 870.55 862.10 48.90 101 o
-5 2 8 932.05 562.90 45.90 101 o
-5 3 8 494.67 390.50 41.90 101 o
-7 -1 11 700.44 1093.10 50.80 101 o
-7 0 11 1132.80 1343.10 53.70 101 o
-7 1 11 1021.00 617.20 45.50 101 o
-8 -3 13 59.89 74.60 38.00 101 <
-8 3 13 151.02 49.70 37.10 101 <
-10 -1 16 41.76 39.80 36.70 101 <
-10 0 16 106.80 80.60 37.10 101 <
-10 1 16 29.06 33.90 36.80 101 <
11 -1 -16 23.25 -28.60 36.20 102 <
11 0 -16 144.85 -44.50 37.40 102 <
11 1 -16 26.07 -8.60 36.00 102 <
9 -2 -13 106.84 98.20 37.30 102 <
9 2 -13 120.76 89.80 37.50 102 <
7 -3 -10 24.80 17.80 36.20 102 <
7 3 -10 35.04 19.40 36.80 102 <
5 -4 -7 46.75 -26.60 36.50 102 <
5 4 -7 45.00 -26.50 36.60 102 <
4 0 -6 1900.40 1910.50 61.90 102 o
3 -4 -4 40.01 -9.10 37.00 102 <
3 4 -4 29.11 5.40 36.60 102 <
2 -1 -3 11068.00 10589.40 113.50 102 o
2 0 -3 23370.00 24266.90 165.90 102 o
2 1 -3 11398.00 11452.30 118.30 102 o
1 -4 -1 17.21 19.80 37.20 102 <
1 4 -1 18.81 -9.60 37.20 102 <
-1 -4 2 172.12 103.00 38.90 102 <
-1 4 2 177.29 104.70 38.00 102 <
-2 -1 3 12072.00 12027.60 119.30 102 o
-2 0 3 25296.00 25524.50 169.20 102 o
-3 -4 5 113.10 131.30 39.10 102 o
-3 4 5 95.01 139.10 37.80 102 o
-5 -4 8 192.27 232.60 39.90 102 o
-5 3 8 181.68 185.10 39.00 102 o
-5 4 8 139.86 144.10 37.40 102 o
-7 -3 11 275.28 294.40 40.80 102 o
-7 3 11 352.19 223.80 39.50 102 o
-9 -2 14 480.00 330.90 41.00 102 o
-9 -1 14 705.61 726.80 46.00 102 o
-9 0 14 940.12 919.60 47.60 102 o
-9 1 14 749.08 296.20 40.50 102 o
-9 2 14 328.68 393.30 41.30 102 o
-11 0 17 249.57 256.60 39.40 102 o
9 -1 -13 69.80 50.80 37.10 103 <
9 0 -13 56.19 50.80 37.30 103 <
9 1 -13 31.17 -9.60 36.50 103 <
9 2 -13 68.09 -10.30 37.10 103 <
7 -3 -10 10.60 -22.30 36.10 103 <
7 -2 -10 113.26 48.50 37.30 103 <
7 -1 -10 86.57 71.70 38.50 103 <
7 2 -10 83.71 88.30 38.20 103 <
7 3 -10 23.61 9.20 36.40 103 <
5 -3 -7 32.58 10.20 36.90 103 <
5 3 -7 29.67 -1.50 37.80 103 <
5 4 -7 41.69 -24.40 37.10 103 <
3 -4 -4 36.50 3.70 36.80 103 <
3 4 -4 42.17 19.80 37.00 103 <
1 -4 -1 63.08 -11.10 37.90 103 <
0 2 0 19214.00 21098.70 153.40 103 o
-1 -4 2 120.64 22.70 37.90 103 <
-2 -1 3 12087.00 13807.00 127.80 103 o
-2 0 3 22947.00 21866.40 159.40 103 o
-2 1 3 10999.00 11333.20 117.90 103 o
-2 2 3 3881.10 3177.90 71.40 103 o
-3 -4 5 155.91 95.90 39.70 103 <
-4 -1 6 2438.70 2063.40 63.40 103 o
-4 0 6 1842.40 1974.70 62.60 103 o
-4 1 6 837.96 1080.70 54.30 103 o
-4 2 6 1092.40 792.90 48.90 103 o
-5 -4 8 364.90 175.90 40.00 103 o
-6 -1 9 1081.10 979.50 50.30 103 o
-6 0 9 683.77 686.60 47.10 103 o
-6 1 9 807.18 826.20 49.00 103 o
-6 2 9 342.42 285.70 41.50 103 o
-7 -3 11 413.89 355.50 42.00 103 o
-8 0 12 123.03 176.30 39.60 103 o
-8 1 12 118.04 139.60 38.70 103 o
10 -2 -14 53.25 -14.40 36.00 104 <
10 -1 -14 138.04 148.20 37.60 104 o
10 0 -14 70.31 -13.10 36.40 104 <
10 1 -14 110.28 73.40 36.80 104 <
10 2 -14 120.57 120.10 37.40 104 o
8 -3 -11 69.89 35.50 36.30 104 <
8 3 -11 59.99 -41.60 36.80 104 <
6 -4 -8 512.66 515.50 42.70 104 o
5 -2 -7 319.36 271.60 41.90 104 o
5 -1 -7 47.19 73.50 41.80 104 <
5 2 -7 104.02 125.30 40.80 104 o
5 3 -7 35.06 -15.40 37.60 104 <
3 -3 -4 60.89 21.70 38.40 104 <
3 4 -4 29.03 3.50 37.20 104 <
1 -4 -1 32.39 42.50 37.40 104 <
1 4 -1 32.99 -23.40 37.50 104 <
0 2 0 24758.00 24248.70 164.80 104 o
-1 -4 2 32.29 28.90 37.60 104 <
-2 -2 3 3329.20 3627.00 74.20 104 o
-2 2 3 3976.20 3603.40 74.70 104 o
-2 3 3 1310.90 1444.90 55.10 104 o
-4 -3 6 545.81 553.10 44.70 104 o
-4 -2 6 705.13 574.40 47.70 104 o
-4 3 6 444.56 370.70 43.20 104 o
-6 -3 9 438.62 364.50 42.30 104 o
-6 -2 9 342.90 353.40 43.10 104 o
-6 3 9 185.78 204.10 39.00 104 o
-6 4 9 57.47 48.10 36.80 104 <
-8 -3 12 53.38 48.80 37.70 104 <
-8 -2 12 247.58 217.10 39.60 104 o
-8 2 12 161.28 120.60 38.30 104 o
-8 3 12 60.42 39.60 37.30 104 <
-10 -2 15 68.62 48.20 37.30 104 <
-10 -1 15 20.10 3.20 36.40 104 <
-10 1 15 28.88 22.90 36.40 104 <
-10 2 15 33.90 54.20 36.80 104 <
11 -1 -15 10.70 19.70 36.00 105 <
11 0 -15 34.27 -15.70 36.10 105 <
11 1 -15 5.67 6.80 35.80 105 <
9 -3 -12 12.50 8.40 36.50 105 <
8 -1 -11 25.37 26.50 37.50 105 <
8 0 -11 48.19 97.70 39.30 105 <
8 1 -11 25.90 71.30 38.50 105 <
8 2 -11 17.96 -31.00 37.80 105 <
6 -3 -8 200.98 167.50 38.90 105 o
6 3 -8 284.58 223.40 40.00 105 o
6 4 -8 437.61 -44.80 37.70 105 <
4 -4 -5 594.18 476.90 42.60 105 o
3 -3 -4 60.95 30.10 38.80 105 <
3 -2 -4 40.01 20.90 42.10 105 <
3 3 -4 81.35 76.80 38.90 105 <
3 4 -4 23.87 11.80 37.00 105 <
1 -4 -1 26.95 3.30 38.10 105 <
1 4 -1 23.00 40.70 37.30 105 <
0 2 0 25119.00 26296.30 171.70 105 o
-1 -4 2 43.09 23.80 38.60 105 <
-2 -3 3 2703.50 2818.30 66.70 105 o
-2 -2 3 2801.10 2668.50 68.30 105 o
-2 3 3 2554.00 2506.50 63.90 105 o
-2 4 3 831.22 682.40 45.40 105 o
-4 -3 6 301.71 215.00 42.40 105 o
-4 4 6 254.19 141.70 38.50 105 o
-6 -4 9 66.67 54.90 38.20 105 <
-6 4 9 76.98 20.50 36.30 105 <
-7 -1 10 47.40 80.00 39.00 105 <
-7 0 10 89.67 72.90 39.90 105 <
-7 1 10 28.52 14.60 38.20 105 <
-7 2 10 57.15 90.90 37.20 105 <
-9 -2 13 45.82 67.00 37.50 105 <
-9 -1 13 66.93 45.10 36.90 105 <
-9 0 13 45.08 61.90 37.30 105 <
-9 1 13 29.43 17.30 37.10 105 <
-9 2 13 64.16 44.40 37.40 105 <
-11 -1 16 38.60 30.50 36.20 105 <
-11 0 16 84.22 118.60 37.20 105 o
-11 1 16 31.50 15.40 36.30 105 <
9 -2 -12 134.55 104.10 37.20 106 <
9 -1 -12 19.00 -8.90 36.80 106 <
9 0 -12 68.07 82.10 37.80 106 <
9 1 -12 18.15 -8.60 36.20 106 <
9 2 -12 78.24 89.80 37.50 106 <
9 3 -12 10.84 9.50 35.90 106 <
6 -2 -8 2542.70 2517.50 63.70 106 o
6 -1 -8 659.98 609.20 46.50 106 o
6 2 -8 1701.00 2052.90 59.70 106 o
6 3 -8 106.07 196.10 39.30 106 o
4 -4 -5 762.15 530.80 43.50 106 o
4 4 -5 630.69 570.40 43.70 106 o
3 -2 -4 286.29 212.90 43.30 106 o
3 -1 -4 429.14 321.20 48.20 106 o
3 2 -4 242.36 224.20 42.70 106 o
3 3 -4 56.06 40.80 38.30 106 <
1 -4 -1 41.93 -2.80 37.50 106 <
1 4 -1 34.61 17.20 37.00 106 <
0 2 0 25811.00 26292.50 169.60 106 o
-2 -3 3 1305.00 1462.00 54.70 106 o
-2 3 3 1202.70 1257.00 53.00 106 o
-2 4 3 876.19 618.70 44.30 106 o
-4 -4 6 140.36 55.60 39.10 106 <
-4 4 6 213.55 126.80 37.70 106 o
-5 -2 7 160.77 226.00 42.10 106 o
-5 -1 7 54.97 72.10 41.40 106 <
-5 0 7 364.46 253.60 44.50 106 o
-5 1 7 31.89 33.10 40.60 106 <
-5 2 7 150.67 -8.30 40.70 106 <
-6 -4 9 66.25 -21.40 37.60 106 <
-7 -3 10 15.34 -6.00 37.40 106 <
-7 -2 10 89.00 64.20 37.70 106 <
-7 3 10 14.85 4.50 36.60 106 <
-10 0 14 74.55 102.60 37.90 106 <
-10 1 14 116.26 143.20 38.40 106 o
11 -1 -14 113.29 78.30 36.70 107 <
10 -1 -13 184.11 -85.00 38.00 107 <
10 0 -13 214.85 155.90 38.80 107 o
10 1 -13 189.26 209.60 38.90 107 o
10 2 -13 405.79 233.00 39.20 107 o
8 -3 -10 320.61 372.60 40.80 107 o
7 -2 -9 483.92 500.00 43.00 107 o
7 -1 -9 62.67 24.50 38.40 107 <
7 2 -9 539.00 539.60 44.20 107 o
7 3 -9 15.92 31.10 36.30 107 <
5 -4 -6 200.45 155.30 38.50 107 o
4 -3 -5 307.23 355.40 42.30 107 o
4 4 -5 518.78 482.50 42.90 107 o
3 1 -4 292.16 266.30 47.80 107 o
1 -3 -1 167.47 173.20 40.70 107 o
1 4 -1 81.12 76.10 37.60 107 <
0 2 0 24099.00 24364.70 163.50 107 o
-2 -3 3 774.59 880.80 49.60 107 o
-2 4 3 807.89 545.50 44.00 107 o
-3 0 4 782.57 964.10 60.40 107 o
-3 1 4 267.08 198.80 46.80 107 o
-3 2 4 71.88 142.30 42.00 107 o
-4 -4 6 52.51 59.70 39.30 107 <
-5 -3 7 25.95 11.20 38.50 107 <
-5 3 7 63.01 29.40 37.00 107 <
-5 4 7 16.67 -11.30 36.40 107 <
-8 -2 11 90.97 142.00 38.00 107 o
-8 -1 11 85.14 86.80 38.40 107 <
-8 0 11 98.61 66.90 39.20 107 <
-8 1 11 43.05 66.70 37.30 107 <
-8 2 11 90.38 61.80 37.70 107 <
-8 3 11 79.10 22.50 36.80 107 <
-10 -2 14 103.97 101.90 37.60 107 <
-11 -1 15 19.80 5.60 36.50 107 <
-11 0 15 49.73 118.20 37.20 107 o
-11 1 15 8.87 9.50 36.30 107 <
12 0 -15 56.42 -38.50 36.80 108 <
11 -1 -14 88.98 -43.20 36.80 108 <
11 0 -14 182.43 -110.90 37.70 108 <
11 1 -14 19.69 -15.10 36.00 108 <
9 -3 -11 190.32 -74.00 37.50 108 <
8 -3 -10 322.90 278.50 39.70 108 o
8 -2 -10 167.17 197.50 38.80 108 o
8 3 -10 195.75 172.10 39.10 108 o
7 -1 -9 58.41 61.90 38.90 108 <
7 0 -9 650.68 793.00 48.70 108 o
7 1 -9 17.79 24.10 39.20 108 <
7 2 -9 562.79 598.80 44.80 108 o
5 -4 -6 169.44 175.80 38.30 108 o
4 -2 -5 2504.90 2417.40 63.70 108 o
4 3 -5 584.39 467.30 43.30 108 o
4 4 -5 454.05 428.40 42.50 108 o
2 -4 -2 34.48 21.00 37.70 108 <
1 -3 -1 90.57 38.80 40.20 108 <
1 4 -1 80.86 100.80 37.80 108 <
0 2 0 24913.00 26637.60 171.50 108 o
-2 -3 3 1404.40 1206.30 52.90 108 o
-2 4 3 828.11 503.70 43.50 108 o
-3 -1 4 460.98 351.40 48.90 108 o
-3 2 4 75.27 156.40 41.90 108 o
-3 3 4 45.15 60.30 39.20 108 <
-5 -4 7 127.63 52.00 38.50 108 <
-5 -3 7 16.88 29.50 38.70 108 <
-5 4 7 54.09 -6.10 36.80 108 <
-6 -1 8 572.57 396.30 45.00 108 o
-6 0 8 3242.70 3330.00 71.80 108 o
-6 1 8 446.83 411.10 44.90 108 o
-6 2 8 2000.70 1999.40 59.90 108 o
-6 3 8 254.06 180.80 39.00 108 o
-8 -3 11 39.61 49.70 37.10 108 <
-9 -1 12 53.11 70.80 37.60 108 <
-9 0 12 118.47 107.90 38.50 108 <
-9 1 12 26.74 20.70 37.50 108 <
-9 2 12 80.94 88.30 37.50 108 <
-11 -1 15 36.25 33.40 36.80 108 <
9 -3 -11 46.50 66.60 36.80 109 <
9 -2 -11 565.49 352.60 40.80 109 o
9 -1 -11 206.07 145.50 38.90 109 o
9 1 -11 232.42 325.10 40.70 109 o
9 2 -11 558.55 385.20 42.30 109 o
9 3 -11 29.24 163.50 38.00 109 o
8 0 -10 416.33 457.10 44.10 109 o
8 1 -10 356.70 594.40 44.50 109 o
6 -4 -7 137.61 96.00 37.20 109 <
5 -3 -6 135.13 156.80 38.70 109 o
5 3 -6 117.85 270.80 41.10 109 o
5 4 -6 213.52 13.90 36.70 109 <
4 -1 -5 2296.10 3162.90 71.00 109 o
4 0 -5 8950.00 9837.70 109.40 109 o
4 1 -5 1564.40 1780.30 60.20 109 o
4 2 -5 3114.10 2568.40 65.40 109 o
2 -4 -2 110.34 65.70 38.00 109 <
1 -3 -1 314.48 94.70 40.30 109 <
1 3 -1 324.13 155.10 40.80 109 o
1 4 -1 160.38 111.80 38.40 109 <
0 2 0 19156.00 16513.30 137.60 109 o
-2 -4 3 590.96 422.50 42.30 109 o
-3 -3 4 202.95 75.20 40.10 109 <
-3 -2 4 70.93 76.60 42.10 109 <
-3 3 4 233.88 56.10 38.20 109 <
-5 -4 7 29.92 18.40 38.00 109 <
-6 -3 8 310.71 173.70 40.10 109 o
-6 3 8 300.94 26.40 37.60 109 <
-6 4 8 608.02 490.20 42.40 109 o
-7 -1 9 20.00 80.90 39.60 109 <
-7 0 9 1010.20 1198.80 53.00 109 o
-7 1 9 25.49 4.60 39.00 109 <
-7 2 9 660.69 623.60 45.20 109 o
-9 -3 12 14.61 47.00 36.80 109 <
-9 3 12 7.95 2.60 35.90 109 <
-10 -1 13 180.69 223.80 39.30 109 o
-10 0 13 298.69 279.50 40.60 109 o
-10 1 13 189.09 82.70 38.20 109 <
-10 2 13 404.77 407.50 41.10 109 o
11 -2 -13 339.05 455.10 42.20 110 o
10 -2 -12 193.30 143.60 38.60 110 o
10 -1 -12 167.48 158.50 39.70 110 o
10 0 -12 501.43 404.50 42.90 110 o
10 1 -12 129.63 204.70 39.80 110 o
10 2 -12 330.84 307.40 41.60 110 o
9 1 -11 175.55 223.60 41.00 110 o
9 2 -11 605.94 398.90 43.20 110 o
6 -3 -7 236.95 277.10 40.70 110 o
6 4 -7 139.98 -19.10 37.30 110 <
5 -2 -6 728.22 778.30 49.60 110 o
5 -1 -6 1572.70 2062.90 64.10 110 o
5 3 -6 206.19 216.70 41.60 110 o
5 4 -6 202.32 -33.30 38.20 110 <
2 -4 -2 146.73 146.20 39.80 110 o
1 -3 -1 88.24 150.80 41.80 110 o
1 -2 -1 378.38 321.90 49.70 110 o
1 4 -1 112.93 69.90 39.00 110 <
0 2 0 27525.00 28075.10 183.20 110 o
-2 -4 3 376.54 272.90 42.20 110 o
-3 -3 4 166.11 137.90 42.10 110 o
-3 -2 4 265.62 261.70 47.30 110 o
-3 4 4 33.69 54.40 37.70 110 <
-4 0 5 14488.00 13234.90 131.90 110 o
-4 1 5 2733.40 2948.20 74.00 110 o
-4 2 5 3393.00 3212.50 74.10 110 o
-4 3 5 940.38 915.00 49.40 110 o
-6 -4 8 402.28 409.00 44.00 110 o
-6 -3 8 271.81 210.30 41.70 110 o
-7 -2 9 576.49 616.30 47.20 110 o
-7 -1 9 38.31 45.60 40.50 110 <
-7 3 9 25.13 32.30 37.70 110 <
-10 -2 13 190.64 91.60 38.80 110 <
-11 -1 14 139.04 79.00 37.90 110 <
-11 0 14 557.84 347.50 41.50 110 o
-11 1 14 32.75 43.40 37.40 110 <
12 -1 -14 127.17 -31.00 36.60 111 <
12 0 -14 403.66 311.60 39.10 111 o
12 1 -14 64.01 11.90 35.60 111 <
11 1 -13 410.35 360.20 40.70 111 o
8 -3 -9 501.42 130.90 38.10 111 o
7 -3 -8 65.24 -32.80 36.60 111 <
7 -2 -8 1428.10 1239.00 51.40 111 o
6 -2 -7 439.16 401.90 44.00 111 o
6 -1 -7 889.15 618.10 48.40 111 o
6 2 -7 429.68 513.70 46.20 111 o
6 3 -7 83.07 83.70 39.10 111 <
6 4 -7 161.82 155.90 39.60 111 o
5 0 -6 3189.10 3012.50 71.60 111 o
5 1 -6 750.58 1050.40 55.10 111 o
5 2 -6 970.16 802.40 51.20 111 o
3 -4 -3 82.24 92.30 38.90 111 <
2 -4 -2 111.17 110.40 38.50 111 <
2 -3 -2 1431.20 1491.80 55.50 111 o
1 -2 -1 271.65 256.70 48.20 111 o
1 4 -1 161.20 54.50 38.90 111 <
0 2 0 20583.00 22907.30 168.20 111 o
-2 -4 3 523.39 484.50 43.60 111 o
-3 -3 4 129.14 96.60 41.30 111 <
-4 -2 5 4238.10 4194.10 78.80 111 o
-4 3 5 539.53 403.30 44.10 111 o
-4 4 5 1273.50 1042.30 50.20 111 o
-6 -4 8 493.46 574.10 45.30 111 o
-7 -3 9 49.04 62.30 39.00 111 <
-8 -2 10 123.43 217.10 40.70 111 o
-8 -1 10 1841.50 1629.30 57.70 111 o
-8 3 10 435.03 423.70 42.80 111 o
-9 1 11 255.05 246.20 41.30 111 o
-9 2 11 497.65 539.60 45.20 111 o
-12 0 15 172.46 98.90 38.00 111 <
loop_
_reflns_scale_group_code
_reflns_scale_meas_intensity
1 306.693
2 333.589
3 340.076
4 382.289
5 395.654
6 398.948
7 397.444
8 434.270
9 453.222
10 449.703
11 425.593
12 460.596
13 430.648
14 439.116
15 530.453
16 499.034
17 458.042
18 481.850
19 508.112
20 558.244
21 512.722
22 562.251
23 566.093
24 509.998
25 600.550
26 616.389
27 606.962
28 573.331
29 616.557
30 603.453
31 601.827
32 593.180
33 606.659
34 644.710
35 650.512
36 709.263
37 554.279
38 584.321
39 633.028
40 696.042
41 693.105
42 704.847
43 724.153
44 695.875
45 645.870
46 627.098
47 704.782
48 679.846
49 679.722
50 636.609
51 652.694
52 691.218
53 680.646
54 667.518
55 678.812
56 644.257
57 662.402
58 725.638
59 671.102
60 749.842
61 690.886
62 651.457
63 661.851
64 709.052
65 657.613
66 686.133
67 698.970
68 670.290
69 643.174
70 651.801
71 691.819
72 658.030
73 702.008
74 724.594
75 749.394
76 686.347
77 674.883
78 677.724
79 640.252
80 641.469
81 667.916
82 707.612
83 724.409
84 769.033
85 701.371
86 757.054
87 721.274
88 727.070
89 741.580
90 715.456
92 701.857
93 680.718
94 657.256
95 686.437
96 651.310
97 625.187
98 624.649
99 633.149
100 624.222
101 663.366
102 616.460
103 594.164
104 555.748
105 548.398
106 529.510
107 530.845
108 537.452
109 561.709
110 600.636
111 600.480
