#------------------------------------------------------------------------------
#$Date: 2019-11-12 03:58:08 +0200 (Tue, 12 Nov 2019) $
#$Revision: 227492 $
#$URL: file:///home/coder/svn-repositories/cod/cif/4/51/43/4514386.cif $
#------------------------------------------------------------------------------
#
# This file is available in the Crystallography Open Database (COD),
# http://www.crystallography.net/
#
# All data on this site have been placed in the public domain by the
# contributors.
#
data_4514386
loop_
_publ_author_name
'Liu, Wei'
'Dai, Xing'
'Xie, Jian'
'Silver, Mark A.'
'Zhang, Duo'
'Wang, Yanlong'
'Cai, Yawen'
'Diwu, Juan'
'Wang, Jian'
'Zhou, Ruhong'
'Chai, Zhifang'
'Wang, Shuao'
_publ_section_title
;
 Highly Sensitive Detection of UV Radiation Using a Uranium Coordination
 Polymer.
;
_journal_issue                   5
_journal_name_full               'ACS applied materials &amp; interfaces'
_journal_page_first              4844
_journal_page_last               4850
_journal_paper_doi               10.1021/acsami.7b17954
_journal_volume                  10
_journal_year                    2018
_chemical_formula_moiety         'C11 H10 N2 O9 U'
_chemical_formula_sum            'C11 H10 N2 O9 U'
_chemical_formula_weight         552.24
_chemical_melting_point          ?
_chemical_name_common            'Uranyl 3,5-pyridinedicarboxylate'
_space_group_crystal_system      triclinic
_space_group_IT_number           2
_space_group_name_Hall           '-P 1'
_space_group_name_H-M_alt        'P -1'
_symmetry_space_group_name_Hall  '-P 1'
_symmetry_space_group_name_H-M   'P -1'
_atom_sites_solution_hydrogens   geom
_audit_creation_method           SHELXL-2014
_cell_angle_alpha                93.983(4)
_cell_angle_beta                 106.175(4)
_cell_angle_gamma                103.677(4)
_cell_formula_units_Z            2
_cell_length_a                   6.5282(6)
_cell_length_b                   10.9208(11)
_cell_length_c                   10.9233(11)
_cell_measurement_reflns_used    1850
_cell_measurement_temperature    296(2)
_cell_measurement_theta_max      24.99
_cell_measurement_theta_min      3.04
_cell_volume                     719.04(12)
_computing_cell_refinement       'Bruker SAINT'
_computing_data_collection       'Bruker APEX2'
_computing_data_reduction        'Bruker SAINT'
_computing_molecular_graphics    'Bruker SHELXTL'
_computing_publication_material  'Bruker SHELXTL'
_computing_structure_refinement  'SHELXL-2014 (Sheldrick, 2014)'
_computing_structure_solution    'SHELXL-2014 (Sheldrick, 2014)'
_diffrn_ambient_temperature      296(2)
_diffrn_measured_fraction_theta_full 0.971
_diffrn_measured_fraction_theta_max 0.995
_diffrn_measurement_device_type  'Bruker APEX-II'
_diffrn_measurement_method       '0.5 wide w/ exposures'
_diffrn_radiation_type           MoK\a
_diffrn_radiation_wavelength     0.71073
_diffrn_reflns_av_R_equivalents  0.0601
_diffrn_reflns_av_unetI/netI     0.0384
_diffrn_reflns_Laue_measured_fraction_full 0.971
_diffrn_reflns_Laue_measured_fraction_max 0.995
_diffrn_reflns_limit_h_max       7
_diffrn_reflns_limit_h_min       -7
_diffrn_reflns_limit_k_max       12
_diffrn_reflns_limit_k_min       -12
_diffrn_reflns_limit_l_max       12
_diffrn_reflns_limit_l_min       -12
_diffrn_reflns_number            14771
_diffrn_reflns_point_group_measured_fraction_full 0.971
_diffrn_reflns_point_group_measured_fraction_max 0.995
_diffrn_reflns_theta_full        25.242
_diffrn_reflns_theta_max         24.999
_diffrn_reflns_theta_min         2.551
_exptl_absorpt_coefficient_mu    11.339
_exptl_absorpt_correction_T_max  0.672
_exptl_absorpt_correction_T_min  0.401
_exptl_absorpt_correction_type   multi-scan
_exptl_absorpt_process_details   SHELTXPREP
_exptl_crystal_colour            Yellow
_exptl_crystal_density_diffrn    2.551
_exptl_crystal_description       Blcok
_exptl_crystal_F_000             508
_exptl_crystal_size_max          0.140
_exptl_crystal_size_mid          0.070
_exptl_crystal_size_min          0.035
_refine_diff_density_max         2.365
_refine_diff_density_min         -0.887
_refine_diff_density_rms         0.154
_refine_ls_extinction_method     none
_refine_ls_goodness_of_fit_ref   1.089
_refine_ls_hydrogen_treatment    constr
_refine_ls_matrix_type           full
_refine_ls_number_parameters     208
_refine_ls_number_reflns         2534
_refine_ls_number_restraints     0
_refine_ls_restrained_S_all      1.089
_refine_ls_R_factor_all          0.0266
_refine_ls_R_factor_gt           0.0232
_refine_ls_shift/su_max          0.000
_refine_ls_shift/su_mean         0.000
_refine_ls_structure_factor_coef Fsqd
_refine_ls_weighting_details
'w=1/[\s^2^(Fo^2^)+(0.0166P)^2^+1.1123P] where P=(Fo^2^+2Fc^2^)/3'
_refine_ls_weighting_scheme      calc
_refine_ls_wR_factor_gt          0.0507
_refine_ls_wR_factor_ref         0.0517
_reflns_Friedel_coverage         0.000
_reflns_number_gt                2340
_reflns_number_total             2534
_reflns_threshold_expression     'I > 2\s(I)'
_cod_data_source_file            am7b17954_si_002.cif
_cod_data_source_block           nonirradiated
_cod_depositor_comments
;
The following automatic conversions were performed:

'_chemical_melting_point' value 'N/a' was changed to '?' - the value
is undefined or not given.

Automatic conversion script
Id: cif_fix_values 4973 2017-02-22 13:04:09Z antanas 

 Adding full bibliography for 4514385--4514386.cif.
;
_cod_database_code               4514386
_shelx_space_group_comment
;
The symmetry employed for this shelxl refinement is uniquely defined
by the following loop, which should always be used as a source of
symmetry information in preference to the above space-group names.
They are only intended as comments.
;
_shelx_estimated_absorpt_t_min   0.110
_shelx_estimated_absorpt_t_max   0.350
_shelxl_version_number           2014-3
_shelx_res_file
;
TITL A_a.res in P-1
REM Old TITL A in P1

REM SHELXT solution in P-1
REM R1 0.077,  Rweak 0.012,  Alpha 0.066,  Orientation as input
REM Formula found by SHELXT:  C27 N2 O16 U2

CELL  0.71073   6.5282  10.9208  10.9233   93.983  106.175  103.677
ZERR    2.000   0.0006   0.0011   0.0011    0.004    0.004    0.004
LATT  1
SFAC C H N O U
UNIT 22 20 4 18 2
TEMP 23.000
L.S. 100
BOND $H
ACTA
omit -1 -7 12
omit -2 10 9
OMIT 3 0 11
OMIT 0 -5 3
omit -3 1 2
omit 1-5 3
omit -1 -5 4
omit 1 -6 1
omit -1 -5 2
omit -2 -1 6
omit 2 0 12
omit -5 50
LIST 6
FMAP 2
PLAN 20
WGHT    0.016600    1.112300
FVAR       0.39002
U1    5    0.213920    0.639962    0.886260    11.00000    0.01435    0.01669 =
         0.00822   -0.00161   -0.00154    0.00741
O2    4    0.029452    0.493838    0.882125    11.00000    0.03587    0.03631 =
         0.01351    0.00096    0.00364    0.00376
O5    4    0.561575    0.373797    0.906387    11.00000    0.02085    0.02644 =
         0.01396    0.00286    0.00061    0.01302
O1    4    0.406828    0.781715    0.880024    11.00000    0.02238    0.02419 =
         0.01900   -0.00092    0.00100    0.00688
O7    4    0.100826    0.288184    0.227692    11.00000    0.02522    0.04588 =
         0.00970   -0.00716   -0.00298    0.02308
O4    4    0.434853    0.530835    0.823155    11.00000    0.03588    0.03514 =
         0.01251   -0.00155    0.00156    0.02686
O3    4    0.117004    0.769070    1.033684    11.00000    0.02235    0.02917 =
         0.01244   -0.00219   -0.00008    0.01572
O6    4   -0.039616    0.391855    0.349403    11.00000    0.01968    0.02959 =
         0.01392   -0.00084    0.00046    0.01654
O9    4    0.719253    0.120563    0.418471    11.00000    0.04756    0.05707 =
         0.02499   -0.01060    0.00160    0.03683
O8    4    0.928723    0.195116    0.612362    11.00000    0.02332    0.04809 =
         0.02437    0.00556    0.00256    0.02327
C4    1    0.491976    0.428203    0.813081    11.00000    0.00876    0.02224 =
         0.01366   -0.00040   -0.00222    0.00644
C11   1    0.108921    0.339743    0.338089    11.00000    0.01659    0.02100 =
         0.01167    0.00188   -0.00397    0.00747
N2    3   -0.019470    0.905131    1.130497    11.00000    0.02042    0.02045 =
         0.01969   -0.00386    0.00186    0.00955
N1    3    0.763390    0.185914    0.522140    11.00000    0.02254    0.03024 =
         0.01984    0.00424    0.00533    0.01603
C1    1   -0.042947    0.800360    1.056527    11.00000    0.01437    0.02329 =
         0.01511   -0.00075   -0.00162    0.00855
AFIX  43
H1B   2   -0.184483    0.746620    1.019170    11.00000   -1.20000
AFIX   0
C7    1    0.295459    0.334442    0.452810    11.00000    0.01515    0.01674 =
         0.01419   -0.00038   -0.00078    0.00480
C5    1    0.475309    0.372875    0.681049    11.00000    0.01407    0.01738 =
         0.00877    0.00262   -0.00029    0.00313
C8    1    0.445693    0.269848    0.433858    11.00000    0.01636    0.01864 =
         0.01150   -0.00233    0.00161    0.00758
AFIX  43
H8A   2    0.438502    0.236764    0.351524    11.00000   -1.20000
AFIX   0
C6    1    0.312402    0.389191    0.574234    11.00000    0.01351    0.01865 =
         0.01286   -0.00029    0.00420    0.00735
AFIX  43
H6A   2    0.215964    0.436638    0.584854    11.00000   -1.20000
AFIX   0
C10   1    0.623744    0.305079    0.664934    11.00000    0.01290    0.02126 =
         0.01064    0.00025   -0.00034    0.00652
AFIX  43
H10A  2    0.731820    0.292917    0.735483    11.00000   -1.20000
AFIX   0
C9    1    0.606084    0.256183    0.540862    11.00000    0.01421    0.01842 =
         0.01485    0.00062    0.00214    0.00697
C3    1   -0.205353    0.938184    1.160809    11.00000    0.02543    0.03431 =
         0.03117   -0.00720    0.00455    0.01527
AFIX  33
H3A   2   -0.153462    1.018456    1.216259    11.00000   -1.50000
H3B   2   -0.312624    0.944413    1.082638    11.00000   -1.50000
H3C   2   -0.272335    0.873438    1.203485    11.00000   -1.50000
AFIX   0
C2    1    0.198137    0.993076    1.190157    11.00000    0.02929    0.02623 =
         0.03969   -0.00721    0.00636    0.00676
AFIX  33
H2B   2    0.184472    1.064382    1.240863    11.00000   -1.50000
H2C   2    0.292537    0.950321    1.244568    11.00000   -1.50000
H2D   2    0.260972    1.022549    1.124402    11.00000   -1.50000

AFIX   0
HKLF 4

REM  A_a.res in P-1
REM R1 =  0.0232 for    2340 Fo > 4sig(Fo)  and  0.0266 for all    2522 data
REM    208 parameters refined using      0 restraints

END

WGHT      0.0197      0.8487

REM Highest difference peak  2.365,  deepest hole -0.887,  1-sigma level  0.154
Q1    1   0.1328  0.5725  0.9137  11.00000  0.05    2.37
Q2    1   0.3158  0.7194  0.8778  11.00000  0.05    1.43
Q3    1   0.1599  0.6226  0.7978  11.00000  0.05    0.98
Q4    1   0.2738  0.6594  0.9730  11.00000  0.05    0.96
Q5    1  -0.0302  0.5074  0.8742  11.00000  0.05    0.78
Q6    1  -0.1776  0.9466  1.2462  11.00000  0.05    0.75
Q7    1   0.0454  0.4855  0.9384  11.00000  0.05    0.71
Q8    1   0.1121  0.6797  0.8649  11.00000  0.05    0.71
Q9    1   0.3004  0.9550  1.1367  11.00000  0.05    0.55
Q10   1  -0.3457  0.8594  1.1187  11.00000  0.05    0.54
Q11   1   0.4346  0.8024  0.9133  11.00000  0.05    0.54
Q12   1  -0.2174  1.0029  1.1279  11.00000  0.05    0.53
Q13   1   0.3956  0.7928  0.8279  11.00000  0.05    0.53
Q14   1   0.2072  0.3354  0.4089  11.00000  0.05    0.51
Q15   1   0.2816  1.0228  1.2963  11.00000  0.05    0.50
Q16   1   0.3219  0.6083  0.9029  11.00000  0.05    0.48
Q17   1   0.2125  1.0816  1.1724  11.00000  0.05    0.48
Q18   1  -0.1854  0.4804  0.8655  11.00000  0.05    0.47
Q19   1   0.3145  0.2759  0.4401  11.00000  0.05    0.45
Q20   1   0.4894  0.7589  0.8857  11.00000  0.05    0.45
;
_shelx_res_checksum              45266
_shelx_hkl_file
;
   2   0   0 1042.00   64.99
   2   0   0 1062.49   66.79
   2   0   0  959.80   67.69
   2   0   0 1025.00   67.79
  -2   0   0  966.00   67.19
  -2   0   0  979.90   65.09
  -2   0   0  937.41   67.39
  -2   0   0 1013.90   66.99
  -2   0   0 1050.19   66.99
   3   0   0  750.02   54.79
   3   0   0  808.62   52.49
   3   0   0  754.02   49.30
   3   0   0  760.82   53.59
  -3   0   0  734.83   53.59
  -3   0   0  692.63   52.49
  -3   0   0  692.43   52.59
  -3   0   0  770.32   49.80
  -3   0   0  755.02   52.49
   4   0   0  732.23   51.49
   4   0   0  727.13   47.80
   4   0   0  755.02   55.39
   4   0   0  723.33   53.99
  -4   0   0  750.82   52.79
  -4   0   0  726.03   52.79
  -4   0   0  718.63   52.29
  -4   0   0  589.74   53.09
  -4   0   0  702.43   48.70
   5   0   0  930.51   70.69
   5   0   0  940.41   60.49
   5   0   0  904.81   65.09
   5   0   0  924.91   69.49
  -5   0   0  848.52   61.79
  -5   0   0  827.42   65.39
  -5   0   0  965.90   67.69
   6   0   0   86.99   26.10
   6   0   0  110.29   25.80
  -6   0   0   49.90   20.40
  -6   0   0   87.99   23.70
  -6   0   0   72.39   18.50
  -6   0   0   89.19   14.80
   7   0   0  583.24   59.59
   7   0   0  613.94   72.49
   7   0   0  521.05   49.00
  -7   0   0  468.95   49.90
  -8   0   1   54.49   24.40
   8   0  -1   76.99   34.80
   8   0  -1   63.09   58.59
   8   0  -1   26.50   23.90
  -7   0   1  344.97   41.40
  -7   0   1  430.36   46.10
   7   0  -1  515.25   56.09
   7   0  -1  496.25   59.69
   7   0  -1  502.35   45.10
  -6   0   1  426.36   44.10
  -6   0   1  529.75   45.70
  -6   0   1  459.95   40.10
   6   0  -1  538.75   45.10
   6   0  -1  634.04   52.89
   6   0  -1  530.85   42.10
   6   0  -1  529.55   50.79
   6   0  -1  492.45   36.70
  -5   0   1  204.18   24.90
  -5   0   1  190.28   20.00
  -5   0   1  174.68   23.10
   5   0  -1  198.28   17.10
   5   0  -1  206.28   27.30
   5   0  -1  171.38   28.50
   5   0  -1  191.78   20.60
   5   0  -1  212.78   25.60
  -4   0   1 1388.86   98.29
  -4   0   1 1557.84  100.39
  -4   0   1 1352.46   96.39
  -4   0   1 1258.17   99.09
   4   0  -1 1551.24   99.39
   4   0  -1 1431.46  101.09
   4   0  -1 1576.54   95.99
   4   0  -1 1487.05  100.39
   4   0  -1 1570.64   97.39
  -3   0   1    7.10    5.70
  -3   0   1   20.00    6.10
  -3   0   1    3.50    5.40
  -3   0   1    7.30    8.10
   3   0  -1   11.70    6.90
   3   0  -1   15.80    8.60
   3   0  -1   13.90    4.30
   3   0  -1    3.30    9.90
  -2   0   1  776.52   57.39
  -2   0   1  917.71   56.99
  -2   0   1  818.62   58.29
  -2   0   1  902.51   58.09
   2   0  -1  844.62   58.79
   2   0  -1  832.92   57.89
   2   0  -1  861.11   56.69
   2   0  -1  927.41   56.69
   2   0  -1  883.91   58.79
  -1   0   1  229.48   17.20
  -1   0   1  243.38   16.20
  -1   0   1  219.48   16.50
   1   0  -1  250.77   16.70
   1   0  -1  242.78   16.20
   1   0   1 2928.61  186.08
   1   0   1 2993.40  186.98
   1   0   1 2843.72  186.48
  -1   0  -1 2540.25  185.88
  -1   0  -1 3166.98  186.88
  -1   0  -1 2822.72  186.38
  -1   0  -1 3049.69  186.28
   2   0   1  200.28   17.90
   2   0   1  245.58   20.60
   2   0   1  191.58   16.70
  -2   0  -1  190.58   18.30
  -2   0  -1  195.18   18.00
  -2   0  -1  183.98   16.90
  -2   0  -1  231.98   16.80
   3   0   1 2691.63  181.08
   3   0   1 2764.92  182.48
   3   0   1 2746.23  179.28
  -3   0  -1 2604.94  180.18
  -3   0  -1 2819.32  180.48
  -3   0  -1 2909.61  180.38
  -3   0  -1 2735.73  176.88
  -3   0  -1 2815.92  181.08
   4   0   1   17.80    9.70
   4   0   1   30.90   13.70
   4   0   1   24.90    9.00
  -4   0  -1    8.90    7.50
  -4   0  -1   20.70   10.40
  -4   0  -1   19.40    6.10
  -4   0  -1   24.30   11.00
  -4   0  -1   16.80    8.80
   5   0   1 1533.25   99.99
   5   0   1 1440.16  106.09
   5   0   1 1606.54  105.09
  -5   0  -1 1408.26  101.19
  -5   0  -1 1404.96   96.29
  -5   0  -1 1247.38  102.79
  -5   0  -1 1597.04  103.19
   6   0   1  364.16   51.49
   6   0   1  310.37   39.60
  -6   0  -1  231.08   24.20
  -6   0  -1  281.17   30.30
  -6   0  -1  175.88   32.10
   7   0   1  175.98   34.00
   7   0   1  197.38   46.50
  -7   0  -1  107.79   24.50
  -7   0  -1   76.99   34.50
  -8   0   2  215.98   43.30
   8   0  -2  271.87   44.70
   8   0  -2  270.57   43.50
  -7   0   2   -2.00   12.80
  -7   0   2    6.60   17.60
   7   0  -2    8.00   15.30
   7   0  -2   -6.80   25.30
   7   0  -2    5.90   21.10
  -6   0   2 1089.49   84.99
  -6   0   2 1064.99   80.39
  -6   0   2 1067.99   81.49
   6   0  -2 1168.18   84.19
   6   0  -2 1234.68   80.89
   6   0  -2 1163.88   77.49
   6   0  -2 1236.08   89.39
   6   0  -2 1176.38   84.99
  -5   0   2  117.59   18.40
  -5   0   2  145.19   22.00
  -5   0   2  162.58   21.60
   5   0  -2  193.58   26.40
   5   0  -2  180.58   23.40
   5   0  -2  138.29   25.20
   5   0  -2  119.69   14.70
   5   0  -2  140.09   17.60
  -4   0   2 1208.48   86.49
  -4   0   2 1291.67   88.69
  -4   0   2 1288.87   86.09
  -4   0   2 1157.08   87.89
   4   0  -2 1381.16   85.29
   4   0  -2 1295.97   89.89
   4   0  -2 1283.67   87.69
   4   0  -2 1265.77   85.49
   4   0  -2 1378.46   89.49
  -3   0   2  724.83   50.69
  -3   0   2  792.02   52.19
  -3   0   2  698.33   50.89
  -3   0   2  725.33   52.09
   3   0  -2  767.02   53.09
   3   0  -2  661.83   53.19
   3   0  -2  770.72   49.99
   3   0  -2  719.43   49.70
  -2   0   2 1391.46   85.79
  -2   0   2 1267.07   83.89
  -2   0   2 1363.16   85.09
  -2   0   2 1176.08   85.39
  -2   0   2 1185.68   84.19
   2   0  -2 1254.07   85.99
   2   0  -2 1493.05   84.99
   2   0  -2 1280.97   84.09
   2   0  -2 1216.28   84.29
  -1   0   2 4469.65  262.57
  -1   0   2 3798.82  261.37
  -1   0   2 3651.83  261.97
   1   0  -2 4546.94  262.47
   1   0  -2 3961.50  261.47
   1   0  -2 4696.33  260.97
   1   0  -2 3550.04  262.07
   0   0   2  190.58   14.50
   0   0   2  201.58   14.70
   0   0   2  195.38   15.10
   0   0   2  225.48   15.50
   0   0  -2  180.28   14.30
   0   0  -2  227.98   15.50
   0   0  -2  176.58   15.10
   0   0  -2  197.98   14.70
   1   0   2 3886.21  243.28
   1   0   2 3292.77  242.58
   1   0   2 3699.53  242.28
   1   0   2 3851.91  242.08
  -1   0  -2 3697.33  242.08
  -1   0  -2 3774.32  242.18
  -1   0  -2 3813.32  242.18
  -1   0  -2 4205.28  243.08
   2   0   2   45.60   10.30
   2   0   2   44.80    7.90
   2   0   2   30.70    7.10
  -2   0  -2   52.09    8.50
  -2   0  -2   48.10    9.80
  -2   0  -2   50.49    7.60
  -2   0  -2   58.59    9.00
  -2   0  -2   31.80    4.00
  -2   0  -2   39.40    8.30
   3   0   2  492.95   39.20
   3   0   2  474.45   34.70
   3   0   2  482.35   36.70
  -3   0  -2  503.65   36.50
  -3   0  -2  402.56   35.10
  -3   0  -2  443.06   36.20
  -3   0  -2  484.75   31.40
  -3   0  -2  470.75   35.10
   4   0   2  640.84   54.79
   4   0   2  753.72   52.89
   4   0   2  681.53   49.10
  -4   0  -2  678.43   44.90
  -4   0  -2  660.83   52.19
  -4   0  -2  652.03   50.99
  -4   0  -2  689.03   50.29
  -4   0  -2  594.44   49.40
   5   0   2  412.76   39.10
   5   0   2  396.46   43.40
   5   0   2  388.56   33.70
  -5   0  -2  312.47   38.40
  -5   0  -2  345.67   28.10
  -5   0  -2  366.16   33.90
   6   0   2  716.93   63.99
   6   0   2  736.83   72.09
  -6   0  -2  678.13   57.39
   7   0   2  100.89   44.10
   7   0   2    6.10   27.00
  -7   0  -2   51.29   33.90
  -8   0   3  251.27   45.50
   8   0  -3  323.77   57.99
   8   0  -3  305.87   44.20
  -7   0   3   64.09   21.40
  -7   0   3   74.79   19.30
   7   0  -3  123.99   28.40
   7   0  -3   99.59   24.70
   7   0  -3   87.59   19.50
  -6   0   3  520.25   46.30
  -6   0   3  469.75   43.20
  -6   0   3  442.96   43.00
   6   0  -3  566.24   51.79
   6   0  -3  543.05   39.50
   6   0  -3  638.14   50.69
   6   0  -3  486.15   45.30
   6   0  -3  519.55   41.60
  -5   0   3  995.10   75.79
  -5   0   3 1077.49   78.99
  -5   0   3  994.80   75.49
   5   0  -3 1147.59   74.39
   5   0  -3 1175.78   81.79
   5   0  -3 1150.08   80.59
   5   0  -3 1066.79   76.59
   5   0  -3 1113.89   74.79
  -4   0   3    4.70    7.50
  -4   0   3    8.70    8.50
  -4   0   3    3.90    8.30
  -4   0   3    2.10    8.50
   4   0  -3   -8.70   12.20
   4   0  -3    8.50    6.20
   4   0  -3    3.20    5.60
   4   0  -3   18.30    8.40
   4   0  -3   16.20    9.20
  -3   0   3 2401.06  174.08
  -3   0   3 2675.03  173.78
  -3   0   3 2454.05  172.48
  -3   0   3 2786.22  174.98
   3   0  -3 3010.00  173.68
   3   0  -3 2681.63  175.58
   3   0  -3 2608.94  172.38
   3   0  -3 2715.93  172.88
  -2   0   3   71.09   10.30
  -2   0   3   56.69    5.40
  -2   0   3   61.89    9.50
  -2   0   3   56.29    9.80
  -2   0   3   60.39    8.30
  -2   0   3   42.60    7.50
   2   0  -3   59.19    8.50
   2   0  -3   54.99   10.00
   2   0  -3   51.99    9.90
  -1   0   3 2213.38  130.49
  -1   0   3 2016.80  127.89
  -1   0   3 1970.10  128.39
  -1   0   3 1750.32  128.79
   1   0  -3 2047.00  127.79
   1   0  -3 1942.61  129.39
   0   0   3 2115.59  134.89
   0   0   3 2157.18  135.39
   0   0   3 2118.59  136.29
   0   0   3 1990.20  135.19
   0   0  -3 2202.18  135.79
   0   0  -3 2028.70  134.99
   0   0  -3 2150.78  134.99
   0   0  -3 1924.61  135.79
   1   0   3 2970.80  184.18
   1   0   3 2755.02  184.08
   1   0   3 2848.42  182.98
   1   0   3 2888.41  182.68
   1   0   3 2745.53  184.18
  -1   0  -3 2800.82  181.78
  -1   0  -3 2583.54  182.48
  -1   0  -3 3057.19  182.98
   2   0   3 2626.54  162.68
   2   0   3 2425.26  163.38
   2   0   3 2553.14  165.18
  -2   0  -3 2611.14  163.88
  -2   0  -3 2312.07  161.88
  -2   0  -3 2700.23  162.38
  -2   0  -3 2472.15  162.98
  -2   0  -3 2300.27  162.58
   3   0   3  230.08   23.20
   3   0   3  233.18   21.30
   3   0   3  270.87   27.40
  -3   0  -3  207.38   20.30
  -3   0  -3  249.08   21.50
  -3   0  -3  239.88   23.90
  -3   0  -3  215.68   21.40
  -3   0  -3  256.17   16.90
  -3   0  -3  231.08   22.80
   4   0   3 1142.39   80.19
   4   0   3 1278.47   88.39
   4   0   3 1202.18   83.29
  -4   0  -3 1040.10   75.39
  -4   0  -3 1122.49   81.19
  -4   0  -3 1182.08   83.29
  -4   0  -3 1087.39   82.09
  -4   0  -3 1294.17   82.19
   5   0   3  104.99   22.30
   5   0   3  139.79   30.70
  -5   0  -3  102.39   19.10
  -5   0  -3   96.59   23.30
   6   0   3  844.72   68.99
   6   0   3  811.22   78.99
  -6   0  -3  659.13   70.69
  -6   0  -3  773.02   62.29
   7   0   3  198.78   54.29
   7   0   3   94.29   32.10
  -7   0  -3  129.59   28.20
  -7   0  -3   58.89   35.70
  -8   0   4   75.09   29.50
  -8   0   4   85.19   48.80
   8   0  -4   72.79   24.40
   8   0  -4   91.69   31.40
  -7   0   4  269.57   41.10
  -7   0   4  370.36   40.70
   7   0  -4  373.76   49.90
   7   0  -4  384.56   40.80
   7   0  -4  354.26   37.70
  -6   0   4   36.80   15.50
  -6   0   4   39.10   15.70
  -6   0   4   35.40   14.80
   6   0  -4   63.39   23.20
   6   0  -4   35.80   14.40
   6   0  -4   32.00   17.60
   6   0  -4   25.10   11.70
   6   0  -4   28.00   12.40
  -5   0   4 1476.85  108.79
  -5   0   4 1562.44  112.89
  -5   0   4 1544.35  110.59
   5   0  -4 1695.93  109.09
   5   0  -4 1562.34  109.09
   5   0  -4 1676.23  115.19
   5   0  -4 1756.72  109.29
   5   0  -4 1734.43  116.09
  -4   0   4  371.06   32.60
  -4   0   4  378.96   31.90
  -4   0   4  344.67   29.90
  -4   0   4  352.56   31.50
   4   0  -4  396.56   30.40
   4   0  -4  373.66   30.20
   4   0  -4  393.16   29.50
   4   0  -4  302.37   37.90
   4   0  -4  417.46   34.20
  -3   0   4  610.94   49.00
  -3   0   4  686.23   50.89
  -3   0   4  716.43   51.79
  -3   0   4  722.93   46.60
  -3   0   4  772.92   52.19
  -3   0   4  717.53   48.80
   3   0  -4  712.03   49.10
   3   0  -4  724.43   52.19
  -2   0   4  252.97   20.00
  -2   0   4  250.17   18.20
  -2   0   4  220.98   22.20
  -2   0   4  296.97   23.10
  -2   0   4  256.17   21.40
  -2   0   4  236.48   20.80
   2   0  -4  254.87   21.90
   2   0  -4  249.48   20.10
   2   0  -4  266.27   22.30
  -1   0   4  553.44   38.90
  -1   0   4  496.25   39.60
  -1   0   4  641.74   42.20
  -1   0   4  561.04   39.20
   1   0  -4  558.54   40.90
   1   0  -4  583.44   38.50
   1   0  -4  602.04   39.80
   0   0   4 5373.16  325.47
   0   0   4 4793.22  323.17
   0   0   4 4920.41  323.87
   0   0   4 5280.07  324.07
   0   0  -4 5027.30  323.47
   0   0  -4 5119.49  323.47
   0   0  -4 5452.95  324.57
   0   0  -4 4409.56  324.67
   1   0   4   -7.00    9.70
   1   0   4    3.30    7.00
   1   0   4   -4.60    6.60
   1   0   4   -4.80    4.80
   1   0   4    7.40    6.50
  -1   0  -4   -1.30    6.70
  -1   0  -4    2.20    3.30
  -1   0  -4  -11.00    5.40
  -1   0  -4    3.30    6.30
   2   0   4 1615.84   98.09
   2   0   4 1340.87   96.29
   2   0   4 1344.57   94.19
   2   0   4 1400.96   93.59
  -2   0  -4 1343.97   93.79
  -2   0  -4 1311.77   94.59
  -2   0  -4 1433.46   93.09
  -2   0  -4 1429.46   92.89
   3   0   4  110.89   19.80
   3   0   4  115.59   16.10
   3   0   4   87.59   16.50
  -3   0  -4  105.39    9.70
  -3   0  -4  105.19   16.80
  -3   0  -4   76.69   13.40
  -3   0  -4   99.99   15.20
  -3   0  -4  105.19   15.20
  -3   0  -4   90.39   13.90
   4   0   4  898.71   67.89
   4   0   4  875.11   61.29
   4   0   4  804.02   57.99
  -4   0  -4  681.43   51.49
  -4   0  -4  707.33   57.99
  -4   0  -4  859.61   58.49
  -4   0  -4  800.72   60.49
  -4   0  -4  749.23   53.99
   5   0   4  483.55   57.89
   5   0   4  587.44   52.99
  -5   0  -4  530.05   45.50
  -5   0  -4  600.54   55.09
   6   0   4  234.58   46.20
   6   0   4  225.58   40.30
  -6   0  -4  183.18   28.30
  -6   0  -4  169.58   33.10
  -8   0   5   20.90   30.90
  -8   0   5    6.30   27.60
   8   0  -5   57.59   32.10
   8   0  -5    0.90   22.80
  -7   0   5  303.87   45.40
  -7   0   5  349.27   41.00
   7   0  -5  382.86   50.19
   7   0  -5  332.77   40.50
   7   0  -5  408.06   39.10
  -6   0   5  217.48   30.10
  -6   0   5  273.27   32.60
  -6   0   5  233.18   29.90
   6   0  -5  249.38   27.80
   6   0  -5  295.77   37.70
   6   0  -5  226.88   28.30
   6   0  -5  270.07   47.00
  -5   0   5  449.66   38.60
  -5   0   5  358.56   35.20
  -5   0   5  455.35   39.40
   5   0  -5  356.76   34.10
   5   0  -5  462.25   41.60
   5   0  -5  460.75   36.10
   5   0  -5  474.65   35.40
   5   0  -5  357.86   49.10
  -4   0   5 1372.46   92.79
  -4   0   5 1381.96   98.19
  -4   0   5 1542.45  100.49
  -4   0   5 1267.57   95.39
  -4   0   5 1383.86   98.49
  -4   0   5 1403.66   95.49
   4   0  -5 1624.64   97.99
   4   0  -5 1382.96   96.09
   4   0  -5 1566.84  101.19
  -3   0   5  158.38   13.80
  -3   0   5  167.08   16.30
  -3   0   5  157.38   18.10
  -3   0   5  170.48   20.20
  -3   0   5  193.68   20.30
  -3   0   5  185.68   18.70
   3   0  -5  217.28   19.90
   3   0  -5  160.88   19.20
   3   0  -5  175.88   16.90
  -2   0   5 1649.73  106.39
  -2   0   5 1567.34  105.89
  -2   0   5 1547.55  101.79
  -2   0   5 1467.45  102.89
  -2   0   5 1369.26  103.79
   2   0  -5 1809.52  105.79
   2   0  -5 1430.46  104.69
   2   0  -5 1701.83  101.69
   2   0  -5 1544.45  103.49
  -1   0   5  494.65   35.10
  -1   0   5  390.16   39.70
  -1   0   5  428.46   38.70
  -1   0   5  452.85   35.10
  -1   0   5  468.65   35.70
   1   0  -5  529.75   37.80
   1   0  -5  537.45   34.60
   1   0  -5  564.34   37.80
   1   0  -5  511.45   37.50
   0   0   5 1726.03  121.49
   0   0   5 1933.21  124.09
   0   0   5 1963.90  121.59
   0   0   5 1851.01  122.09
   0   0   5 1579.74  123.19
   0   0  -5 1892.61  121.29
   0   0  -5 1704.43  123.29
   0   0  -5 1860.51  121.59
   0   0  -5 2099.39  123.09
   1   0   5 1106.89   71.99
   1   0   5 1005.30   73.19
   1   0   5  981.50   73.89
   1   0   5 1095.29   73.89
   1   0   5 1036.80   71.69
  -1   0  -5 1056.39   72.29
  -1   0  -5 1115.99   72.09
  -1   0  -5  990.20   71.49
  -1   0  -5 1092.59   69.79
   2   0   5  402.16   40.00
   2   0   5  512.25   37.60
   2   0   5  464.25   36.90
   2   0   5  422.56   40.20
   2   0   5  505.25   41.40
  -2   0  -5  507.75   35.20
  -2   0  -5  489.65   37.30
  -2   0  -5  502.15   36.30
  -2   0  -5  484.25   38.30
   3   0   5  632.24   47.70
   3   0   5  636.34   53.19
   3   0   5  601.24   52.99
   3   0   5  598.04   46.50
  -3   0  -5  616.04   48.10
  -3   0  -5  564.64   49.00
  -3   0  -5  618.74   44.30
  -3   0  -5  626.44   45.60
   4   0   5    2.90   21.50
   4   0   5   19.40   12.50
   4   0   5   24.40   23.50
  -4   0  -5   26.50    6.30
  -4   0  -5   52.19   15.80
  -4   0  -5   41.40    9.90
  -4   0  -5   25.10    9.70
   5   0   5 1321.97  105.49
   5   0   5 1351.66   99.09
  -5   0  -5 1329.67   94.99
  -5   0  -5 1293.17  100.49
   6   0   5   10.60   36.40
   6   0   5   35.10   24.30
  -6   0  -5   16.50   14.60
  -6   0  -5   30.20   29.40
  -8   0   6  160.98   37.10
  -8   0   6  146.89   35.90
   8   0  -6  130.49   29.00
   8   0  -6  153.38   38.80
  -7   0   6   20.10   17.90
  -7   0   6   40.50   23.30
   7   0  -6   14.40   18.80
   7   0  -6   41.20   26.10
  -6   0   6  609.44   45.30
  -6   0   6  652.03   58.49
  -6   0   6  674.63   57.39
  -6   0   6  625.04   51.59
   6   0  -6  822.32   63.19
   6   0  -6  750.72   53.09
   6   0  -6  567.04   71.79
  -5   0   6   -1.90    5.00
  -5   0   6   -4.40   10.20
  -5   0   6   16.10   12.90
  -5   0   6    0.00   12.70
  -5   0   6    7.40    8.40
   5   0  -6   11.00   15.10
   5   0  -6  -10.40    9.80
   5   0  -6    5.10   14.20
  -4   0   6  816.22   59.59
  -4   0   6  865.21   66.69
  -4   0   6  847.22   65.39
  -4   0   6  894.11   62.89
  -4   0   6  830.22   63.49
  -4   0   6  987.70   68.39
   4   0  -6  951.30   68.09
   4   0  -6  958.10   63.99
   4   0  -6 1014.40   65.99
  -3   0   6  281.97   21.40
  -3   0   6  260.17   27.70
  -3   0   6  324.27   27.10
  -3   0   6  275.07   25.80
  -3   0   6  287.57   24.10
  -3   0   6  297.97   29.40
   3   0  -6  305.27   27.50
   3   0  -6  281.27   26.80
   3   0  -6  269.57   24.40
  -2   0   6 1981.40  136.09
  -2   0   6 1913.81  140.29
  -2   0   6 2051.09  137.19
  -2   0   6 2232.18  141.09
  -2   0   6 1852.51  137.89
   2   0  -6 2168.98  137.79
   2   0  -6 2032.70  139.39
   2   0  -6 2305.17  139.99
   2   0  -6 2329.67  136.19
  -1   0   6 1477.55  100.19
  -1   0   6 1513.45  100.89
  -1   0   6 1500.85  103.39
  -1   0   6 1379.56   99.89
   1   0  -6 1476.05  102.29
   1   0  -6 1477.45  100.59
   1   0  -6 1660.13  102.59
   1   0  -6 1595.14   99.79
   0   0   6  239.78   23.50
   0   0   6  274.67   26.20
   0   0   6  262.57   24.00
   0   0   6  224.88   28.20
   0   0   6  274.87   23.10
   0   0  -6  275.07   23.00
   0   0  -6  244.58   25.20
   0   0  -6  280.57   22.70
   1   0   6 1785.22  131.39
   1   0   6 1905.41  128.69
   1   0   6 1871.31  129.99
   1   0   6 2021.70  131.29
   1   0   6 1888.31  128.59
  -1   0  -6 1899.61  128.69
  -1   0  -6 1926.41  126.29
  -1   0  -6 2223.18  129.59
  -1   0  -6 1947.61  129.29
   2   0   6   25.90   11.40
   2   0   6   18.80   15.20
   2   0   6   45.40   10.60
   2   0   6   34.00   14.20
   2   0   6   40.20   14.80
  -2   0  -6   46.00    9.20
  -2   0  -6   37.00   11.20
  -2   0  -6   32.90   10.30
  -2   0  -6   27.40   12.40
   3   0   6  740.63   61.19
   3   0   6  624.34   58.89
   3   0   6  713.53   53.89
  -3   0  -6  706.43   51.39
  -3   0  -6  707.93   54.59
  -3   0  -6  698.93   50.69
   4   0   6  195.98   28.00
   4   0   6  143.89   32.70
  -4   0  -6  215.28   32.30
  -4   0  -6  187.58   21.90
  -4   0  -6  162.48   17.90
   5   0   6  252.77   39.50
   5   0   6  304.57   48.40
  -5   0  -6  280.67   46.00
  -5   0  -6  304.27   31.30
   6   0   6  251.47   39.40
   6   0   6  299.17   52.79
  -6   0  -6  320.77   36.80
  -6   0  -6  380.56   62.29
  -8   0   7  252.87   50.49
  -8   0   7  224.98   41.90
   8   0  -7  151.38   40.10
   8   0  -7  245.58   36.10
  -7   0   7   50.39   20.80
  -7   0   7   56.79   26.00
   7   0  -7   42.40   27.00
   7   0  -7   13.40   20.60
  -6   0   7  472.15   44.70
  -6   0   7  484.25   38.30
  -6   0   7  581.44   51.69
  -6   0   7  562.54   53.79
   6   0  -7  687.43   58.69
   6   0  -7  640.14   48.00
  -5   0   7  215.38   19.10
  -5   0   7  252.07   33.60
  -5   0   7  226.58   25.20
  -5   0   7  227.78   29.50
  -5   0   7  278.07   31.50
   5   0  -7  260.07   35.60
   5   0  -7  271.07   27.60
  -4   0   7  216.08   28.50
  -4   0   7  220.18   28.00
  -4   0   7  194.78   25.10
  -4   0   7  190.18   17.10
  -4   0   7  151.98   27.20
  -4   0   7  216.18   21.90
   4   0  -7  252.67   28.30
   4   0  -7  225.28   23.80
   4   0  -7  234.78   28.70
  -3   0   7 1025.50   79.59
  -3   0   7 1088.39   75.79
  -3   0   7 1078.49   79.59
  -3   0   7 1109.09   77.99
  -3   0   7 1128.89   82.39
  -3   0   7 1127.89   82.89
   3   0  -7 1220.08   79.39
   3   0  -7 1259.17   81.59
   3   0  -7 1265.07   82.29
  -2   0   7   -3.20   13.10
  -2   0   7    0.90    6.90
  -2   0   7    0.80    6.70
  -2   0   7    3.90    7.70
  -2   0   7    1.70   10.70
   2   0  -7    2.40    9.70
   2   0  -7    5.70    6.10
   2   0  -7    7.10    8.60
   2   0  -7    5.50    8.70
  -1   0   7 1702.43  124.49
  -1   0   7 1792.22  121.29
  -1   0   7 1635.14  121.19
  -1   0   7 1677.03  120.59
   1   0  -7 1892.61  121.69
   1   0  -7 2082.69  123.89
   1   0  -7 1878.61  123.99
   1   0  -7 1941.91  120.69
   0   0   7  113.09   17.40
   0   0   7  118.19   20.40
   0   0   7  125.89   18.40
   0   0   7  147.29   20.20
   0   0  -7  147.79   19.90
   0   0  -7  151.58   13.30
   0   0  -7  146.29   17.80
   0   0  -7  122.79   19.20
   0   0  -7  157.38   22.00
   1   0   7 1903.01  131.29
   1   0   7 1801.22  134.49
   1   0   7 2120.19  131.59
   1   0   7 1872.01  132.19
   1   0   7 1987.30  134.09
  -1   0  -7 1876.71  131.39
  -1   0  -7 1940.71  131.79
  -1   0  -7 2021.30  128.39
  -1   0  -7 2148.78  131.89
   2   0   7  799.92   57.79
   2   0   7  732.83   62.69
   2   0   7  748.23   61.09
  -2   0  -7  809.32   56.99
  -2   0  -7  743.23   58.09
  -2   0  -7  808.82   55.09
   3   0   7  451.05   51.29
   3   0   7  472.95   51.79
   3   0   7  520.15   43.80
  -3   0  -7  567.04   41.10
  -3   0  -7  540.15   47.60
  -3   0  -7  525.95   40.90
   4   0   7  713.33   72.29
   4   0   7  814.62   63.89
  -4   0  -7  746.83   52.59
  -4   0  -7  749.53   64.59
  -4   0  -7  785.92   58.49
   5   0   7   -8.30   19.80
   5   0   7   45.90   35.40
  -5   0  -7  -10.00   11.70
  -5   0  -7   11.10   25.40
  -7   0   8  293.37   49.30
  -7   0   8  214.98   38.90
   7   0  -8  217.28   38.90
   7   0  -8  243.18   39.70
  -6   0   8   43.30   18.00
  -6   0   8   29.20    8.80
  -6   0   8   48.60   22.80
   6   0  -8   26.60   20.90
   6   0  -8   63.59   18.60
  -5   0   8  843.82   64.99
  -5   0   8  760.92   57.29
  -5   0   8  890.51   69.19
  -5   0   8  830.52   69.79
   5   0  -8  832.42   71.99
   5   0  -8  974.50   64.79
  -4   0   8   24.60    8.00
  -4   0   8   -7.50   15.10
  -4   0   8   25.20   16.70
  -4   0   8   39.20   17.10
  -4   0   8   17.40   13.60
  -4   0   8   19.20   10.80
   4   0  -8   18.10   14.10
   4   0  -8   15.60   11.40
  -3   0   8  655.83   52.59
  -3   0   8  691.83   51.29
  -3   0   8  661.23   57.59
  -3   0   8  654.33   49.10
  -3   0   8  653.13   57.19
   3   0  -8  767.52   53.79
   3   0  -8  772.42   56.09
   3   0  -8  770.42   56.19
  -2   0   8  124.39   23.00
  -2   0   8  136.69   19.80
  -2   0   8  155.48   18.20
  -2   0   8  103.99   17.90
  -2   0   8  104.29   22.50
   2   0  -8  177.38   22.90
   2   0  -8  166.88   22.30
   2   0  -8  129.29   22.70
   2   0  -8  174.38   16.80
  -1   0   8  801.22   61.79
  -1   0   8  891.01   62.99
  -1   0   8  767.92   61.99
  -1   0   8  904.11   67.69
   1   0  -8  838.72   65.39
   1   0  -8 1006.90   65.49
   1   0  -8  898.11   61.39
   1   0  -8  874.61   63.19
   0   0   8  778.42   57.39
   0   0   8  705.83   56.89
   0   0   8  798.92   59.19
   0   0   8  720.83   61.29
   0   0  -8  790.32   57.69
   0   0  -8  814.92   52.69
   0   0  -8  801.32   58.39
   0   0  -8  755.52   56.49
   1   0   8    0.50   14.30
   1   0   8   12.20   14.40
   1   0   8   26.20   14.00
   1   0   8   29.20   10.10
  -1   0  -8   26.10    7.40
  -1   0  -8   20.50   11.70
  -1   0  -8   18.90   12.90
   2   0   8 1324.87   93.79
   2   0   8 1352.96  100.49
   2   0   8 1219.48   96.89
  -2   0  -8 1433.66   93.09
  -2   0  -8 1363.66   95.69
  -2   0  -8 1342.27   90.99
   3   0   8   -4.20   13.00
   3   0   8  -17.20   20.20
  -3   0  -8    0.40    9.00
  -3   0  -8   -6.30   14.90
   4   0   8  573.64   52.59
   4   0   8  526.95   65.19
  -4   0  -8  557.44   55.39
  -4   0  -8  552.04   46.40
   5   0   8  263.87   46.40
   5   0   8  233.98   51.59
  -5   0  -8  289.87   34.70
  -5   0  -8  370.26   53.29
  -7   0   9  401.76   55.79
  -7   0   9  332.57   46.60
   7   0  -9  304.77   46.00
   7   0  -9  421.26   61.29
  -6   0   9  102.09   28.00
  -6   0   9  148.09   29.00
   6   0  -9  164.68   30.20
   6   0  -9  124.69   26.00
  -5   0   9  315.97   28.70
  -5   0   9  394.26   42.60
  -5   0   9  406.46   43.80
  -5   0   9  330.67   41.20
   5   0  -9  377.16   39.70
   5   0  -9  416.16   45.80
  -4   0   9  433.76   45.10
  -4   0   9  403.56   32.80
  -4   0   9  422.06   44.40
  -4   0   9  372.86   45.00
   4   0  -9  458.25   40.50
   4   0  -9  455.65   43.90
  -3   0   9  168.68   32.80
  -3   0   9  195.38   26.70
  -3   0   9  241.68   33.20
  -3   0   9  222.48   22.20
   3   0  -9  198.78   28.60
   3   0  -9  241.68   29.00
  -2   0   9  860.51   63.09
  -2   0   9  807.92   69.39
  -2   0   9  847.12   64.29
   2   0  -9  895.21   65.39
   2   0  -9  874.41   67.29
   2   0  -9  964.10   62.29
  -1   0   9    8.80   22.50
  -1   0   9   50.69   14.80
  -1   0   9   42.80   16.60
  -1   0   9   29.80   13.10
   1   0  -9   25.80   13.40
   1   0  -9   35.80   15.50
   1   0  -9   30.30   12.30
   1   0  -9   20.20   16.50
   0   0   9 1770.42  122.09
   0   0   9 1704.73  119.99
   0   0   9 1633.14  124.09
   0   0  -9 1556.84  122.99
   0   0  -9 2028.40  122.09
   0   0  -9 1785.92  115.29
   0   0  -9 1806.42  120.59
   1   0   9   37.70   17.00
   1   0   9   44.50   20.10
   1   0   9   39.50   12.00
   1   0   9   59.69   20.90
  -1   0  -9   43.50   16.40
  -1   0  -9   45.20   15.40
  -1   0  -9   50.99   10.10
   2   0   9  501.75   51.19
   2   0   9  519.15   53.39
   2   0   9  456.45   55.19
   2   0   9  599.54   45.80
  -2   0  -9  456.95   41.00
  -2   0  -9  566.94   45.30
  -2   0  -9  592.64   48.10
   3   0   9  325.17   38.00
   3   0   9  298.07   44.40
  -3   0  -9  390.96   41.60
  -3   0  -9  323.97   31.60
   4   0   9   67.99   24.10
   4   0   9   86.79   36.10
  -4   0  -9  124.99   28.20
  -4   0  -9   77.49   17.10
  -7   0  10  107.09   34.70
  -7   0  10  191.98   35.00
   7   0 -10  118.99   31.10
   7   0 -10  185.88   40.30
  -6   0  10  350.66   46.20
  -6   0  10  425.86   52.89
   6   0 -10  353.96   44.60
   6   0 -10  447.96   56.19
  -5   0  10   14.00   19.70
  -5   0  10   36.00   20.60
  -5   0  10   17.70   11.80
   5   0 -10   23.60   23.40
   5   0 -10   12.80   19.40
  -4   0  10  693.63   52.39
  -4   0  10  708.13   63.59
  -4   0  10  733.53   64.49
  -4   0  10  596.94   63.29
   4   0 -10  777.92   60.59
   4   0 -10  830.02   65.39
  -3   0  10   33.70   19.90
  -3   0  10   43.00   13.60
  -3   0  10   29.10   16.70
  -3   0  10   40.60   24.00
   3   0 -10   65.59   12.80
   3   0 -10   29.30   17.90
   3   0 -10   58.19   17.70
  -2   0  10  595.04   48.50
  -2   0  10  585.94   50.09
  -2   0  10  611.84   57.99
   2   0 -10  638.74   53.79
   2   0 -10  534.35   50.39
   2   0 -10  669.63   47.60
  -1   0  10  638.04   49.00
  -1   0  10  459.65   54.39
  -1   0  10  609.64   49.90
  -1   0  10  479.45   53.59
   1   0 -10  609.44   53.29
   1   0 -10  660.43   50.29
   0   0  10  303.27   36.30
   0   0  10  347.37   42.20
   0   0  10  337.77   39.80
   0   0 -10  336.67   35.70
   0   0 -10  342.47   26.90
   0   0 -10  318.67   41.30
   1   0  10  662.03   50.79
   1   0  10  499.35   59.89
   1   0  10  556.24   54.49
   1   0  10  646.54   59.09
  -1   0 -10  616.24   53.89
  -1   0 -10  674.43   46.50
  -1   0 -10  703.13   54.29
   2   0  10   73.39   19.10
   2   0  10  106.09   28.50
   2   0  10   69.19   30.90
  -2   0 -10  103.89   18.80
   3   0  10  925.31   93.69
   3   0  10 1067.89   84.39
  -3   0 -10 1239.18   89.19
  -3   0 -10 1123.89   78.89
  -6   0  11  291.17   46.30
  -6   0  11  394.06   52.49
   6   0 -11  275.27   44.40
  -5   0  11   22.20   14.60
  -5   0  11   41.90   26.40
  -5   0  11   24.20   23.90
   5   0 -11   20.70   22.30
   5   0 -11   77.09   28.20
  -4   0  11  459.15   39.40
  -4   0  11  441.56   53.79
  -4   0  11  380.16   52.19
  -4   0  11  458.95   52.99
   4   0 -11  486.95   48.20
   4   0 -11  528.65   54.49
  -3   0  11  253.47   44.20
  -3   0  11  306.47   33.10
   3   0 -11  290.37   38.00
   3   0 -11  361.56   45.30
   3   0 -11  349.77   33.10
  -2   0  11   66.59   34.70
  -2   0  11   96.69   20.70
  -2   0  11   54.69   19.90
  -2   0  11  104.99   28.50
   2   0 -11  119.59   20.70
   2   0 -11   90.69   24.20
  -1   0  11  880.11   83.09
  -1   0  11 1019.30   77.49
  -1   0  11  890.21   74.19
   1   0 -11 1077.19   75.39
   1   0 -11 1069.49   80.39
   0   0  11    3.90   13.70
   0   0  11  -15.50   18.20
   0   0  11   -3.60   25.40
   0   0  11   18.90   21.10
   0   0 -11   14.20   14.80
   1   0  11  364.76   59.49
   1   0  11  430.26   40.80
   1   0  11  419.66   50.89
  -1   0 -11  475.45   45.80
   2   0  11  136.39   35.70
   2   0  11  110.59   24.90
   2   0  11  100.59   37.00
   3   0  11   60.69   37.00
  -6   0  12  105.29   34.30
  -6   0  12   89.89   33.10
   6   0 -12  107.99   36.40
   6   0 -12  103.99   30.20
  -5   0  12  327.97   53.49
  -5   0  12  329.77   53.99
   5   0 -12  385.76   48.90
  -4   0  12   42.10   17.90
  -4   0  12   -6.90   31.00
  -4   0  12  -12.90   23.40
   4   0 -12   25.60   27.50
   4   0 -12   -9.40   19.80
  -3   0  12  490.45   59.59
  -3   0  12  473.15   47.70
   3   0 -12  575.84   61.69
   3   0 -12  558.84   51.09
  -2   0  12   55.09   21.30
  -2   0  12  -23.90   25.50
   2   0 -12   22.60   16.40
   2   0 -12   72.79   26.70
  -1   0  12  664.73   74.39
  -1   0  12  798.22   69.09
   1   0 -12  930.61   75.79
   1   0 -12  852.71   66.69
   0   0  12  248.98   47.80
   0   0  12  303.47   46.80
   0   0  12  397.66   39.50
   0   0 -12  390.86   42.20
   1   0  12  152.28   42.50
   1   0  12  149.19   27.30
   1   0  12  241.78   40.60
  -1   0 -12  237.38   37.90
  -2   0 -12  775.12   70.09
  -5   0  13  301.97   51.89
   5   0 -13  391.66   64.39
   5   0 -13  327.37   49.60
  -4   0  13  105.19   33.70
  -4   0  13  124.39   26.50
   4   0 -13   61.79   26.20
   4   0 -13  199.48   37.50
  -3   0  13  306.07   56.59
  -3   0  13  288.07   42.30
   3   0 -13  387.36   58.39
   3   0 -13  315.17   43.00
  -2   0  13  322.07   60.29
  -2   0  13  411.46   47.60
   2   0 -13  423.76   47.70
   2   0 -13  447.26   60.29
  -1   0  13  117.99   36.40
  -1   0  13  112.99   29.50
   1   0 -13   37.60   34.10
   1   0 -13  116.89   25.20
   0   0  13  770.52   79.09
   0   0  13  857.11   90.19
   0   0  13  862.81   71.39
   0   0 -13  975.10   74.29
  -3   0  14   95.19   39.90
  -3   0  14   68.89   28.40
   3   0 -14  132.39   35.40
   3   0 -14   57.99   24.30
  -2   0  14  473.05   54.39
   2   0 -14  511.85   66.19
   2   0 -14  395.56   51.99
   2   1 -14  130.09   29.00
  -2  -1  14   96.99   42.90
  -2  -1  14  104.09   31.30
   3   1 -14   95.49   28.20
   3   1 -14  204.08   39.70
  -3  -1  14  137.39   33.80
  -3  -1  14  119.99   41.50
  -1   1 -13  682.23   62.59
   1  -1  13  447.16   68.99
   0   1 -13  402.96   44.50
   0  -1  13  292.87   56.49
   0  -1  13  311.07   53.99
   1   1 -13   63.69   22.70
   1   1 -13   87.59   28.90
  -1  -1  13   65.79   35.00
  -1  -1  13   85.19   28.50
   2   1 -13  531.85   51.79
   2   1 -13  507.15   60.69
  -2  -1  13  411.46   64.19
  -2  -1  13  505.55   52.19
   3   1 -13  -19.90   21.30
   3   1 -13  -20.60   28.80
  -3  -1  13   65.59   44.00
  -3  -1  13   39.90   23.40
  -3  -1  13   14.50   35.20
   4   1 -13  452.05   62.09
   4   1 -13  348.17   51.19
  -4  -1  13  429.06   63.09
   5   1 -13   15.40   28.40
   5   1 -13   49.30   35.40
  -5  -1  13   33.70   37.10
  -5  -1  13   93.69   38.30
  -2   1 -12  702.73   64.09
   2  -1  12  635.34   96.69
  -1   1 -12   82.69   23.10
   1  -1  12   61.69   43.30
   1  -1  12  110.19   23.00
   1  -1  12   23.40   29.20
   0   1 -12  787.12   62.99
   0  -1  12  778.02   58.39
   0  -1  12  708.13   68.29
   0  -1  12  589.24   75.49
   1   1 -12   34.50   23.60
   1   1 -12   77.79   21.30
  -1  -1  12   53.89   22.30
  -1  -1  12   21.10   60.29
  -1  -1  12   46.00   28.00
   2   1 -12  721.23   61.49
   2   1 -12  726.43   56.99
  -2  -1  12  499.15   55.19
  -2  -1  12  569.84   66.49
   3   1 -12  209.78   36.20
  -3  -1  12  208.98   38.50
  -3  -1  12  181.38   27.30
   4   1 -12  336.47   46.70
   4   1 -12  474.75   54.09
  -4  -1  12  335.67   37.30
  -4  -1  12  350.86   54.19
  -4  -1  12  239.28   51.79
   5   1 -12  329.97   48.70
   5   1 -12  394.36   56.89
  -5  -1  12  409.26   57.69
  -5  -1  12  298.27   53.69
   6   1 -12   -2.00   33.90
  -6  -1  12  -16.50   34.90
  -6  -1  12   -5.30   29.20
  -3   1 -11   68.59   24.90
  -3   1 -11    5.50   12.20
   3  -1  11  -26.00   36.80
  -2   1 -11 1130.09   81.79
  -2   1 -11 1078.19   72.79
   2  -1  11  773.52   96.79
   2  -1  11 1013.40   88.99
   2  -1  11  990.50   75.79
  -1   1 -11  247.78   35.00
  -1   1 -11  217.18   23.90
   1  -1  11  277.57   44.00
   1  -1  11  239.38   28.10
   1  -1  11  201.98   43.90
   0   1 -11  284.07   26.80
   0   1 -11  302.07   34.10
   0  -1  11  227.88   33.20
   0  -1  11  328.47   30.40
   0  -1  11  247.38   43.20
   0  -1  11  267.67   40.10
   1   1 -11  584.34   47.30
   1   1 -11  545.05   50.49
  -1  -1  11  503.65   45.00
  -1  -1  11  475.55   55.79
  -1  -1  11  400.26   59.09
  -1  -1  11  538.75   50.09
   2   1 -11  186.98   30.90
   2   1 -11  202.28   33.80
  -2  -1  11  165.88   29.90
  -2  -1  11  158.68   35.50
  -2  -1  11  170.98   25.30
   3   1 -11  532.65   51.09
   3   1 -11  619.74   43.80
   3   1 -11  542.95   53.09
  -3  -1  11  492.25   44.90
  -3  -1  11  540.85   58.19
   4   1 -11    3.90   22.50
   4   1 -11  -29.50   17.40
  -4  -1  11   -7.80   13.80
  -4  -1  11   26.20   24.20
  -4  -1  11   36.80   25.60
   5   1 -11  585.74   58.09
   5   1 -11  691.43   64.89
  -5  -1  11  656.93   64.79
  -5  -1  11  545.35   62.29
   6   1 -11  103.09   29.80
   6   1 -11  128.79   33.90
  -6  -1  11  114.49   32.00
  -6  -1  11   93.49   33.10
  -3   1 -10  372.96   34.40
   3  -1  10  346.07   39.90
   3  -1  10  385.56   56.09
  -2   1 -10  386.16   40.40
  -2   1 -10  378.86   32.40
   2  -1  10  322.47   47.60
   2  -1  10  373.46   35.50
   2  -1  10  313.07   56.29
  -1   1 -10  765.02   53.99
  -1   1 -10  821.82   60.79
   1  -1  10  793.22   65.49
   1  -1  10  611.54   68.89
   1  -1  10  765.82   55.69
   1  -1  10  662.83   58.49
   0   1 -10  102.49   21.00
   0   1 -10  100.99   20.80
   0   1 -10  107.09   16.30
   0  -1  10   87.19   26.00
   0  -1  10  103.39   23.90
   0  -1  10   88.79   18.60
   1   1 -10 1266.57   84.29
   1   1 -10  937.31   78.39
   1   1 -10 1186.98   81.69
  -1  -1  10  967.50   87.09
  -1  -1  10 1134.59   79.19
  -1  -1  10 1157.88   81.69
   2   1 -10   90.29   14.20
   2   1 -10   41.20   16.90
   2   1 -10   59.09   18.50
  -2  -1  10   41.20   30.60
  -2  -1  10   70.99   16.60
  -2  -1  10   30.70   22.10
  -2  -1  10   81.19   16.50
   3   1 -10  673.73   54.79
   3   1 -10  603.94   53.29
   3   1 -10  710.73   46.40
  -3  -1  10  574.04   50.79
  -3  -1  10  585.04   47.90
  -3  -1  10  612.14   60.19
   4   1 -10  309.97   36.40
   4   1 -10  269.97   38.50
  -4  -1  10  340.27   40.60
  -4  -1  10  220.48   40.80
  -4  -1  10  293.87   41.70
  -4  -1  10  265.97   26.80
   5   1 -10  235.58   41.00
   5   1 -10  196.18   36.60
  -5  -1  10  205.98   35.70
  -5  -1  10  241.98   39.20
  -5  -1  10  221.28   22.70
   6   1 -10  159.68   32.50
   6   1 -10  183.88   30.40
  -6  -1  10  145.49   35.80
  -6  -1  10  123.49   28.20
   7   1 -10  -24.90   32.60
   7   1 -10  -13.90   24.60
  -7  -1  10    7.30   33.10
  -7  -1  10   -8.40   28.00
  -4   1  -9  184.68   29.80
  -4   1  -9  161.38   24.10
   4  -1   9  112.39   26.50
   4  -1   9   96.99   38.30
  -3   1  -9  889.11   67.19
  -3   1  -9  824.42   60.79
   3  -1   9  784.52   74.89
   3  -1   9  797.02   63.59
  -2   1  -9   70.59   12.90
  -2   1  -9   90.99   18.40
  -2   1  -9  124.99   22.10
   2  -1   9   67.89   15.30
   2  -1   9  131.29   28.90
   2  -1   9   52.69   19.80
   2  -1   9   64.39   25.20
  -1   1  -9 1279.77   92.09
  -1   1  -9 1226.78   90.49
  -1   1  -9 1324.27   86.29
   1  -1   9 1220.68   89.49
   1  -1   9 1257.57   95.09
   1  -1   9 1304.07   87.69
   0   1  -9  486.85   47.30
   0   1  -9  588.04   41.80
   0   1  -9  662.43   48.30
   0  -1   9  554.44   45.10
   0  -1   9  528.55   54.19
   0  -1   9  579.34   52.69
   0  -1   9  605.04   49.10
   1   1  -9  313.27   31.50
   1   1  -9  268.47   34.30
   1   1  -9  299.77   27.80
   1   1  -9  274.77   30.90
  -1  -1   9  243.28   40.40
  -1  -1   9  269.07   29.40
  -1  -1   9  305.57   28.10
  -1  -1   9  230.78   35.10
   2   1  -9  724.63   55.09
   2   1  -9  680.73   54.59
   2   1  -9  739.73   50.29
  -2  -1   9  672.83   52.19
  -2  -1   9  678.03   60.19
  -2  -1   9  667.83   51.39
   3   1  -9  155.48   22.50
   3   1  -9  131.99   21.60
   3   1  -9  169.28   16.90
  -3  -1   9  131.99   18.30
  -3  -1   9  119.69   27.00
  -3  -1   9  121.19   18.80
  -3  -1   9  130.39   28.40
   4   1  -9  924.61   64.79
   4   1  -9  896.91   66.99
  -4  -1   9  756.42   56.89
  -4  -1   9  788.82   69.19
  -4  -1   9  775.32   69.59
  -4  -1   9  832.72   64.89
   5   1  -9    0.80   16.90
   5   1  -9   33.90   21.70
  -5  -1   9   13.50   20.80
  -5  -1   9   -3.30    9.20
  -5  -1   9   22.20   18.40
  -5  -1   9   38.40   14.40
   6   1  -9  755.12   59.39
   6   1  -9  743.23   68.19
  -6  -1   9  591.44   65.29
  -6  -1   9  594.44   61.39
   7   1  -9   49.10   24.00
   7   1  -9  133.49   34.70
  -7  -1   9   46.90   26.00
  -7  -1   9   84.49   33.60
  -5   1  -8  557.04   51.29
  -5   1  -8  651.03   66.89
   5  -1   8  592.34   75.49
   5  -1   8  657.13   60.19
  -4   1  -8   53.99   13.20
  -4   1  -8   90.59   22.60
   4  -1   8   43.00   32.80
   4  -1   8   30.00   17.50
  -3   1  -8  514.25   45.20
  -3   1  -8  446.36   42.60
  -3   1  -8  485.25   38.70
   3  -1   8  436.66   52.49
   3  -1   8  479.75   40.80
   3  -1   8  468.75   48.90
  -2   1  -8  681.63   54.79
  -2   1  -8  857.51   60.29
  -2   1  -8  859.31   60.59
   2  -1   8  788.12   66.39
   2  -1   8  656.43   65.89
   2  -1   8  779.62   60.79
   2  -1   8  794.12   56.79
  -1   1  -8 1362.86   94.09
  -1   1  -8 1406.66   95.59
  -1   1  -8 1361.46   90.69
   1  -1   8 1285.67   93.09
   1  -1   8 1376.16   92.09
   1  -1   8 1321.67   97.19
   0   1  -8 1284.87   87.49
   0   1  -8 1451.85   90.59
   0   1  -8 1315.17   87.19
   0  -1   8 1221.98   86.69
   0  -1   8 1294.47   88.99
   0  -1   8 1115.69   91.29
   0  -1   8 1181.88   92.69
   0  -1   8 1186.18   85.79
   1   1  -8   94.39   14.10
   1   1  -8   99.99   16.60
   1   1  -8  117.69   20.60
   1   1  -8  118.79   19.90
  -1  -1   8  145.19   25.50
  -1  -1   8   97.39   16.40
  -1  -1   8  107.69   16.20
  -1  -1   8   96.79   16.60
  -1  -1   8   72.19   27.00
   2   1  -8 1099.19   72.29
   2   1  -8 1069.99   71.49
  -2  -1   8  978.10   69.39
  -2  -1   8 1016.40   68.69
  -2  -1   8  925.71   69.09
  -2  -1   8  850.61   76.49
  -2  -1   8  992.60   75.79
   3   1  -8  282.67   28.30
   3   1  -8  172.48   28.40
   3   1  -8  312.07   28.50
  -3  -1   8  211.38   34.20
  -3  -1   8  257.77   25.30
  -3  -1   8  251.27   32.70
  -3  -1   8  234.48   21.50
  -3  -1   8  221.88   25.20
  -3  -1   8  247.28   30.70
   4   1  -8  625.34   47.40
   4   1  -8  557.24   43.90
  -4  -1   8  540.55   42.50
  -4  -1   8  482.85   48.30
  -4  -1   8  428.66   41.30
  -4  -1   8  503.45   44.80
  -4  -1   8  509.75   48.80
  -4  -1   8  502.25   36.90
   5   1  -8  214.18   32.90
   5   1  -8  227.68   30.50
  -5  -1   8  200.18   21.70
  -5  -1   8  207.08   32.40
  -5  -1   8  184.18   32.50
   6   1  -8   50.59   20.10
   6   1  -8   41.00   24.60
  -6  -1   8   53.19   18.90
  -6  -1   8   60.19   26.30
   7   1  -8  271.17   42.50
   7   1  -8  359.96   56.29
  -7  -1   8  290.17   45.40
  -7  -1   8  370.46   52.59
  -5   1  -7  374.16   49.99
  -5   1  -7  332.37   34.30
   5  -1   7  262.57   49.60
   5  -1   7  379.96   43.50
  -4   1  -7  465.15   34.30
  -4   1  -7  458.15   39.30
  -4   1  -7  526.15   47.40
   4  -1   7  451.05   54.19
   4  -1   7  441.36   42.50
  -3   1  -7   48.80   17.70
  -3   1  -7   95.49   17.60
  -3   1  -7   76.49   14.40
   3  -1   7   79.99   15.20
   3  -1   7   54.59   24.50
   3  -1   7   84.09   21.40
  -2   1  -7 1608.54  105.89
  -2   1  -7 1572.84  103.29
  -2   1  -7 1714.33  106.99
   2  -1   7 1518.05  106.69
   2  -1   7 1698.83  104.79
   2  -1   7 1614.74  111.09
   2  -1   7 1280.77  110.19
   2  -1   7 1322.17  104.79
  -1   1  -7   86.19   15.20
  -1   1  -7  130.89   19.40
  -1   1  -7  100.69   17.40
  -1   1  -7   70.99   11.50
   1  -1   7   90.29   14.40
   1  -1   7   75.99   13.40
   1  -1   7  100.99   18.10
   1  -1   7   83.89   14.40
   1  -1   7   96.69   21.80
   0   1  -7 1563.94  104.79
   0   1  -7 1683.83  106.49
   0   1  -7 1537.45  104.19
   0   1  -7 1696.93  107.49
   0  -1   7 1531.35  103.39
   0  -1   7 1412.66  108.39
   0  -1   7 1534.95  105.69
   0  -1   7 1438.56  103.79
   1   1  -7  447.46   34.30
   1   1  -7  361.56   28.30
   1   1  -7  399.16   31.40
   1   1  -7  305.37   29.90
  -1  -1   7  346.47   29.70
  -1  -1   7  350.36   28.90
  -1  -1   7  376.76   35.20
  -1  -1   7  325.27   28.70
   2   1  -7  821.62   60.29
   2   1  -7  908.11   62.59
   2   1  -7  819.62   59.69
   2   1  -7  894.41   56.79
  -2  -1   7  778.62   64.89
  -2  -1   7  847.02   58.69
  -2  -1   7  851.11   58.99
  -2  -1   7  801.72   57.19
  -2  -1   7  768.22   63.09
   3   1  -7 1384.86   90.59
   3   1  -7 1440.96   92.89
  -3  -1   7 1243.78   90.19
  -3  -1   7 1290.17   94.09
  -3  -1   7 1338.57   96.29
  -3  -1   7 1296.87   89.29
  -3  -1   7 1295.07   86.69
  -3  -1   7 1260.27   89.19
   4   1  -7   59.19   17.50
   4   1  -7   89.69   16.10
   4   1  -7   99.29   18.80
  -4  -1   7   60.69   13.20
  -4  -1   7   88.99   13.50
  -4  -1   7   86.59   16.40
  -4  -1   7   86.19   20.20
  -4  -1   7   82.39   11.60
  -4  -1   7  100.29   19.60
   5   1  -7  871.11   60.79
   5   1  -7  827.42   66.99
  -5  -1   7  838.12   65.59
  -5  -1   7  711.93   53.89
  -5  -1   7  738.93   65.09
   6   1  -7   52.49   22.40
   6   1  -7   37.40   17.90
  -6  -1   7   41.50   24.50
  -6  -1   7   44.80   18.80
   7   1  -7  292.57   41.40
  -7  -1   7  342.37   50.89
  -7  -1   7  306.07   43.00
  -6   1  -6  478.25   47.20
  -6   1  -6  543.75   64.19
   6  -1   6  461.15   55.89
   6  -1   6  583.34   73.79
  -5   1  -6   -3.30   18.50
  -5   1  -6    7.10   10.20
   5  -1   6   -8.00   28.70
   5  -1   6   17.70   18.10
  -4   1  -6  893.01   62.59
  -4   1  -6 1007.70   68.39
  -4   1  -6  892.01   67.89
  -4   1  -6  962.50   72.19
   4  -1   6  997.40   69.89
   4  -1   6  950.60   79.69
   4  -1   6  843.82   77.99
  -3   1  -6  321.77   30.40
  -3   1  -6  315.37   31.30
  -3   1  -6  320.67   27.30
   3  -1   6  307.97   36.50
   3  -1   6  273.47   38.80
   3  -1   6  334.47   29.10
   3  -1   6  287.27   31.20
  -2   1  -6  714.43   53.79
  -2   1  -6  733.03   52.39
  -2   1  -6  703.73   49.90
  -2   1  -6  705.23   54.29
   2  -1   6  762.72   57.69
   2  -1   6  691.23   54.29
   2  -1   6  711.43   50.79
   2  -1   6  655.53   51.89
  -1   1  -6  987.60   69.89
  -1   1  -6 1037.50   67.09
  -1   1  -6 1056.49   69.19
  -1   1  -6 1035.50   71.29
   1  -1   6  921.91   73.19
   1  -1   6  966.60   71.39
   1  -1   6  944.11   68.59
   1  -1   6 1007.00   67.79
   0   1  -6  596.64   45.00
   0   1  -6  545.85   42.40
   0   1  -6  633.64   43.00
   0   1  -6  623.84   44.40
   0  -1   6  569.94   42.10
   0  -1   6  594.74   43.50
   0  -1   6  517.65   45.60
   0  -1   6  585.24   41.60
   1   1  -6 1305.27   91.39
   1   1  -6 1483.95   90.09
   1   1  -6 1357.16   91.19
   1   1  -6 1579.74   94.29
  -1  -1   6 1285.27   90.09
  -1  -1   6 1338.67   90.39
  -1  -1   6 1307.17   90.39
  -1  -1   6 1415.96   95.09
  -1  -1   6 1135.99   95.69
   2   1  -6   65.59   11.60
   2   1  -6   91.19   16.60
   2   1  -6   81.09   13.20
   2   1  -6   67.49    9.00
  -2  -1   6   64.79   10.80
  -2  -1   6   56.09   15.80
  -2  -1   6   70.79   10.80
  -2  -1   6   98.69   17.60
  -2  -1   6   80.69   12.30
   3   1  -6 1671.83  108.99
   3   1  -6 1607.94  106.59
   3   1  -6 1793.12  109.39
  -3  -1   6 1552.84  102.99
  -3  -1   6 1555.84  111.19
  -3  -1   6 1586.54  110.09
  -3  -1   6 1553.24  107.29
  -3  -1   6 1465.05  105.59
  -3  -1   6 1541.35  104.89
   4   1  -6  309.47   26.10
   4   1  -6  309.07   29.60
   4   1  -6  330.87   28.70
  -4  -1   6  249.78   24.20
  -4  -1   6  267.07   22.20
  -4  -1   6  265.87   30.20
  -4  -1   6  228.18   26.20
  -4  -1   6  236.58   18.90
  -4  -1   6  262.57   30.50
   5   1  -6  317.97   51.59
   5   1  -6  358.46   31.40
   5   1  -6  317.77   34.00
   5   1  -6  350.46   38.70
  -5  -1   6  278.97   25.30
  -5  -1   6  288.57   36.10
  -5  -1   6  352.76   35.40
   6   1  -6  329.47   41.40
   6   1  -6  302.97   31.90
  -6  -1   6  250.07   38.30
  -6  -1   6  234.08   33.40
  -6  -1   6  228.98   19.40
  -6  -1   6  246.18   21.70
   7   1  -6   96.99   22.60
   7   1  -6   77.29   29.20
  -7  -1   6  104.09   28.60
  -7  -1   6   75.09   23.10
   8   1  -6  304.57   47.70
  -8  -1   6  242.88   49.60
  -8  -1   6  331.87   60.29
  -6   1  -5  547.35   60.89
  -6   1  -5  513.65   47.10
   6  -1   5  499.15   71.39
   6  -1   5  518.95   54.19
  -5   1  -5  492.95   47.70
  -5   1  -5  371.66   29.80
  -5   1  -5  429.56   37.40
   5  -1   5  439.06   43.40
   5  -1   5  369.76   53.49
  -4   1  -5  445.26   37.60
  -4   1  -5  476.25   37.40
  -4   1  -5  427.26   40.20
  -4   1  -5  459.45   40.70
  -4   1  -5  449.86   32.20
   4  -1   5  402.56   49.90
   4  -1   5  500.25   39.60
  -3   1  -5  935.31   68.29
  -3   1  -5  903.61   70.09
  -3   1  -5 1004.00   67.79
   3  -1   5  969.60   67.39
   3  -1   5  996.50   67.09
   3  -1   5  790.42   70.89
   3  -1   5 1044.10   74.79
  -2   1  -5   -1.50   10.30
  -2   1  -5   16.30   10.30
  -2   1  -5    4.40    6.70
  -2   1  -5    0.90    4.60
   2  -1   5   -8.00    9.10
   2  -1   5   -0.90    7.90
   2  -1   5   -2.80   11.00
   2  -1   5    5.60   10.20
   2  -1   5   -1.10    5.60
  -1   1  -5 2731.43  171.18
  -1   1  -5 2521.95  169.88
  -1   1  -5 2702.03  168.68
  -1   1  -5 2762.62  172.18
   1  -1   5 2539.75  169.98
   1  -1   5 2621.54  169.88
   1  -1   5 2283.37  173.08
   1  -1   5 2694.33  169.28
   1  -1   5 2605.84  172.18
   0   1  -5  218.68   20.20
   0   1  -5  194.18   22.60
   0   1  -5  189.38   18.10
   0  -1   5  165.88   22.70
   0  -1   5  183.18   17.70
   0  -1   5  143.49   27.80
   0  -1   5  154.78   15.70
   0  -1   5  170.28   18.80
   1   1  -5 2168.88  138.59
   1   1  -5 2274.87  136.99
   1   1  -5 2190.18  138.29
   1   1  -5 2425.36  141.09
  -1  -1   5 2111.29  141.29
  -1  -1   5 2058.69  137.29
  -1  -1   5 2009.30  137.59
  -1  -1   5 1884.01  141.89
  -1  -1   5 1888.61  137.09
   2   1  -5  459.05   36.60
   2   1  -5  498.05   36.50
  -2  -1   5  460.85   36.20
  -2  -1   5  504.05   33.90
  -2  -1   5  536.35   40.80
  -2  -1   5  486.25   40.60
  -2  -1   5  518.05   36.10
   3   1  -5  337.47   28.80
   3   1  -5  354.16   29.00
   3   1  -5  311.67   26.40
  -3  -1   5  328.07   27.50
  -3  -1   5  300.67   24.30
  -3  -1   5  334.57   30.20
  -3  -1   5  325.57   26.00
  -3  -1   5  361.46   31.80
   4   1  -5 1618.64  103.19
   4   1  -5 1763.52  104.69
   4   1  -5 1675.23  107.39
  -4  -1   5 1569.64  107.39
  -4  -1   5 1297.97   98.19
  -4  -1   5 1406.06   99.69
  -4  -1   5 1478.05  104.39
  -4  -1   5 1570.84  105.89
  -4  -1   5 1444.96  101.89
   5   1  -5   85.79   15.90
   5   1  -5  106.29   18.00
   5   1  -5  113.29   21.70
   5   1  -5  100.89   26.90
  -5  -1   5  121.79   21.80
  -5  -1   5   87.79   14.10
  -5  -1   5  107.69   19.20
   6   1  -5  614.04   46.50
   6   1  -5  494.15   42.90
   6   1  -5  678.33   57.09
  -6  -1   5  545.75   50.29
  -6  -1   5  517.45   40.90
  -6  -1   5  541.45   50.89
   7   1  -5   38.90   18.00
   7   1  -5    2.90   22.70
  -7  -1   5   35.50   25.70
  -7  -1   5   19.00   17.30
   8   1  -5  151.08   29.40
   8   1  -5  132.99   39.20
  -8  -1   5  163.78   37.80
  -6   1  -4  114.59   29.20
  -6   1  -4  117.59   22.80
   6  -1   4  130.49   38.40
   6  -1   4  108.89   25.30
  -5   1  -4 1147.69   81.99
  -5   1  -4 1120.19   75.09
  -5   1  -4 1109.59   84.99
   5  -1   4 1096.39   91.99
   5  -1   4 1197.18   84.79
  -4   1  -4   -2.10   14.00
  -4   1  -4    5.40    9.30
  -4   1  -4    1.20    4.80
  -4   1  -4    1.30    7.00
  -4   1  -4  -12.00    8.50
   4  -1   4    4.50    9.80
   4  -1   4   -3.50   16.50
   4  -1   4   -3.90    9.40
  -3   1  -4  771.02   54.49
  -3   1  -4  705.73   56.19
  -3   1  -4  827.82   54.19
  -3   1  -4  670.23   54.79
  -3   1  -4  748.33   53.39
   3  -1   4  848.12   61.19
   3  -1   4  752.62   53.59
   3  -1   4  730.93   54.29
  -2   1  -4  668.93   50.39
  -2   1  -4  708.53   47.80
  -2   1  -4  708.73   48.30
  -2   1  -4  649.74   50.19
   2  -1   4  698.03   48.40
   2  -1   4  638.44   52.29
   2  -1   4  733.93   48.50
   2  -1   4  688.93   52.19
  -1   1  -4 2104.39  136.59
  -1   1  -4 2102.39  135.49
  -1   1  -4 2066.19  133.09
  -1   1  -4 1939.71  134.19
   1  -1   4 2046.50  134.49
   1  -1   4 2041.50  136.39
   1  -1   4 1709.83  137.49
   1  -1   4 2257.87  134.59
   1  -1   4 2201.48  133.49
   0   1  -4 1565.44   99.59
   0   1  -4 1563.84   99.59
   0   1  -4 1731.33  102.29
   0   1  -4 1427.16   99.49
   0  -1   4 1490.95   99.89
   0  -1   4 1581.84   99.29
   0  -1   4 1365.96   98.39
   0  -1   4 1397.96  101.99
   1   1  -4  380.86   27.90
   1   1  -4  384.86   25.70
   1   1  -4  377.36   27.30
   1   1  -4  400.56   30.10
  -1  -1   4  346.37   32.10
  -1  -1   4  363.16   26.20
  -1  -1   4  342.57   30.30
  -1  -1   4  350.76   26.50
   2   1  -4 1470.25   97.39
   2   1  -4 1426.16   98.29
  -2  -1   4 1603.44  101.09
  -2  -1   4 1398.36   95.79
  -2  -1   4 1448.76   97.09
  -2  -1   4 1498.85  100.49
   3   1  -4  156.28   19.10
   3   1  -4  183.98   17.30
   3   1  -4  224.08   19.90
  -3  -1   4  179.18   20.80
  -3  -1   4  163.88   18.60
  -3  -1   4  210.08   20.70
  -3  -1   4  185.08   16.80
  -3  -1   4  169.18   14.80
   4   1  -4 1396.16   95.19
   4   1  -4 1643.14   96.49
   4   1  -4 1549.45   99.79
   4   1  -4 1235.28  100.99
   4   1  -4 1466.55   93.69
  -4  -1   4 1503.55   99.69
  -4  -1   4 1298.97   96.69
  -4  -1   4 1303.67   92.69
  -4  -1   4 1347.87   97.09
   5   1  -4  263.27   26.70
   5   1  -4  247.78   25.90
   5   1  -4  321.57   40.10
   5   1  -4  305.07   33.90
   5   1  -4  319.27   25.90
  -5  -1   4  252.97   23.60
  -5  -1   4  273.87   29.80
  -5  -1   4  275.77   29.70
   6   1  -4  359.46   32.90
   6   1  -4  394.26   44.00
   6   1  -4  332.27   30.80
   6   1  -4  350.76   33.60
  -6  -1   4  293.77   36.50
  -6  -1   4  367.06   37.90
  -6  -1   4  332.17   30.30
   7   1  -4  373.56   39.80
   7   1  -4  343.17   39.30
   7   1  -4  343.77   51.79
  -7  -1   4  357.56   42.40
  -7  -1   4  284.67   44.10
   8   1  -4   24.90   24.40
   8   1  -4   58.29   35.20
  -8  -1   4   37.00   26.80
  -7   1  -3  389.66   46.30
   7  -1   3  506.55   82.59
   7  -1   3  435.46   55.09
  -6   1  -3   84.89   17.80
  -6   1  -3   63.79   14.90
  -6   1  -3   68.99   25.10
   6  -1   3  148.29   34.50
   6  -1   3   75.99   23.00
  -5   1  -3  741.43   55.29
  -5   1  -3  685.63   57.69
  -5   1  -3  644.64   48.50
   5  -1   3  782.22   58.49
   5  -1   3  694.43   53.49
   5  -1   3  798.22   67.19
  -4   1  -3  376.26   33.50
  -4   1  -3  396.16   36.20
  -4   1  -3  362.16   31.10
  -4   1  -3  375.66   31.80
  -4   1  -3  333.77   34.90
  -4   1  -3  383.56   27.00
   4  -1   3  361.66   40.80
   4  -1   3  384.46   31.20
   4  -1   3  408.96   33.90
  -3   1  -3  656.03   49.90
  -3   1  -3  679.93   47.60
  -3   1  -3  666.13   44.20
  -3   1  -3  695.93   47.50
  -3   1  -3  614.84   47.00
   3  -1   3  625.74   51.89
   3  -1   3  641.64   47.90
   3  -1   3  693.53   46.80
  -2   1  -3 3430.96  224.68
  -2   1  -3 3470.45  224.98
  -2   1  -3 3592.64  227.08
  -2   1  -3 3335.27  224.48
  -2   1  -3 3154.28  226.28
   2  -1   3 3822.52  228.68
   2  -1   3 3616.54  224.78
   2  -1   3 3479.95  225.08
  -1   1  -3  210.58   20.20
  -1   1  -3  205.98   16.10
  -1   1  -3  242.98   19.60
  -1   1  -3  225.88   17.30
   1  -1   3  232.18   17.40
   1  -1   3  173.38   23.40
   1  -1   3  208.78   16.20
   1  -1   3  221.08   19.80
   1  -1   3  191.58   17.70
   0   1  -3 1487.35  102.29
   0   1  -3 1766.42  105.39
   0   1  -3 1708.33  102.99
   0   1  -3 1670.63  102.99
   0  -1   3 1517.25  103.09
   0  -1   3 1438.36  101.69
   0  -1   3 1632.14  102.59
   0  -1   3 1409.56  105.19
   1   1  -3   61.19   10.70
   1   1  -3   62.69    8.60
   1   1  -3   60.89    8.70
   1   1  -3   67.09    6.10
  -1  -1   3   52.29    7.90
  -1  -1   3   63.29    7.60
  -1  -1   3   72.69   14.30
  -1  -1   3   40.20    9.90
   2   1  -3  740.43   52.99
   2   1  -3  749.53   54.39
   2   1  -3  897.61   54.89
  -2  -1   3  698.23   51.19
  -2  -1   3  895.51   56.49
  -2  -1   3  779.42   50.49
  -2  -1   3  770.02   52.89
  -2  -1   3  797.22   54.99
  -2  -1   3  774.12   53.99
   3   1  -3  729.03   61.99
   3   1  -3  858.01   58.89
   3   1  -3  779.92   54.69
   3   1  -3  811.62   56.09
  -3  -1   3  796.72   57.59
  -3  -1   3  820.92   54.59
  -3  -1   3  875.91   58.49
  -3  -1   3  870.51   59.49
   4   1  -3  973.10   76.29
   4   1  -3 1141.09   75.29
   4   1  -3 1016.50   70.49
   4   1  -3 1064.09   70.59
   4   1  -3 1116.49   70.49
  -4  -1   3  953.60   68.69
  -4  -1   3 1090.49   74.59
  -4  -1   3  917.51   72.09
  -4  -1   3 1000.60   71.69
   5   1  -3  676.23   48.40
   5   1  -3  577.74   47.90
   5   1  -3  715.03   46.80
   5   1  -3  678.03   54.89
   5   1  -3  652.93   55.99
  -5  -1   3  644.14   46.90
  -5  -1   3  632.34   52.09
  -5  -1   3  587.94   49.30
   6   1  -3  -10.30   10.60
   6   1  -3   -4.30    9.10
   6   1  -3   18.30   14.90
   6   1  -3   -2.50   16.60
  -6  -1   3  -14.50   13.40
  -6  -1   3    4.40   12.40
  -6  -1   3  -10.20   11.60
   7   1  -3  316.57   48.80
   7   1  -3  344.47   42.00
   7   1  -3  333.47   37.90
  -7  -1   3  260.57   37.60
  -7  -1   3  311.77   40.60
   8   1  -3   20.50   23.90
   8   1  -3   37.50   34.40
  -8  -1   3    7.90   23.70
  -7   1  -2  161.98   31.40
  -7   1  -2   96.59   34.40
   7  -1   2  265.37   48.90
   7  -1   2  183.98   34.30
  -6   1  -2  538.25   45.00
  -6   1  -2  419.16   49.60
  -6   1  -2  458.15   37.80
   6  -1   2  564.54   51.59
   6  -1   2  642.64   65.69
  -5   1  -2  102.79   22.90
  -5   1  -2  142.79   22.10
  -5   1  -2  134.09   19.40
  -5   1  -2  124.89   14.00
   5  -1   2  147.89   19.80
   5  -1   2  132.49   24.10
   5  -1   2  145.39   27.80
  -4   1  -2 1149.89   89.09
  -4   1  -2 1414.56   90.49
  -4   1  -2 1395.66   90.89
  -4   1  -2 1300.57   85.69
  -4   1  -2 1305.97   91.49
   4  -1   2 1244.18   87.79
   4  -1   2 1378.56   91.29
   4  -1   2 1289.37   94.59
  -3   1  -2   14.70    6.20
  -3   1  -2   18.30    6.70
  -3   1  -2   11.10    9.50
  -3   1  -2   16.50    6.60
  -3   1  -2   24.80   10.20
  -3   1  -2   21.60    4.60
   3  -1   2   32.40    8.50
   3  -1   2    3.00    9.40
   3  -1   2   11.60    5.90
  -2   1  -2 2312.97  163.58
  -2   1  -2 2561.14  163.68
  -2   1  -2 2659.93  163.98
  -2   1  -2 2518.75  165.58
   2  -1   2 2503.45  164.18
   2  -1   2 2590.44  163.28
   2  -1   2 2571.54  166.48
  -1   1  -2 2862.31  177.98
  -1   1  -2 2707.53  177.38
  -1   1  -2 2568.34  177.68
  -1   1  -2 2578.64  179.98
  -1   1  -2 2873.91  179.68
   1  -1   2 2746.33  177.58
   1  -1   2 2643.64  180.68
   1  -1   2 3020.30  177.98
   1  -1   2 2932.41  180.08
   0   1  -2 1693.63  105.39
   0   1  -2 1653.73  102.79
   0   1  -2 1676.93  103.69
   0   1  -2 1612.64  103.39
   0  -1   2 1507.75  102.49
   0  -1   2 1584.74  103.59
   0  -1   2 1595.14  103.29
   0  -1   2 1499.75  105.09
   1   1  -2 2100.79  139.59
   1   1  -2 2130.69  139.29
  -1  -1   2 2059.49  139.29
  -1  -1   2 2422.76  140.89
  -1  -1   2 2108.59  139.19
   2   1  -2    7.80    3.30
   2   1  -2    4.00    5.00
   2   1  -2    5.10    3.70
   2   1  -2    3.70    5.00
  -2  -1   2   10.20    5.00
  -2  -1   2   10.60    6.50
  -2  -1   2    7.20    3.90
  -2  -1   2    7.50    3.30
  -2  -1   2    2.10    4.90
   3   1  -2 1803.32  117.89
   3   1  -2 1772.22  115.09
   3   1  -2 1718.13  114.89
   3   1  -2 1699.43  118.89
  -3  -1   2 1673.63  113.79
  -3  -1   2 1923.11  117.99
  -3  -1   2 1636.84  116.59
  -3  -1   2 1810.42  115.69
   4   1  -2  176.28   18.30
   4   1  -2  192.98   21.20
   4   1  -2  200.18   16.90
   4   1  -2  193.58   22.70
   4   1  -2  193.58   25.70
  -4  -1   2  183.38   18.30
  -4  -1   2  179.98   19.30
  -4  -1   2  152.48   20.10
  -4  -1   2  173.88   21.20
   5   1  -2  796.42   60.19
   5   1  -2  729.33   55.59
   5   1  -2  709.03   58.49
   5   1  -2  776.12   53.59
   5   1  -2  735.33   50.29
  -5  -1   2  667.73   52.09
  -5  -1   2  643.54   52.79
  -5  -1   2  760.62   57.29
   6   1  -2  141.49   23.60
   6   1  -2  128.59   22.60
   6   1  -2  123.49   15.30
   6   1  -2  111.79   24.10
  -6  -1   2  112.49   18.00
  -6  -1   2   99.79   18.90
  -6  -1   2   81.59   18.50
   7   1  -2  496.65   58.19
   7   1  -2  602.44   55.39
   7   1  -2  516.85   46.80
  -7  -1   2  485.85   49.99
  -7  -1   2  396.56   46.30
  -7   1  -1   19.00   29.50
  -7   1  -1    1.40   13.90
   7  -1   1   85.19   39.80
   7  -1   1    0.90   23.90
  -6   1  -1  430.26   40.60
  -6   1  -1  340.87   43.60
  -6   1  -1  391.86   34.80
   6  -1   1  530.55   39.40
   6  -1   1  535.55   48.60
   6  -1   1  539.85   57.49
  -5   1  -1  186.78   26.30
  -5   1  -1  236.48   23.70
  -5   1  -1  186.88   18.40
  -5   1  -1  191.88   28.30
  -5   1  -1  154.68   24.00
   5  -1   1  231.88   23.10
   5  -1   1  250.37   34.70
   5  -1   1  258.97   28.30
  -4   1  -1 1041.70   76.29
  -4   1  -1 1093.29   71.59
  -4   1  -1 1159.28   75.79
  -4   1  -1 1107.49   75.99
  -4   1  -1  945.91   74.59
   4  -1   1 1088.39   73.19
   4  -1   1 1128.69   76.79
   4  -1   1 1079.49   79.39
  -3   1  -1  956.20   62.89
  -3   1  -1  949.31   60.29
  -3   1  -1  863.11   62.79
  -3   1  -1  879.11   65.09
  -3   1  -1  888.51   62.79
   3  -1   1  935.31   63.49
   3  -1   1  885.51   61.39
   3  -1   1  933.71   66.89
  -2   1  -1  561.24   42.80
  -2   1  -1  640.94   44.90
  -2   1  -1  650.43   42.80
  -2   1  -1  643.94   42.50
  -2   1  -1  646.54   41.30
   2  -1   1  609.34   43.30
   2  -1   1  617.54   45.30
   2  -1   1  632.14   41.90
  -1   1  -1 2340.37  142.99
  -1   1  -1 2039.40  141.29
  -1   1  -1 2130.79  141.09
   1  -1   1 2276.67  141.09
   1  -1   1 2081.99  141.39
   1  -1   1 2375.56  143.19
   0   1  -1    5.50    4.30
   0   1  -1    5.60    2.50
   0  -1   1    0.80    2.10
   0  -1   1    3.50    1.70
   0  -1   1    0.20    1.50
   0  -1   1    6.90    1.30
   1   1  -1 4352.96  281.47
   1   1  -1 4072.59  281.97
   1   1  -1 4411.06  280.57
   1   1  -1 4997.90  282.07
  -1  -1   1 4335.97  281.47
  -1  -1   1 4474.55  280.37
  -1  -1   1 4005.20  281.87
  -1  -1   1 4631.44  282.07
   2   1  -1   98.29   13.20
   2   1  -1  130.09   12.20
   2   1  -1  118.99   11.40
   2   1  -1  141.19   15.70
  -2  -1   1  126.09   10.80
  -2  -1   1  144.59   13.40
  -2  -1   1  150.58   12.30
  -2  -1   1  108.39   12.60
   3   1  -1  724.13   51.79
   3   1  -1  748.13   52.59
   3   1  -1  690.93   48.10
   3   1  -1  720.83   53.19
  -3  -1   1  771.32   52.19
  -3  -1   1  781.82   49.99
  -3  -1   1  749.92   49.60
  -3  -1   1  705.73   51.49
  -3  -1   1  592.24   53.09
   4   1  -1 1437.66  104.09
   4   1  -1 1535.05   98.29
   4   1  -1 1760.32  101.39
   4   1  -1 1442.96  102.59
   4   1  -1 1641.34  103.89
  -4  -1   1 1382.56   99.99
  -4  -1   1 1494.55   99.79
  -4  -1   1 1505.35  103.59
  -4  -1   1 1361.86  102.49
   5   1  -1  167.38   15.60
   5   1  -1  184.18   28.20
   5   1  -1  207.58   28.10
   5   1  -1  209.98   25.70
   5   1  -1  182.48   21.30
  -5  -1   1  166.18   23.20
  -5  -1   1  166.48   22.10
  -5  -1   1  165.28   20.00
   6   1  -1  420.26   44.90
   6   1  -1  368.56   33.90
   6   1  -1  348.37   25.80
   6   1  -1  343.07   42.90
  -6  -1   1  270.77   33.30
  -6  -1   1  288.87   31.20
  -6  -1   1  312.47   35.40
   7   1  -1   10.20   23.30
   7   1  -1  -17.40   28.30
   7   1  -1   21.60   17.70
  -7  -1   1    0.30   15.60
  -7   1   0  307.37   37.60
   7  -1   0  370.16   37.80
   7  -1   0  389.36   63.39
   7  -1   0  333.07   47.60
  -6   1   0  490.35   45.10
  -6   1   0  447.46   40.00
   6  -1   0  578.14   56.49
   6  -1   0  579.24   43.60
   6  -1   0  575.34   51.29
  -5   1   0  685.63   58.49
  -5   1   0  853.61   59.09
  -5   1   0  742.73   59.09
  -5   1   0  718.93   53.89
   5  -1   0  798.92   63.49
   5  -1   0  887.91   61.99
   5  -1   0  771.12   52.99
   5  -1   0  809.22   56.29
  -4   1   0  159.18   17.50
  -4   1   0  140.09   21.30
  -4   1   0  134.19   17.50
  -4   1   0  148.59   13.80
  -4   1   0  111.79   18.60
   4  -1   0  163.28   16.60
   4  -1   0  182.38   23.10
   4  -1   0  153.68   19.10
   4  -1   0  158.48   13.40
  -3   1   0 1712.73  116.99
  -3   1   0 1594.14  115.39
  -3   1   0 1837.02  113.59
  -3   1   0 1641.74  115.69
  -3   1   0 1816.72  115.69
   3  -1   0 1742.33  114.09
   3  -1   0 1729.13  118.09
   3  -1   0 1887.11  113.39
   3  -1   0 1773.02  116.69
  -2   1   0    5.10    3.50
  -2   1   0    4.50    2.90
  -2   1   0    3.90    3.90
  -2   1   0    6.50    4.40
  -2   1   0    2.90    5.80
   2  -1   0    5.00    2.60
   2  -1   0    1.00    6.90
   2  -1   0    3.00    2.80
   2  -1   0    1.60    4.40
  -1   1   0 2592.54  155.18
  -1   1   0 2447.35  156.88
  -1   1   0 2379.06  155.58
  -1   1   0 2312.77  156.08
   1  -1   0 2562.04  155.08
   1  -1   0 2544.15  155.68
   1  -1   0 2208.78  156.08
   1   1   0 3326.37  202.18
   1   1   0 3337.37  203.38
   1   1   0 2961.20  202.98
   1   1   0 3652.53  201.58
  -1  -1   0 2831.22  202.68
  -1  -1   0 3267.37  201.88
  -1  -1   0 3069.99  203.38
  -1  -1   0 2834.02  201.58
   2   1   0  448.86   31.60
   2   1   0  384.06   31.60
   2   1   0  437.66   32.00
   2   1   0  468.65   28.20
  -2  -1   0  412.16   31.30
  -2  -1   0  383.16   32.50
  -2  -1   0  423.56   30.00
  -2  -1   0  442.86   31.20
   3   1   0    4.70    8.10
   3   1   0   20.30    3.90
   3   1   0   28.00    8.20
   3   1   0   50.29   13.20
  -3  -1   0   18.00    9.60
  -3  -1   0   32.00    8.60
  -3  -1   0   19.20    6.70
  -3  -1   0   24.70    6.90
  -3  -1   0   29.90    8.70
   4   1   0 1670.83  111.59
   4   1   0 1719.83  111.09
   4   1   0 1694.63  109.19
   4   1   0 1680.73  104.09
  -4  -1   0 1520.95  105.49
  -4  -1   0 1640.34  110.09
  -4  -1   0 1415.96  108.79
  -4  -1   0 1550.74  107.29
   5   1   0   42.10   17.60
   5   1   0   36.40   13.30
   5   1   0    6.10   14.20
  -5  -1   0   13.40    9.60
  -5  -1   0   17.40   15.80
  -5  -1   0   10.90   10.00
  -5  -1   0    6.10   11.40
   6   1   0  696.43   60.39
   6   1   0  788.42   63.29
  -6  -1   0  549.25   47.30
  -6  -1   0  565.74   52.29
  -6  -1   0  680.73   55.19
   7   1   0   72.79   20.70
   7   1   0  142.09   41.30
   7   1   0   87.39   28.00
  -7  -1   0   97.19   23.50
  -8   1   1   34.70   24.10
   8  -1  -1  122.59   43.00
   8  -1  -1   72.29   32.20
  -7   1   1  524.75   49.30
  -7   1   1  460.85   45.20
   7  -1  -1  579.04   65.19
   7  -1  -1  568.84   57.29
   7  -1  -1  595.84   46.70
  -6   1   1  197.48   25.60
  -6   1   1  215.38   31.60
  -6   1   1  151.78   23.30
   6  -1  -1  160.58   18.20
   6  -1  -1  216.98   33.80
   6  -1  -1  209.18   23.20
   6  -1  -1  260.47   35.90
   6  -1  -1  235.18   27.40
  -5   1   1  676.93   49.10
  -5   1   1  684.73   52.99
  -5   1   1  609.54   52.89
  -5   1   1  657.93   53.39
   5  -1  -1  731.33   55.79
   5  -1  -1  704.73   49.00
   5  -1  -1  749.42   48.10
   5  -1  -1  695.93   56.29
   5  -1  -1  682.93   50.79
  -4   1   1  136.49   16.70
  -4   1   1  111.89   19.70
  -4   1   1  144.49   17.20
  -4   1   1  129.89   13.50
   4  -1  -1  134.39   12.90
   4  -1  -1  132.59   13.60
   4  -1  -1  158.18   20.30
   4  -1  -1  145.19   16.90
   4  -1  -1  147.19   18.70
  -3   1   1 1390.26   95.89
  -3   1   1 1287.87   95.19
  -3   1   1 1428.66   93.49
  -3   1   1 1430.46   94.99
   3  -1  -1 1458.75   94.29
   3  -1  -1 1350.06   96.39
   3  -1  -1 1404.86   96.19
   3  -1  -1 1574.84   93.29
   3  -1  -1 1500.55   92.99
  -2   1   1 2226.18  155.48
  -2   1   1 2589.44  154.48
  -2   1   1 2476.65  154.98
  -2   1   1 2284.17  155.58
   2  -1  -1 2409.06  155.98
   2  -1  -1 2361.06  153.48
   2  -1  -1 2441.26  154.18
   2  -1  -1 2465.35  154.68
   2  -1  -1 2333.77  155.88
   1   1   1   33.90    7.30
   1   1   1   21.40    5.80
  -1  -1  -1   36.00    6.50
  -1  -1  -1    5.00    6.50
  -1  -1  -1   18.70    4.70
   2   1   1 1827.82  116.79
   2   1   1 1685.63  116.79
  -2  -1  -1 1592.14  115.99
  -2  -1  -1 1833.52  117.19
  -2  -1  -1 1914.41  116.09
  -2  -1  -1 1755.72  115.49
   3   1   1  627.04   46.80
   3   1   1  617.94   47.00
   3   1   1  633.84   44.90
  -3  -1  -1  615.94   47.10
  -3  -1  -1  571.64   45.30
  -3  -1  -1  671.43   45.80
  -3  -1  -1  633.74   44.80
   4   1   1  852.41   63.69
   4   1   1  847.02   59.39
   4   1   1  894.71   62.99
  -4  -1  -1  786.92   58.79
  -4  -1  -1  762.72   62.29
  -4  -1  -1  877.21   60.79
  -4  -1  -1  762.02   59.89
   5   1   1  849.41   63.99
   5   1   1  772.32   63.99
   5   1   1  785.02   58.59
  -5  -1  -1  642.84   62.49
  -5  -1  -1  748.93   58.09
  -5  -1  -1  816.92   60.29
   6   1   1   63.69   29.40
   6   1   1   53.59   19.80
  -6  -1  -1   41.20   15.30
  -6  -1  -1   27.00   24.60
   7   1   1  463.85   73.69
   7   1   1  284.77   54.19
   7   1   1  386.46   40.70
  -7  -1  -1  266.57   41.40
  -8   1   2   -6.80   21.40
   8  -1  -2   68.79   37.50
   8  -1  -2    1.50   30.30
   8  -1  -2   18.80   31.40
  -7   1   2  531.85   49.90
  -7   1   2  584.34   53.29
   7  -1  -2  641.84   48.70
   7  -1  -2  621.14   62.39
   7  -1  -2  616.14   60.49
  -6   1   2  469.05   40.20
  -6   1   2  373.36   40.40
  -6   1   2  346.97   35.80
   6  -1  -2  448.86   45.60
   6  -1  -2  474.35   39.90
   6  -1  -2  441.66   34.90
   6  -1  -2  451.25   44.00
   6  -1  -2  385.86   32.40
  -5   1   2  643.14   48.70
  -5   1   2  517.25   48.10
  -5   1   2  590.84   48.80
  -5   1   2  625.74   45.70
   5  -1  -2  632.94   47.80
   5  -1  -2  635.44   44.30
   5  -1  -2  606.04   50.69
   5  -1  -2  638.74   43.80
   5  -1  -2  629.54   50.19
  -4   1   2  894.81   66.09
  -4   1   2 1003.70   66.29
  -4   1   2  871.61   63.69
  -4   1   2  891.91   65.79
   4  -1  -2  955.60   65.79
   4  -1  -2  904.31   66.19
   4  -1  -2  933.21   62.79
   4  -1  -2  984.40   63.29
   4  -1  -2  983.90   67.89
  -3   1   2   18.70    9.20
  -3   1   2   31.20    7.00
  -3   1   2   39.70    8.60
  -3   1   2   22.30    6.10
   3  -1  -2   28.80    5.80
   3  -1  -2   15.00    5.50
   3  -1  -2   17.40    8.50
   3  -1  -2   27.40    9.20
  -2   1   2 2975.80  182.48
  -2   1   2 2671.03  183.18
  -2   1   2 2811.32  181.18
  -2   1   2 2939.11  182.48
  -2   1   2 2748.32  182.98
   2  -1  -2 2762.32  182.08
   2  -1  -2 3022.70  183.28
   2  -1  -2 2743.93  181.28
   2  -1  -2 2814.72  183.78
  -1   1   2  285.07   20.40
  -1   1   2  272.67   19.50
  -1   1   2  277.57   21.30
  -1   1   2  285.77   19.50
   1  -1  -2  304.67   21.60
   1  -1  -2  287.57   20.30
   1  -1  -2  282.77   19.70
   0   1   2 1745.13  109.99
   0   1   2 1659.33  109.79
   0   1   2 1855.91  109.79
   0  -1  -2 1591.84  109.79
   0  -1  -2 1748.03  109.39
   0  -1  -2 1654.83  111.69
   0  -1  -2 1655.73  109.69
   1   1   2  747.83   47.50
   1   1   2  655.93   46.40
   1   1   2  685.83   47.40
   1   1   2  655.73   45.40
   1   1   2  623.94   49.20
  -1  -1  -2  666.43   46.60
  -1  -1  -2  787.52   44.70
  -1  -1  -2  666.33   46.90
   2   1   2 1888.91  124.09
   2   1   2 1968.70  125.69
   2   1   2 1945.91  125.49
  -2  -1  -2 1913.41  124.19
  -2  -1  -2 1696.53  124.19
  -2  -1  -2 1985.20  123.89
  -2  -1  -2 1848.22  124.99
   3   1   2 1869.61  126.69
   3   1   2 1914.21  127.09
   3   1   2 1832.72  124.19
  -3  -1  -2 1885.91  124.59
  -3  -1  -2 1705.73  124.79
  -3  -1  -2 2066.39  125.39
  -3  -1  -2 1878.61  126.49
   4   1   2    8.00   10.10
   4   1   2    9.20    9.90
   4   1   2    8.50   15.40
  -4  -1  -2   -2.70   10.10
  -4  -1  -2    3.10    7.70
  -4  -1  -2  -12.80    8.30
  -4  -1  -2   -9.30   11.80
   5   1   2  953.00   79.19
   5   1   2  942.61   77.39
  -5  -1  -2  910.71   77.39
  -5  -1  -2 1095.09   74.09
   6   1   2   46.40   32.60
   6   1   2   55.89   22.60
  -6  -1  -2   44.60   15.30
  -6  -1  -2   42.50   27.30
   7   1   2  369.56   59.19
   7   1   2  324.77   47.60
  -7  -1  -2  253.17   41.40
  -8   1   3  304.57   47.20
  -8   1   3  250.67   47.30
   8  -1  -3  237.98   46.10
   8  -1  -3  260.47   48.20
   8  -1  -3  317.27   55.09
  -7   1   3   32.40   16.20
  -7   1   3   27.70   17.80
   7  -1  -3   18.40   21.00
   7  -1  -3   38.80   14.80
   7  -1  -3   80.49   25.40
  -6   1   3  822.02   61.99
  -6   1   3  706.13   61.29
  -6   1   3  676.63   58.19
   6  -1  -3  790.52   55.89
   6  -1  -3  891.71   67.69
   6  -1  -3  811.92   56.59
   6  -1  -3  741.23   61.49
   6  -1  -3  838.42   62.19
  -5   1   3   -3.20   13.80
  -5   1   3    9.40   12.40
  -5   1   3    1.90    8.60
  -5   1   3   10.00   10.10
   5  -1  -3   -6.30    6.30
   5  -1  -3   16.70   11.70
   5  -1  -3    0.40    7.00
   5  -1  -3    2.40   12.10
   5  -1  -3  -16.40   12.90
  -4   1   3 2051.69  137.59
  -4   1   3 1948.41  139.09
  -4   1   3 2233.88  139.59
  -4   1   3 1903.21  138.19
   4  -1  -3 2175.78  141.29
   4  -1  -3 2086.29  136.19
   4  -1  -3 2092.59  138.59
   4  -1  -3 2227.88  137.19
  -3   1   3  821.42   52.09
  -3   1   3  700.83   52.39
  -3   1   3  734.73   51.69
  -3   1   3  645.14   52.19
  -3   1   3  752.92   49.60
   3  -1  -3  775.42   51.09
   3  -1  -3  734.53   52.39
   3  -1  -3  725.73   49.90
   3  -1  -3  744.23   53.49
  -2   1   3 2457.35  157.78
  -2   1   3 2504.55  157.48
  -2   1   3 2523.45  157.08
  -2   1   3 2390.46  155.98
  -2   1   3 2332.87  157.98
   2  -1  -3 2235.68  158.18
   2  -1  -3 2529.65  156.18
  -1   1   3 2769.32  163.18
  -1   1   3 2383.56  164.48
  -1   1   3 2535.75  164.18
  -1   1   3 2310.57  162.98
   1  -1  -3 2614.74  163.38
   1  -1  -3 2747.72  163.08
   1  -1  -3 2208.28  164.68
   1  -1  -3 2735.73  164.08
   0   1   3  148.79   13.40
   0   1   3  149.49   15.30
   0   1   3  157.18   13.70
   0   1   3  136.89   12.90
   0  -1  -3  136.59   12.40
   0  -1  -3  138.59   17.60
   0  -1  -3  133.89   12.80
   0  -1  -3  173.78   12.80
   1   1   3 1798.22  118.89
   1   1   3 1745.83  120.09
   1   1   3 1940.41  120.49
   1   1   3 1794.42  119.29
  -1  -1  -3 1727.73  117.89
  -1  -1  -3 2050.89  117.89
  -1  -1  -3 1710.93  119.39
  -1  -1  -3 1841.32  119.49
   2   1   3   10.80    6.00
   2   1   3    3.50    8.20
   2   1   3   -2.20    7.40
  -2  -1  -3   10.80    7.10
  -2  -1  -3   -8.10    7.10
  -2  -1  -3   11.90    6.40
  -2  -1  -3    8.50    4.90
   3   1   3 1394.86  101.49
   3   1   3 1511.85  103.39
   3   1   3 1487.65   99.39
  -3  -1  -3 1526.35  101.89
  -3  -1  -3 1391.86   99.99
  -3  -1  -3 1439.46   99.89
  -3  -1  -3 1598.84  100.19
   4   1   3  333.17   31.70
   4   1   3  299.57   36.00
   4   1   3  299.17   27.80
  -4  -1  -3  262.57   31.90
  -4  -1  -3  311.87   28.00
  -4  -1  -3  226.98   29.30
  -4  -1  -3  260.17   29.20
   5   1   3  501.05   56.89
   5   1   3  496.45   50.09
  -5  -1  -3  526.95   44.30
  -5  -1  -3  507.65   53.99
   6   1   3  575.94   58.19
   6   1   3  581.34   68.09
  -6  -1  -3  567.24   49.40
  -6  -1  -3  429.86   59.89
  -8   1   4  360.46   50.29
   8  -1  -4  376.26   49.00
   8  -1  -4  415.86   57.29
  -7   1   4   50.49   18.90
  -7   1   4   18.20   18.20
   7  -1  -4   28.00   15.10
   7  -1  -4   46.60   21.10
   7  -1  -4   51.89   21.70
  -6   1   4  507.05   45.10
  -6   1   4  554.54   46.50
  -6   1   4  467.55   46.80
   6  -1  -4  530.85   46.20
   6  -1  -4  515.35   42.10
   6  -1  -4  609.84   52.39
   6  -1  -4  559.24   41.80
   6  -1  -4  532.85   51.19
  -5   1   4  582.84   50.09
  -5   1   4  664.43   50.09
  -5   1   4  597.14   48.70
   5  -1  -4  660.03   49.20
   5  -1  -4  635.74   46.60
   5  -1  -4  602.94   53.89
   5  -1  -4  667.43   53.19
   5  -1  -4  652.33   45.90
  -4   1   4  145.59   14.60
  -4   1   4  159.68   18.50
  -4   1   4  137.59   20.50
  -4   1   4  135.29   18.00
  -4   1   4  142.59   18.80
   4  -1  -4  179.88   21.30
   4  -1  -4  181.88   17.40
   4  -1  -4  148.99   15.30
   4  -1  -4  145.39   18.60
  -3   1   4 1667.33  110.89
  -3   1   4 1652.03  108.59
  -3   1   4 1717.83  110.79
  -3   1   4 1505.55  110.99
  -3   1   4 1568.04  110.59
   3  -1  -4 1641.04  112.39
   3  -1  -4 1847.82  110.69
   3  -1  -4 1685.13  108.89
  -2   1   4  136.49   16.40
  -2   1   4  166.08   14.40
  -2   1   4  143.29   17.80
  -2   1   4  170.18   16.10
  -2   1   4  166.98   13.60
  -2   1   4  190.18   17.30
   2  -1  -4  140.09   16.90
   2  -1  -4  186.28   15.60
   2  -1  -4  205.38   17.20
  -1   1   4 2234.98  157.88
  -1   1   4 2328.97  156.48
  -1   1   4 2609.24  158.28
  -1   1   4 2372.96  156.48
   1  -1  -4 2474.95  159.08
   1  -1  -4 2739.83  157.88
   1  -1  -4 2458.85  156.28
   1  -1  -4 2177.08  156.48
   0   1   4 1292.17   86.49
   0   1   4 1174.28   85.79
   0   1   4 1246.68   87.59
   0   1   4 1385.36   87.19
   0  -1  -4 1460.55   86.19
   0  -1  -4 1233.18   85.89
   0  -1  -4 1326.17   89.19
   0  -1  -4 1296.97   85.89
   1   1   4 1829.42  121.49
   1   1   4 1759.12  120.29
   1   1   4 1752.62  120.79
   1   1   4 1746.53  120.59
   1   1   4 1831.62  122.89
  -1  -1  -4 2087.69  118.99
  -1  -1  -4 1935.31  120.49
  -1  -1  -4 1686.63  120.19
  -1  -1  -4 1792.82  118.19
   2   1   4  632.84   55.49
   2   1   4  691.73   52.99
   2   1   4  624.04   50.99
   2   1   4  753.62   51.99
   2   1   4  750.52   54.49
  -2  -1  -4  748.23   52.39
  -2  -1  -4  799.02   50.79
  -2  -1  -4  804.32   48.80
  -2  -1  -4  746.23   52.69
   3   1   4  195.68   23.30
   3   1   4  219.48   27.80
   3   1   4  227.38   22.40
  -3  -1  -4  221.08   21.00
  -3  -1  -4  189.38   23.00
  -3  -1  -4  193.28   23.70
  -3  -1  -4  190.08   21.70
   4   1   4  836.92   65.89
   4   1   4  851.01   70.49
  -4  -1  -4  856.41   66.99
  -4  -1  -4  845.42   62.49
   5   1   4   -1.90   25.60
   5   1   4   15.20   17.30
  -5  -1  -4  -14.00   19.70
  -5  -1  -4   19.50   11.50
   6   1   4  660.93   75.79
   6   1   4  610.94   62.49
  -6  -1  -4  534.15   65.69
  -6  -1  -4  611.44   53.39
  -8   1   5  146.79   33.30
  -8   1   5  123.99   30.90
   8  -1  -5  159.68   34.80
   8  -1  -5  195.68   38.10
  -7   1   5  522.55   51.19
  -7   1   5  521.85   52.29
   7  -1  -5  553.04   58.19
   7  -1  -5  565.94   47.20
   7  -1  -5  584.64   51.39
  -6   1   5   18.20   12.10
  -6   1   5    6.00   18.10
  -6   1   5   35.80   17.40
   6  -1  -5   28.00   11.90
   6  -1  -5   29.00   17.30
   6  -1  -5   40.40   16.70
  -5   1   5  976.80   72.79
  -5   1   5 1054.09   73.89
  -5   1   5  906.01   72.19
   5  -1  -5  944.91   78.59
   5  -1  -5 1090.39   77.49
   5  -1  -5 1052.49   71.09
   5  -1  -5  928.11   70.89
   5  -1  -5 1063.39   69.79
  -4   1   5    6.20    9.10
  -4   1   5    9.90    4.60
  -4   1   5   14.70   10.00
  -4   1   5    4.10    8.80
  -4   1   5    2.10   11.40
  -4   1   5    1.50    5.70
   4  -1  -5   -0.80    9.60
   4  -1  -5   14.20    7.40
   4  -1  -5    9.00    8.30
  -3   1   5 1853.61  115.79
  -3   1   5 1791.22  115.49
  -3   1   5 1603.24  115.39
  -3   1   5 1630.84  112.99
  -3   1   5 1557.64  111.59
  -3   1   5 1666.43  115.39
   3  -1  -5 1689.33  116.79
   3  -1  -5 1755.52  113.29
   3  -1  -5 1980.80  115.59
  -2   1   5 1198.28   82.09
  -2   1   5 1185.68   81.69
  -2   1   5 1124.69   79.49
  -2   1   5 1252.17   81.59
  -2   1   5 1232.38   79.09
   2  -1  -5 1209.58   82.69
   2  -1  -5 1356.06   81.79
   2  -1  -5 1237.68   80.29
   2  -1  -5 1010.10   78.39
  -1   1   5 1707.93  116.49
  -1   1   5 1711.63  116.59
  -1   1   5 1963.60  119.19
  -1   1   5 1634.94  117.89
   1  -1  -5 2064.89  118.29
   1  -1  -5 1727.73  116.09
   1  -1  -5 1756.02  116.89
   1  -1  -5 1677.83  119.19
   0   1   5 2588.64  168.58
   0   1   5 2618.54  167.88
   0   1   5 2491.85  169.38
   0   1   5 2722.83  169.48
   0  -1  -5 2485.35  167.48
   0  -1  -5 2551.54  171.28
   0  -1  -5 2586.44  167.98
   1   1   5   26.50    8.00
   1   1   5   40.40   11.20
   1   1   5   26.50    9.60
   1   1   5   20.50   10.30
   1   1   5   28.30    8.60
  -1  -1  -5   39.20    8.30
  -1  -1  -5   28.40    5.80
  -1  -1  -5   27.60    7.80
  -1  -1  -5   15.00    7.50
   2   1   5 1290.07   87.69
   2   1   5 1217.28   91.59
   2   1   5 1271.57   88.89
   2   1   5 1264.67   90.69
  -2  -1  -5 1346.27   86.19
  -2  -1  -5 1229.88   88.29
  -2  -1  -5 1203.28   87.89
  -2  -1  -5 1420.56   84.79
   3   1   5   28.20   15.80
   3   1   5   22.90   18.00
   3   1   5   36.50   13.40
   3   1   5   38.50   11.80
  -3  -1  -5   41.90   14.10
  -3  -1  -5   42.00    7.40
  -3  -1  -5   44.60   10.60
   4   1   5 1008.10   72.99
   4   1   5  940.31   78.69
  -4  -1  -5  991.00   68.39
  -4  -1  -5  754.42   71.69
   5   1   5  455.55   61.79
   5   1   5  506.45   51.49
  -5  -1  -5  509.55   44.20
  -5  -1  -5  499.05   54.69
   6   1   5  299.07   48.10
   6   1   5  261.07   51.19
  -6  -1  -5  228.18   44.20
  -6  -1  -5  273.57   34.80
  -8   1   6   17.40   23.10
  -8   1   6   11.30   27.30
   8  -1  -6  -26.40   31.30
  -7   1   6  410.16   42.60
  -7   1   6  357.96   45.50
   7  -1  -6  405.26   39.70
   7  -1  -6  306.87   41.60
   7  -1  -6  443.06   52.99
  -6   1   6  193.38   28.40
  -6   1   6  174.88   31.90
  -6   1   6  227.98   33.10
   6  -1  -6  178.68   36.10
   6  -1  -6  189.38   25.60
   6  -1  -6  256.67   36.70
  -5   1   6  572.54   50.29
  -5   1   6  616.04   45.70
  -5   1   6  632.04   51.09
  -5   1   6  631.54   50.69
  -5   1   6  610.34   43.00
   5  -1  -6  677.23   47.40
   5  -1  -6  669.23   54.99
  -4   1   6  431.16   39.00
  -4   1   6  430.66   38.00
  -4   1   6  439.76   38.40
  -4   1   6  485.15   39.20
  -4   1   6  459.75   34.60
  -4   1   6  466.25   32.30
   4  -1  -6  470.55   41.20
   4  -1  -6  447.86   37.70
   4  -1  -6  479.25   35.90
  -3   1   6  299.57   29.50
  -3   1   6  277.77   22.10
  -3   1   6  261.87   26.20
  -3   1   6  298.37   27.30
  -3   1   6  301.37   24.20
  -3   1   6  291.57   27.10
   3  -1  -6  295.37   24.70
   3  -1  -6  329.47   26.50
   3  -1  -6  265.87   27.30
  -2   1   6 2413.26  154.78
  -2   1   6 2237.28  155.08
  -2   1   6 2177.88  157.08
  -2   1   6 2228.08  156.78
  -2   1   6 2581.94  158.58
   2  -1  -6 2267.37  158.28
   2  -1  -6 2759.72  157.78
   2  -1  -6 2399.46  155.68
  -1   1   6    0.50    5.70
  -1   1   6    6.70    7.40
  -1   1   6   12.30    6.60
  -1   1   6   -1.60    7.00
   1  -1  -6   -0.30    5.30
   1  -1  -6    5.50    6.20
   1  -1  -6    4.30    8.10
   1  -1  -6   18.70    8.00
   0   1   6 1840.52  124.79
   0   1   6 1890.41  124.29
   0   1   6 1907.21  125.19
   0   1   6 1807.62  123.09
   0  -1  -6 1769.72  122.69
   0  -1  -6 2115.89  123.69
   0  -1  -6 1812.22  123.09
   0  -1  -6 1735.23  126.69
   1   1   6  418.86   35.30
   1   1   6  388.96   36.00
   1   1   6  448.56   37.70
   1   1   6  467.65   35.90
   1   1   6  419.96   37.80
  -1  -1  -6  445.96   35.10
  -1  -1  -6  418.16   35.30
  -1  -1  -6  462.25   34.00
  -1  -1  -6  482.35   31.80
   2   1   6  983.90   70.99
   2   1   6  936.31   74.09
   2   1   6 1017.40   74.19
   2   1   6  917.71   70.09
  -2  -1  -6 1006.10   71.09
  -2  -1  -6 1018.00   67.59
  -2  -1  -6  902.41   70.59
  -2  -1  -6 1076.49   66.99
   3   1   6  840.32   68.79
   3   1   6  715.43   68.19
   3   1   6  832.92   63.19
  -3  -1  -6  871.71   59.99
  -3  -1  -6  807.82   54.89
  -3  -1  -6  834.62   64.09
   4   1   6  220.28   33.10
   4   1   6  124.49   32.70
  -4  -1  -6  160.68   27.40
  -4  -1  -6  176.08   23.20
   5   1   6  589.94   57.79
   5   1   6  592.44   71.69
  -5  -1  -6  610.74   63.19
  -5  -1  -6  577.44   50.09
  -8   1   7  186.18   37.20
  -8   1   7  193.68   36.80
   8  -1  -7  206.28   43.20
  -7   1   7   86.49   13.00
  -7   1   7   75.99   20.70
  -7   1   7   94.49   26.80
   7  -1  -7   70.69   20.80
   7  -1  -7   85.29   28.00
  -6   1   7  671.53   55.19
  -6   1   7  633.94   55.79
  -6   1   7  623.74   45.70
  -6   1   7  619.54   57.89
   6  -1  -7  696.83   51.99
   6  -1  -7  735.03   63.29
  -5   1   7  107.49   13.10
  -5   1   7  129.39   22.50
  -5   1   7  126.89   22.80
  -5   1   7  128.59   17.50
  -5   1   7   97.09   18.90
   5  -1  -7  115.99   20.30
   5  -1  -7  114.89   24.00
  -4   1   7  576.64   42.70
  -4   1   7  638.14   50.19
  -4   1   7  571.24   49.90
  -4   1   7  632.24   45.30
  -4   1   7  563.94   48.70
  -4   1   7  605.14   51.39
   4  -1  -7  653.73   49.40
   4  -1  -7  665.43   47.20
   4  -1  -7  646.74   51.79
  -3   1   7   89.89   17.70
  -3   1   7   94.39   16.90
  -3   1   7   83.59   17.30
  -3   1   7   64.99   11.00
  -3   1   7   93.99   15.20
  -3   1   7   65.19   11.50
   3  -1  -7   89.29   16.50
   3  -1  -7  110.59   17.70
   3  -1  -7   65.09   13.70
  -2   1   7 1715.63  113.89
  -2   1   7 1556.04  111.59
  -2   1   7 1574.44  109.69
  -2   1   7 1592.24  109.39
   2  -1  -7 1805.72  112.29
   2  -1  -7 1651.43  110.79
   2  -1  -7 1516.55  113.19
   2  -1  -7 1807.62  109.29
  -1   1   7  710.83   52.19
  -1   1   7  678.23   53.29
  -1   1   7  733.63   55.69
  -1   1   7  678.83   51.89
   1  -1  -7  770.72   56.39
   1  -1  -7  812.82   53.69
   1  -1  -7  741.13   51.29
   1  -1  -7  679.33   52.29
   0   1   7 1110.59   75.89
   0   1   7  987.80   75.49
   0   1   7 1002.90   74.09
   0   1   7 1170.38   77.49
   0  -1  -7 1057.79   73.59
   0  -1  -7 1104.59   74.69
   0  -1  -7  993.50   78.19
   0  -1  -7  958.70   69.79
   0  -1  -7 1246.38   74.89
   1   1   7 1135.99   77.19
   1   1   7  995.70   78.19
   1   1   7 1097.49   78.99
   1   1   7  961.90   76.19
   1   1   7 1106.49   78.99
  -1  -1  -7 1109.99   72.39
  -1  -1  -7 1080.09   76.49
  -1  -1  -7 1064.69   76.39
  -1  -1  -7 1197.58   75.19
   2   1   7  -11.40   14.30
   2   1   7   -3.10   15.00
   2   1   7    7.00   10.20
   2   1   7    2.30   15.00
  -2  -1  -7   11.30    8.10
  -2  -1  -7   -4.00    9.30
  -2  -1  -7   -1.40   10.90
   3   1   7 1237.98   88.39
   3   1   7 1165.48   93.09
  -3  -1  -7 1167.28   79.59
  -3  -1  -7 1231.78   84.19
  -3  -1  -7 1204.88   88.79
   4   1   7   46.60   19.10
   4   1   7   49.60   28.60
  -4  -1  -7   42.50   13.30
  -4  -1  -7   40.50   19.40
   5   1   7  356.76   56.49
   5   1   7  376.26   49.10
  -5  -1  -7  491.05   60.89
  -5  -1  -7  385.36   39.80
  -8   1   8  212.68   40.50
  -8   1   8  248.78   50.49
   8  -1  -8  164.78   44.00
  -7   1   8   52.69   25.40
  -7   1   8   -5.00   16.50
   7  -1  -8    6.70   21.10
   7  -1  -8  -25.80   26.40
  -6   1   8  577.84   51.19
  -6   1   8  541.95   52.89
  -6   1   8  508.85   39.70
   6  -1  -8  557.94   47.60
   6  -1  -8  610.94   58.49
  -5   1   8  673.63   59.69
  -5   1   8  736.13   60.49
  -5   1   8  638.04   52.99
  -5   1   8  650.43   49.10
  -5   1   8  745.83   59.29
   5  -1  -8  744.13   55.29
   5  -1  -8  848.42   65.09
  -4   1   8  333.37   37.10
  -4   1   8  381.86   40.70
  -4   1   8  340.47   30.40
  -4   1   8  359.76   36.70
  -4   1   8  321.07   27.20
   4  -1  -8  389.16   33.00
   4  -1  -8  347.87   37.20
  -3   1   8  793.72   61.79
  -3   1   8  799.62   60.19
  -3   1   8  747.93   62.19
  -3   1   8  748.13   62.29
  -3   1   8  827.52   56.09
  -3   1   8  759.12   57.09
   3  -1  -8  801.82   62.39
   3  -1  -8  905.51   59.89
  -2   1   8   73.79   12.70
  -2   1   8   60.89   13.20
  -2   1   8   83.79   13.40
  -2   1   8   93.79   17.90
   2  -1  -8   84.39   15.70
   2  -1  -8   73.49   11.90
   2  -1  -8   78.49   14.50
   2  -1  -8   55.19   15.10
  -1   1   8 1247.08   89.79
  -1   1   8 1344.77   90.79
  -1   1   8 1258.37   91.19
  -1   1   8 1273.37   93.59
   1  -1  -8 1304.27   94.59
   1  -1  -8 1459.25   91.69
   1  -1  -8 1272.07   90.29
   1  -1  -8 1333.37   89.19
   0   1   8    8.10   11.70
   0   1   8   11.00   11.80
   0   1   8    4.10   13.10
   0   1   8   -7.90   10.00
   0  -1  -8   -2.00   13.40
   0  -1  -8   13.20   10.80
   0  -1  -8   -1.90   10.90
   0  -1  -8    3.80    4.80
   0  -1  -8    8.80   10.90
   1   1   8 1334.37  106.69
   1   1   8 1458.05  107.49
   1   1   8 1395.36  106.39
   1   1   8 1593.34  105.29
  -1  -1  -8 1565.74  105.39
  -1  -1  -8 1535.25  100.09
  -1  -1  -8 1691.63  103.29
   2   1   8  546.35   45.30
   2   1   8  512.55   51.49
   2   1   8  497.25   52.29
  -2  -1  -8  545.65   46.90
  -2  -1  -8  517.85   41.30
  -2  -1  -8  556.44   41.10
   3   1   8  566.64   51.09
   3   1   8  542.35   57.39
  -3  -1  -8  540.85   44.60
  -3  -1  -8  579.44   51.79
   4   1   8  563.14   54.79
   4   1   8  521.65   67.39
  -4  -1  -8  546.55   47.30
  -4  -1  -8  612.24   58.49
  -7   1   9  292.47   46.20
  -7   1   9  209.88   38.00
   7  -1  -9  170.18   40.70
   7  -1  -9  177.58   30.80
  -6   1   9  202.68   23.00
  -6   1   9  264.37   35.60
  -6   1   9  239.08   38.60
   6  -1  -9  298.27   46.30
   6  -1  -9  262.27   37.00
  -5   1   9  479.75   45.70
  -5   1   9  423.16   35.30
  -5   1   9  409.56   46.60
  -5   1   9  497.85   50.79
   5  -1  -9  549.95   51.19
   5  -1  -9  472.75   42.90
  -4   1   9    6.00   17.90
  -4   1   9   51.89   18.40
  -4   1   9   32.60   10.20
  -4   1   9   26.30   20.50
   4  -1  -9   18.30   15.20
   4  -1  -9   24.70   16.70
  -3   1   9  918.61   70.09
  -3   1   9  834.72   66.49
  -3   1   9  747.23   67.39
  -3   1   9  886.71   62.09
   3  -1  -9  905.51   69.29
   3  -1  -9  983.30   65.99
  -2   1   9  180.28   30.80
  -2   1   9  202.08   23.90
  -2   1   9  228.18   27.80
   2  -1  -9  277.77   31.10
   2  -1  -9  233.48   27.00
   2  -1  -9  252.17   23.80
  -1   1   9  925.51   65.19
  -1   1   9  853.41   67.99
  -1   1   9  790.62   64.79
   1  -1  -9  929.71   70.59
   1  -1  -9  826.02   57.69
   1  -1  -9  863.71   64.39
   1  -1  -9  858.31   63.49
   1  -1  -9  933.61   65.29
   0   1   9 1013.90   70.79
   0   1   9  850.71   68.69
   0   1   9  845.22   70.59
   0  -1  -9  884.31   67.59
   0  -1  -9  952.30   67.09
   0  -1  -9  954.40   60.59
   0  -1  -9  814.22   72.89
   1   1   9  166.48   27.60
   1   1   9  144.39   25.90
   1   1   9  219.38   26.10
   1   1   9  216.08   31.70
  -1  -1  -9  195.18   25.60
  -1  -1  -9  190.98   27.70
  -1  -1  -9  199.88   19.10
   2   1   9  501.95   54.69
   2   1   9  567.34   48.80
  -2  -1  -9  584.64   43.70
  -2  -1  -9  529.15   45.80
  -2  -1  -9  605.84   51.19
   3   1   9  -36.80   24.70
   3   1   9   17.70   17.40
  -3  -1  -9   45.00   20.40
  -3  -1  -9   -1.20   11.90
   4   1   9  645.54   79.99
   4   1   9  849.02   71.29
  -4  -1  -9  787.62   61.29
  -4  -1  -9  796.82   72.49
  -7   1  10  329.77   51.99
  -7   1  10  284.57   44.00
   7  -1 -10  348.77   61.79
   7  -1 -10  276.57   46.30
  -6   1  10   61.29   15.10
  -6   1  10   87.59   24.70
  -6   1  10   83.79   27.30
   6  -1 -10   30.30   21.50
   6  -1 -10  104.69   31.20
  -5   1  10  835.22   78.69
  -5   1  10  635.04   61.99
  -5   1  10  639.64   60.99
  -5   1  10  630.54   50.59
   5  -1 -10  730.73   59.69
   5  -1 -10  781.62   67.19
  -4   1  10  274.97   27.10
  -4   1  10  280.47   39.20
  -4   1  10  255.67   39.80
  -4   1  10  344.27   47.10
   4  -1 -10  247.58   41.60
   4  -1 -10  313.07   36.70
  -3   1  10  407.46   36.80
  -3   1  10  435.56   47.00
   3  -1 -10  463.05   43.20
   3  -1 -10  390.36   46.00
   3  -1 -10  482.45   37.00
  -2   1  10  671.73   49.70
  -2   1  10  604.84   52.49
  -2   1  10  582.64   56.69
   2  -1 -10  652.93   56.49
   2  -1 -10  530.95   50.29
  -1   1  10   44.80   18.00
  -1   1  10  100.89   25.00
  -1   1  10   74.29   19.70
   1  -1 -10   70.59   22.00
   1  -1 -10  110.39   19.50
   0   1  10 1219.88   94.09
   0   1  10 1168.88   90.79
   0   1  10 1310.07   91.89
   0  -1 -10 1213.98   95.19
   0  -1 -10 1237.08   88.69
   0  -1 -10 1213.78   87.99
   1   1  10   -3.40   18.90
   1   1  10   -3.40   21.80
   1   1  10   10.90   13.60
  -1  -1 -10  -17.10   13.70
  -1  -1 -10   17.60   13.50
   2   1  10  486.95   62.29
   2   1  10  604.84   54.59
   2   1  10  555.64   61.39
  -2  -1 -10  676.63   57.19
   3   1  10  456.35   47.80
   3   1  10  353.96   52.99
  -3  -1 -10  429.96   51.69
  -6   1  11  241.98   44.70
  -6   1  11  198.08   35.20
   6  -1 -11  162.78   31.30
   6  -1 -11  242.48   41.60
  -5   1  11  107.79   30.20
  -5   1  11  159.98   24.30
  -5   1  11  198.68   35.90
   5  -1 -11  127.89   26.00
   5  -1 -11  174.18   33.90
  -4   1  11  596.44   59.69
  -4   1  11  619.74   66.69
  -4   1  11  596.74   49.10
   4  -1 -11  697.53   63.29
   4  -1 -11  639.24   55.49
  -3   1  11   33.50   33.10
  -3   1  11    0.30   20.50
  -3   1  11   49.90   16.10
   3  -1 -11   60.89   19.40
   3  -1 -11   72.19   26.70
  -2   1  11  741.13   69.09
  -2   1  11  753.82   62.79
   2  -1 -11  844.92   63.29
   2  -1 -11  801.42   70.69
  -1   1  11  348.77   40.90
  -1   1  11  363.96   49.20
   1  -1 -11  383.96   49.30
   1  -1 -11  384.36   38.60
   0   1  11  537.55   52.79
   0   1  11  449.36   56.39
   0   1  11  546.05   47.20
   0  -1 -11  531.45   48.40
   1   1  11  374.76   49.80
   1   1  11  376.26   42.20
   1   1  11  369.96   56.59
  -1  -1 -11  433.76   44.70
   2   1  11   92.09   32.10
   2   1  11   78.49   23.70
  -6   1  12  291.67   53.29
  -6   1  12  328.07   55.09
   6  -1 -12  271.57   48.10
  -5   1  12   34.40   26.50
  -5   1  12   35.00   29.50
  -5   1  12   17.80   17.60
   5  -1 -12   21.20   22.50
   5  -1 -12  -31.10   28.30
  -4   1  12  465.75   58.59
  -4   1  12  471.15   45.50
   4  -1 -12  539.65   51.59
   4  -1 -12  519.45   62.19
  -3   1  12  256.27   44.50
  -3   1  12  214.18   34.70
   3  -1 -12  249.18   36.80
   3  -1 -12  281.37   42.50
  -2   1  12  211.68   39.30
  -2   1  12  200.88   35.40
   2  -1 -12  210.28   39.70
   2  -1 -12  253.37   34.40
  -1   1  12  704.83   74.09
  -1   1  12  832.72   68.69
   1  -1 -12  859.41   65.69
   1  -1 -12  749.82   78.49
   0   1  12   95.99   24.10
   0   1  12   69.49   28.60
   0   1  12  125.19   36.90
   0  -1 -12   93.99   22.50
   1   1  12  657.73   69.09
   1   1  12  751.42   61.19
   1   1  12  547.85   79.19
  -1  -1 -12  763.22   64.29
  -5   1  13  239.28   43.90
   5  -1 -13  238.98   36.70
   5  -1 -13  363.06   63.69
  -4   1  13   55.79   23.10
  -4   1  13   65.69   31.40
   4  -1 -13   30.30   33.30
   4  -1 -13   54.29   24.40
  -3   1  13  563.64   55.09
  -3   1  13  566.84   68.59
   3  -1 -13  573.94   69.89
   3  -1 -13  677.23   57.79
  -2   1  13   -3.50   30.70
  -2   1  13   14.70   22.20
   2  -1 -13   -3.70   19.40
  -1   1  13  554.44   67.59
  -1   1  13  509.65   58.79
   1  -1 -13  591.74   72.69
   1  -1 -13  590.74   53.99
   0   1  13  343.77   66.69
   0   1  13  438.56   54.79
   0   1  13  376.46   49.10
   0  -1 -13  492.55   51.09
  -3   1  14  355.46   48.20
  -3   1  14  272.27   49.00
   3  -1 -14  423.06   67.89
   3  -1 -14  289.17   47.00
  -2   1  14  284.07   49.10
   2  -1 -14  269.97   47.60
   2  -1 -14  270.47   46.30
   1   2 -14  386.96   65.29
  -1  -2  14  376.26   57.39
   2   2 -14   75.09   26.30
  -2  -2  14   41.00   39.70
  -2  -2  14   55.39   30.40
   3   2 -14  383.16   55.99
  -3  -2  14  576.34   77.49
  -1   2 -13  720.23   62.09
   1  -2  13  509.95   70.69
   1  -2  13  523.55   89.79
   0   2 -13   54.29   22.10
   0  -2  13   22.90   29.60
   0  -2  13   53.79   42.10
   1   2 -13  337.87   44.50
  -1  -2  13  310.37   53.19
  -1  -2  13  373.96   49.70
   2   2 -13  143.49   28.70
   2   2 -13  115.49   30.80
  -2  -2  13   71.09   46.00
  -2  -2  13  120.59   30.70
  -2  -2  13   76.59   35.90
   3   2 -13  262.17   37.90
  -3  -2  13  190.08   42.00
  -3  -2  13  288.37   43.40
   4   2 -13  228.18   37.80
   4   2 -13  135.89   31.00
  -4  -2  13  217.98   45.40
  -4  -2  13   81.09   43.20
   5   2 -13   91.79   36.20
  -5  -2  13   97.19   39.10
  -5  -2  13   92.19   41.50
  -2   2 -12   -9.90   11.50
  -2   2 -12   43.90   22.30
   2  -2  12   37.30   33.80
   2  -2  12   -5.00   48.00
  -1   2 -12  649.54   49.99
  -1   2 -12  699.53   60.49
   1  -2  12  599.54   80.39
   1  -2  12  650.43   68.19
   0   2 -12  163.88   21.70
   0   2 -12  159.38   27.70
   0  -2  12  164.68   41.90
   0  -2  12  191.68   34.00
   0  -2  12  141.39   26.00
   1   2 -12  255.67   36.40
   1   2 -12  266.07   36.60
  -1  -2  12  203.68   33.30
  -1  -2  12  181.88   45.70
  -1  -2  12  135.49   39.00
   2   2 -12  620.54   56.89
   2   2 -12  614.24   55.49
  -2  -2  12  621.04   55.29
  -2  -2  12  534.25   65.79
   3   2 -12  102.89   26.50
  -3  -2  12  105.39   22.10
  -3  -2  12  128.69   34.30
   4   2 -12  605.34   59.99
   4   2 -12  442.36   52.69
  -4  -2  12  429.86   63.49
   5   2 -12  -16.60   24.70
   5   2 -12   21.50   30.10
  -5  -2  12   -8.50   31.60
  -5  -2  12   61.09   31.20
  -3   2 -11  343.87   34.20
   3  -2  11  360.46   60.59
  -2   2 -11  899.11   71.89
  -2   2 -11  897.41   63.69
   2  -2  11  768.72   78.59
   2  -2  11  827.42   92.49
  -1   2 -11   74.49   21.20
  -1   2 -11   94.89   15.50
   1  -2  11   99.29   16.80
   1  -2  11   33.70   34.40
   1  -2  11   97.19   29.60
   0   2 -11  620.54   54.19
   0   2 -11  702.73   48.30
   0  -2  11  631.04   48.40
   0  -2  11  593.44   60.59
   0  -2  11  538.55   66.89
   1   2 -11   14.50   17.20
   1   2 -11    7.70   14.30
  -1  -2  11   18.30   33.70
  -1  -2  11   -5.40   18.10
  -1  -2  11    4.30   14.20
  -1  -2  11    5.50   24.30
   2   2 -11  829.42   64.79
   2   2 -11  838.12   59.59
   2   2 -11  798.12   64.09
  -2  -2  11  786.92   61.59
  -2  -2  11  692.33   73.09
  -2  -2  11  744.63   59.59
   3   2 -11   40.20   19.50
   3   2 -11   52.29   13.50
   3   2 -11   88.89   21.50
  -3  -2  11   18.50   28.70
  -3  -2  11   47.00   17.80
  -3  -2  11   28.10   25.70
  -3  -2  11   66.59   17.30
   4   2 -11  453.25   50.89
   4   2 -11  402.86   44.80
  -4  -2  11  399.96   37.00
  -4  -2  11  392.16   52.29
  -4  -2  11  353.16   54.69
   5   2 -11  430.76   51.19
   5   2 -11  346.27   46.20
  -5  -2  11  264.67   47.70
  -5  -2  11  273.17   51.89
   6   2 -11   63.49   33.20
   6   2 -11   28.00   25.70
  -6  -2  11   54.89   29.50
  -6  -2  11   63.19   35.20
  -4   2 -10  595.74   62.89
  -4   2 -10  491.05   44.80
   4  -2  10  502.05   70.69
  -3   2 -10   54.69   13.70
  -3   2 -10   64.59   20.30
   3  -2  10   -2.00   31.00
   3  -2  10   59.09   19.00
  -2   2 -10  979.70   71.49
  -2   2 -10  887.41   64.59
   2  -2  10  888.11   65.09
   2  -2  10  922.01   78.69
   2  -2  10  784.12   84.79
  -1   2 -10   50.49   18.00
  -1   2 -10   32.50   10.10
   1  -2  10   11.90   26.60
   1  -2  10   27.90   15.00
   1  -2  10   20.10   11.10
   1  -2  10   47.80   22.60
   0   2 -10  413.26   39.00
   0   2 -10  346.57   36.50
   0  -2  10  388.66   34.80
   0  -2  10  341.87   48.90
   0  -2  10  455.35   44.00
   0  -2  10  317.17   52.59
   1   2 -10  567.94   47.10
   1   2 -10  674.23   51.49
   1   2 -10  617.84   49.50
  -1  -2  10  642.44   50.49
  -1  -2  10  559.64   45.80
  -1  -2  10  435.76   63.79
  -1  -2  10  597.34   59.69
   2   2 -10  177.08   21.80
   2   2 -10  217.08   27.70
   2   2 -10  183.38   30.20
  -2  -2  10  106.89   35.90
  -2  -2  10  177.78   35.00
  -2  -2  10  175.38   25.20
  -2  -2  10  178.68   25.00
   3   2 -10  709.83   55.09
   3   2 -10  667.33   53.99
  -3  -2  10  614.54   62.89
  -3  -2  10  629.04   48.70
  -3  -2  10  593.64   51.49
   4   2 -10    8.60   18.30
   4   2 -10   16.30   17.90
  -4  -2  10   24.80   19.60
  -4  -2  10   23.10   22.60
  -4  -2  10   19.90   12.10
  -4  -2  10   50.69   23.10
   5   2 -10  425.76   45.70
   5   2 -10  490.05   51.79
  -5  -2  10  319.07   52.39
  -5  -2  10  379.06   49.10
   6   2 -10  -10.20   27.50
   6   2 -10    2.80   23.10
  -6  -2  10    3.30   23.30
  -6  -2  10   17.20   30.30
   7   2 -10  154.08   33.20
  -7  -2  10  143.99   41.20
  -7  -2  10  142.29   41.40
  -4   2  -9  715.33   63.39
  -4   2  -9  560.14   48.40
   4  -2   9  607.54   53.49
   4  -2   9  530.05   67.59
  -3   2  -9  155.48   21.10
   3  -2   9  174.68   25.10
   3  -2   9  204.48   38.00
  -2   2  -9  550.14   55.69
  -2   2  -9  692.73   48.50
  -2   2  -9  705.33   54.19
   2  -2   9  537.35   64.59
   2  -2   9  629.34   52.39
   2  -2   9  686.43   48.60
   2  -2   9  637.44   60.69
  -1   2  -9 1264.57   92.99
  -1   2  -9 1379.66   86.09
  -1   2  -9 1077.79   88.59
   1  -2   9 1304.17   84.89
   1  -2   9 1332.87   94.59
   1  -2   9 1240.58   86.69
   1  -2   9 1135.89   96.69
   0   2  -9  594.64   48.70
   0   2  -9  566.54   53.39
   0   2  -9  565.04   46.70
   0   2  -9  598.04   48.70
   0  -2   9  609.34   44.60
   0  -2   9  550.94   60.89
   0  -2   9  667.23   51.59
   1   2  -9  754.62   53.09
   1   2  -9  736.63   54.89
   1   2  -9  741.43   56.59
  -1  -2   9  732.53   55.59
  -1  -2   9  689.33   51.99
  -1  -2   9  639.44   61.19
   2   2  -9   54.99   13.40
   2   2  -9   50.49   15.50
   2   2  -9   64.49   11.60
  -2  -2   9   29.50   24.60
  -2  -2   9   36.20   12.50
  -2  -2   9   53.69   13.40
  -2  -2   9   75.49   21.80
   3   2  -9  996.50   66.59
   3   2  -9  899.01   65.59
  -3  -2   9  821.72   59.89
  -3  -2   9  863.41   63.29
  -3  -2   9  829.92   72.39
  -3  -2   9  724.23   72.39
   4   2  -9  177.48   29.50
   4   2  -9  191.78   30.50
  -4  -2   9  123.89   28.20
  -4  -2   9  175.98   30.80
  -4  -2   9  155.48   20.30
  -4  -2   9  170.38   24.10
   5   2  -9  274.47   35.70
   5   2  -9  288.17   40.80
  -5  -2   9  196.78   37.60
  -5  -2   9  223.18   42.80
   6   2  -9  437.16   45.30
   6   2  -9  460.65   53.79
  -6  -2   9  338.97   47.70
  -6  -2   9  380.86   55.19
   7   2  -9    8.60   33.10
   7   2  -9  -21.50   23.50
  -7  -2   9   54.79   31.20
  -7  -2   9   42.30   32.80
  -5   2  -8  359.16   48.20
  -5   2  -8  277.47   32.30
   5  -2   8  324.47   52.29
   5  -2   8  275.17   42.80
  -4   2  -8  242.58   39.20
  -4   2  -8  151.68   21.20
   4  -2   8  154.78   35.30
   4  -2   8  180.48   28.70
  -3   2  -8  739.73   54.19
  -3   2  -8  703.03   59.89
  -3   2  -8  808.02   59.29
   3  -2   8  736.53   54.69
   3  -2   8  671.93   59.99
   3  -2   8  695.23   67.39
  -2   2  -8    7.90   11.60
  -2   2  -8    8.30   16.90
  -2   2  -8    3.00    7.10
   2  -2   8    0.90    8.00
   2  -2   8  -32.20   17.50
   2  -2   8    4.80   13.50
   2  -2   8  -16.70   20.70
  -1   2  -8 2018.10  130.19
  -1   2  -8 1957.50  127.39
  -1   2  -8 1762.02  130.39
  -1   2  -8 2020.30  133.29
   1  -2   8 1896.71  127.49
   1  -2   8 1874.51  126.29
   1  -2   8 1923.41  133.29
   0   2  -8  200.58   23.10
   0   2  -8  223.38   30.30
   0   2  -8  212.28   25.00
   0   2  -8  224.98   24.00
   0  -2   8  163.48   30.30
   0  -2   8  164.68   34.00
   0  -2   8  229.38   27.20
   0  -2   8  176.38   20.00
   0  -2   8  184.68   22.70
   1   2  -8  528.95   42.50
   1   2  -8  563.74   46.50
   1   2  -8  582.54   41.10
   1   2  -8  498.35   38.90
  -1  -2   8  547.75   38.60
  -1  -2   8  526.55   41.00
  -1  -2   8  416.96   46.20
  -1  -2   8  423.76   39.10
   2   2  -8  826.72   57.69
   2   2  -8  862.31   54.09
   2   2  -8  851.11   58.39
   2   2  -8  833.32   62.29
  -2  -2   8  714.93   55.29
  -2  -2   8  675.33   55.79
  -2  -2   8  730.53   63.59
  -2  -2   8  724.13   54.79
   3   2  -8  581.14   46.30
   3   2  -8  654.43   47.40
  -3  -2   8  547.35   54.29
  -3  -2   8  560.94   53.29
  -3  -2   8  639.84   45.60
  -3  -2   8  531.25   44.90
  -3  -2   8  525.35   44.70
  -3  -2   8  553.04   41.30
   4   2  -8  916.21   68.89
   4   2  -8  994.30   67.59
  -4  -2   8  836.92   73.59
  -4  -2   8  849.72   72.59
  -4  -2   8  868.51   66.89
   5   2  -8   13.80   15.50
   5   2  -8   24.40   19.80
  -5  -2   8   18.10   17.30
  -5  -2   8   -6.10   20.60
   6   2  -8  267.27   37.40
  -6  -2   8  202.78   36.80
  -6  -2   8  245.18   37.90
   7   2  -8   56.69   24.70
   7   2  -8   79.99   30.90
  -7  -2   8   68.99   29.40
  -7  -2   8   23.30   30.90
  -5   2  -7  580.34   54.49
  -5   2  -7  507.95   44.00
   5  -2   7  453.85   65.79
   5  -2   7  477.25   50.19
  -4   2  -7   -4.40   19.60
  -4   2  -7   -6.70    8.00
  -4   2  -7   -2.30    8.10
  -4   2  -7   17.30   15.90
   4  -2   7   18.20   22.50
   4  -2   7   -7.70   12.70
   4  -2   7   16.00   23.40
  -3   2  -7  825.72   65.59
  -3   2  -7  834.42   59.79
  -3   2  -7  848.02   62.29
   3  -2   7  831.02   70.79
   3  -2   7  795.52   59.59
   3  -2   7  833.32   65.19
  -2   2  -7  333.97   31.40
  -2   2  -7  450.85   35.40
  -2   2  -7  435.86   40.30
   2  -2   7  421.66   35.70
   2  -2   7  410.46   42.60
   2  -2   7  394.36   31.20
   2  -2   7  421.06   35.80
   2  -2   7  411.06   45.00
  -1   2  -7 1078.99   72.09
  -1   2  -7 1111.59   78.19
  -1   2  -7 1063.69   74.39
  -1   2  -7 1036.80   75.29
   1  -2   7 1082.69   77.59
   1  -2   7  885.41   79.39
   1  -2   7 1124.69   71.39
   1  -2   7 1025.80   73.59
   1  -2   7 1089.09   72.19
   0   2  -7 1231.28   84.09
   0   2  -7 1288.37   88.19
   0   2  -7 1384.56   85.59
   0   2  -7 1271.27   84.39
   0  -2   7 1171.98   81.49
   0  -2   7 1219.88   85.49
   0  -2   7 1213.08   83.49
   0  -2   7 1021.20   88.59
   1   2  -7   20.70   12.80
   1   2  -7   28.30    9.00
   1   2  -7   14.20    8.70
   1   2  -7   34.40    8.90
  -1  -2   7   10.30    8.90
  -1  -2   7   16.70   14.40
  -1  -2   7   33.20   22.50
  -1  -2   7   27.60    7.30
  -1  -2   7   16.60    7.20
   2   2  -7 1140.89   74.49
   2   2  -7 1101.39   66.89
   2   2  -7  999.60   70.39
   2   2  -7 1074.49   70.29
  -2  -2   7  947.11   68.59
  -2  -2   7  960.10   75.49
  -2  -2   7  835.22   76.39
  -2  -2   7  983.10   69.09
  -2  -2   7  931.51   67.49
   3   2  -7   70.89   12.70
   3   2  -7   79.39   18.40
   3   2  -7   68.79   13.50
  -3  -2   7   52.19   11.10
  -3  -2   7   47.00   11.40
  -3  -2   7   90.09   20.00
  -3  -2   7   64.69    9.20
  -3  -2   7   40.30   10.10
  -3  -2   7   40.80   18.30
   4   2  -7 1281.07   85.29
   4   2  -7 1330.67   82.79
  -4  -2   7 1121.69   87.99
  -4  -2   7 1088.99   82.09
  -4  -2   7 1081.59   80.89
  -4  -2   7 1060.39   86.19
   5   2  -7  294.07   37.70
   5   2  -7  253.67   31.80
  -5  -2   7  274.27   38.40
  -5  -2   7  262.57   34.80
   6   2  -7  126.09   23.30
   6   2  -7  124.89   27.40
  -6  -2   7   88.69   22.70
  -6  -2   7  109.39   29.30
   7   2  -7  254.27   40.30
   7   2  -7  297.67   51.59
  -7  -2   7  151.18   35.90
  -7  -2   7  205.88   41.60
  -6   2  -6  101.79   32.00
  -6   2  -6   72.99   17.80
   6  -2   6  107.49   37.60
   6  -2   6  136.39   28.90
  -5   2  -6  417.96   32.50
  -5   2  -6  413.26   47.70
  -5   2  -6  414.26   37.80
   5  -2   6  444.86   42.90
   5  -2   6  438.56   57.99
  -4   2  -6  983.30   80.09
  -4   2  -6 1147.79   72.99
  -4   2  -6 1123.49   77.09
  -4   2  -6 1155.98   80.09
   4  -2   6 1027.60   84.39
   4  -2   6 1028.00   87.69
   4  -2   6 1047.20   77.29
  -3   2  -6  220.78   20.80
  -3   2  -6  196.58   29.50
  -3   2  -6  185.48   22.80
   3  -2   6  204.78   34.60
   3  -2   6  206.68   21.00
   3  -2   6  258.37   30.40
   3  -2   6  147.79   23.80
  -2   2  -6 1378.66   98.49
  -2   2  -6 1450.25   95.19
  -2   2  -6 1440.06   93.99
  -2   2  -6 1366.36   97.29
   2  -2   6 1397.36   93.09
   2  -2   6 1436.46  100.19
   2  -2   6 1420.36   95.49
   2  -2   6 1259.77  101.49
   2  -2   6 1413.56   94.89
  -1   2  -6    2.20    6.60
  -1   2  -6    3.70    5.10
  -1   2  -6   -7.10    8.20
  -1   2  -6    0.90   10.60
   1  -2   6    8.70   16.40
   1  -2   6    2.60    5.60
   1  -2   6    3.20    5.20
   1  -2   6    2.70    6.80
   1  -2   6   -8.30    8.80
   1  -2   6  -12.20   11.40
   0   2  -6 2017.40  130.59
   0   2  -6 2051.39  126.89
   0   2  -6 2010.30  126.59
   0   2  -6 2053.39  127.09
   0  -2   6 1797.72  134.59
   0  -2   6 1918.01  127.49
   0  -2   6 1853.91  124.29
   0  -2   6 1913.81  125.99
   0  -2   6 1592.44  129.99
   1   2  -6  195.08   22.40
   1   2  -6  164.08   17.00
   1   2  -6  133.99   14.60
   1   2  -6  134.69   16.00
  -1  -2   6  126.59   27.10
  -1  -2   6  141.99   15.90
  -1  -2   6  143.49   14.10
  -1  -2   6  145.79   15.80
  -1  -2   6  160.08   22.80
   2   2  -6 1243.78   77.79
   2   2  -6 1077.59   73.89
   2   2  -6 1114.69   73.89
  -2  -2   6  987.20   72.79
  -2  -2   6 1019.70   77.59
  -2  -2   6 1017.60   72.89
  -2  -2   6 1065.69   80.29
   3   2  -6 1235.98   82.19
   3   2  -6 1390.26   85.59
   3   2  -6 1242.78   83.59
  -3  -2   6 1128.09   81.79
  -3  -2   6 1117.09   87.69
  -3  -2   6 1114.49   85.79
  -3  -2   6 1120.99   80.89
   4   2  -6  173.08   24.90
   4   2  -6  187.28   21.90
   4   2  -6  200.58   25.30
  -4  -2   6  162.08   22.80
  -4  -2   6  179.78   20.80
  -4  -2   6  205.78   29.30
  -4  -2   6  181.38   27.80
   5   2  -6  931.21   66.89
   5   2  -6  930.61   65.49
   5   2  -6  930.81   71.39
  -5  -2   6  763.12   68.59
  -5  -2   6  824.82   69.79
   6   2  -6   -9.10   15.20
   6   2  -6   -2.70   17.70
  -6  -2   6   -3.60   14.30
  -6  -2   6   27.20   23.10
   7   2  -6  263.67   42.40
   7   2  -6  286.47   39.70
  -7  -2   6  319.37   43.50
  -7  -2   6  305.37   51.89
  -6   2  -5  678.23   66.29
  -6   2  -5  648.64   55.79
   6  -2   5  695.03   61.29
   6  -2   5  692.13   76.69
  -5   2  -5   44.00   18.00
  -5   2  -5   27.60   10.80
  -5   2  -5   46.20    9.80
   5  -2   5   48.60   16.00
   5  -2   5   62.99   27.80
  -4   2  -5  973.40   69.79
  -4   2  -5 1028.90   67.19
  -4   2  -5  821.42   73.39
  -4   2  -5 1062.99   72.69
  -4   2  -5 1042.80   71.49
   4  -2   5 1059.79   82.29
   4  -2   5 1052.49   71.89
   4  -2   5  947.01   70.69
  -3   2  -5   95.89   14.00
  -3   2  -5   75.59   13.20
  -3   2  -5   67.39   18.00
  -3   2  -5  105.49   20.40
   3  -2   5   70.39   13.60
   3  -2   5   71.69   13.30
   3  -2   5   70.99   19.30
  -2   2  -5 1592.94  104.29
  -2   2  -5 1467.35  107.69
  -2   2  -5 1635.84  103.99
  -2   2  -5 1674.03  107.39
   2  -2   5 1490.05  104.59
   2  -2   5 1329.77  109.49
   2  -2   5 1701.03  109.29
   2  -2   5 1580.04  104.09
   2  -2   5 1592.44  103.19
  -1   2  -5 1374.06   88.79
  -1   2  -5 1388.86   92.89
  -1   2  -5 1355.06   90.39
   1  -2   5 1272.67   95.89
   1  -2   5 1345.37   86.59
   1  -2   5 1332.57   91.29
   1  -2   5 1270.47   86.99
   1  -2   5 1374.56   88.49
   1  -2   5 1197.88   93.59
   0   2  -5 1133.19   72.29
   0   2  -5 1058.09   70.59
   0   2  -5 1091.09   71.89
   0   2  -5 1028.50   75.69
   0  -2   5 1008.50   70.99
   0  -2   5  928.01   79.09
   0  -2   5 1109.79   69.19
   0  -2   5 1057.99   72.69
   1   2  -5 1460.75   89.69
   1   2  -5 1519.55   93.79
   1   2  -5 1439.96   87.79
   1   2  -5 1297.97   88.69
  -1  -2   5 1350.96   88.89
  -1  -2   5 1188.68   94.69
  -1  -2   5 1250.67   93.39
  -1  -2   5 1282.77   88.39
  -1  -2   5 1225.38   87.49
   2   2  -5   88.49   14.10
   2   2  -5  109.29   13.00
   2   2  -5  110.99    8.50
   2   2  -5   75.39   15.00
  -2  -2   5  101.09   13.10
  -2  -2   5  125.79   20.50
  -2  -2   5   62.69   15.00
  -2  -2   5   87.09   12.60
   3   2  -5 1251.07   84.49
   3   2  -5 1317.27   86.69
   3   2  -5 1392.06   87.09
  -3  -2   5 1189.08   87.39
  -3  -2   5 1211.78   84.99
  -3  -2   5 1194.28   83.89
  -3  -2   5 1164.38   89.09
   4   2  -5   14.60    8.70
   4   2  -5   21.60   11.20
   4   2  -5   19.80    9.90
  -4  -2   5   15.90    8.30
  -4  -2   5    4.10   13.10
  -4  -2   5   11.60   12.60
  -4  -2   5    7.20    9.70
   5   2  -5  962.90   69.49
   5   2  -5 1115.79   77.09
   5   2  -5  967.10   69.89
  -5  -2   5  927.31   74.49
  -5  -2   5  882.31   72.49
   6   2  -5  377.86   44.50
   6   2  -5  358.56   36.60
   6   2  -5  249.68   32.60
  -6  -2   5  300.37   37.50
  -6  -2   5  307.17   40.20
   7   2  -5   39.60   29.60
   7   2  -5   88.79   22.30
  -7  -2   5  106.49   30.60
  -7  -2   5   78.59   24.10
  -7   2  -4   -5.30   19.50
  -7   2  -4   16.70   32.70
   7  -2   4  -36.60   25.20
   7  -2   4  -12.60   46.60
  -6   2  -4  595.94   67.69
  -6   2  -4  795.62   60.49
   6  -2   4  792.72   64.69
   6  -2   4  791.82   80.09
  -5   2  -4  281.77   39.00
  -5   2  -4  352.26   26.30
  -5   2  -4  367.66   36.30
  -5   2  -4  335.97   31.40
   5  -2   4  330.47   35.30
   5  -2   4  362.76   48.80
   5  -2   4  313.47   32.30
  -4   2  -4  579.74   47.80
  -4   2  -4  670.63   45.50
  -4   2  -4  712.13   49.90
  -4   2  -4  653.03   49.90
   4  -2   4  635.84   48.60
   4  -2   4  683.73   58.89
   4  -2   4  696.23   50.49
  -3   2  -4  683.33   48.10
  -3   2  -4  627.84   51.69
  -3   2  -4  633.14   46.90
  -3   2  -4  703.73   48.30
  -3   2  -4  570.54   51.99
   3  -2   4  650.83   47.80
   3  -2   4  727.83   48.00
   3  -2   4  720.93   55.49
  -2   2  -4   78.89   10.20
  -2   2  -4   68.99   10.80
  -2   2  -4   93.49    9.70
  -2   2  -4   77.59   16.40
  -2   2  -4  109.09   16.40
   2  -2   4  113.89   18.20
   2  -2   4   79.99   10.90
   2  -2   4   71.89   12.30
  -1   2  -4 5215.38  349.77
  -1   2  -4 5666.33  348.17
  -1   2  -4 5659.93  346.37
   1  -2   4 5266.77  345.07
   1  -2   4 5604.54  346.07
   1  -2   4 4643.64  350.36
   1  -2   4 5501.45  352.56
   1  -2   4 5626.94  348.87
   0   2  -4  171.68   15.90
   0   2  -4  193.78   15.70
   0   2  -4  190.68   21.10
   0   2  -4  157.88   13.60
   0  -2   4  176.28   15.00
   0  -2   4  175.28   21.20
   0  -2   4  158.28   17.00
   0  -2   4  154.08   12.30
   0  -2   4  140.49   26.00
   1   2  -4 1288.27   82.19
   1   2  -4 1159.48   78.49
   1   2  -4 1191.58   78.09
   1   2  -4 1271.57   76.99
  -1  -2   4 1169.58   77.39
  -1  -2   4 1088.39   81.49
  -1  -2   4 1119.19   77.39
  -1  -2   4 1158.08   83.89
  -1  -2   4 1173.78   78.39
   2   2  -4  481.85   35.10
   2   2  -4  373.16   30.30
   2   2  -4  406.46   30.20
  -2  -2   4  399.96   29.70
  -2  -2   4  371.16   30.00
  -2  -2   4  396.26   34.80
  -2  -2   4  366.26   35.00
   3   2  -4  823.82   56.99
   3   2  -4  916.01   59.09
   3   2  -4  855.21   59.49
  -3  -2   4  848.12   62.19
  -3  -2   4  769.92   56.29
  -3  -2   4  803.72   57.79
  -3  -2   4  719.43   58.89
   4   2  -4 1377.96   84.79
   4   2  -4 1215.18   87.59
   4   2  -4 1219.18   83.89
  -4  -2   4 1154.28   85.19
  -4  -2   4 1163.58   85.89
  -4  -2   4 1225.18   88.69
   5   2  -4  390.76   30.80
   5   2  -4  422.76   39.80
   5   2  -4  350.26   31.40
   5   2  -4  337.47   28.90
   5   2  -4  353.76   46.60
  -5  -2   4  294.57   34.40
  -5  -2   4  307.67   24.90
  -5  -2   4  358.16   36.00
   6   2  -4  444.56   39.80
   6   2  -4  510.25   39.70
   6   2  -4  585.64   54.49
   6   2  -4  567.34   45.20
  -6  -2   4  468.45   45.90
  -6  -2   4  426.56   35.50
  -6  -2   4  511.35   48.40
   7   2  -4   -0.50   17.40
   7   2  -4   29.90   24.10
  -7  -2   4   -1.20   16.60
  -7  -2   4    5.60   24.10
  -7   2  -3  390.56   43.20
  -7   2  -3  330.77   54.99
   7  -2   3  407.96   51.49
  -6   2  -3  236.98   27.80
  -6   2  -3  241.08   37.80
  -6   2  -3  215.18   22.80
   6  -2   3  311.07   47.00
   6  -2   3  233.58   35.90
  -5   2  -3  830.62   60.29
  -5   2  -3  788.92   54.49
  -5   2  -3  809.22   61.19
  -5   2  -3  680.73   58.89
   5  -2   3  821.52   61.89
   5  -2   3  803.92   57.59
   5  -2   3  871.81   72.29
  -4   2  -3   27.80    8.80
  -4   2  -3   14.80    7.70
  -4   2  -3   22.70    9.80
  -4   2  -3   41.60   16.80
  -4   2  -3   24.60    6.10
  -4   2  -3   22.10   15.90
   4  -2   3   38.20   18.00
   4  -2   3   16.50    8.50
   4  -2   3   28.20    9.40
  -3   2  -3 1688.23  117.69
  -3   2  -3 1890.41  116.39
  -3   2  -3 1755.22  121.09
  -3   2  -3 1601.44  121.09
  -3   2  -3 1879.01  118.89
  -3   2  -3 1826.82  117.89
   3  -2   3 1881.11  117.49
   3  -2   3 1791.82  118.49
   3  -2   3 1755.72  122.99
  -2   2  -3   22.70    5.30
  -2   2  -3   29.50   13.60
  -2   2  -3   24.40    6.40
  -2   2  -3   36.20   12.50
  -2   2  -3    7.90    8.40
   2  -2   3   61.59   16.50
   2  -2   3   42.50    8.90
   2  -2   3   21.90    6.70
  -1   2  -3 2599.34  183.78
  -1   2  -3 3086.89  182.78
  -1   2  -3 2995.60  180.48
   1  -2   3 2566.74  179.48
   1  -2   3 2902.51  180.28
   1  -2   3 2431.56  184.38
   1  -2   3 2879.61  186.48
   1  -2   3 2931.71  183.08
   0   2  -3 2675.73  169.68
   0   2  -3 2715.13  171.58
   0   2  -3 2740.23  174.68
   0   2  -3 2799.22  171.28
   0  -2   3 2706.23  171.08
   0  -2   3 2537.65  169.38
   0  -2   3 2525.85  176.68
   0  -2   3 2460.45  174.48
   0  -2   3 2738.03  171.88
   1   2  -3   21.90    4.90
   1   2  -3   19.80    3.60
   1   2  -3   14.30    8.30
   1   2  -3   17.10    4.80
  -1  -2   3   25.30    4.70
  -1  -2   3   15.40    5.20
  -1  -2   3   27.50    9.90
  -1  -2   3   25.30    9.80
   2   2  -3 1332.07   90.39
   2   2  -3 1382.96   88.69
   2   2  -3 1303.87   89.59
  -2  -2   3 1365.76   88.39
  -2  -2   3 1142.29   88.49
  -2  -2   3 1516.35   93.29
  -2  -2   3 1326.07   90.99
   3   2  -3    0.50    7.80
   3   2  -3    6.30    5.10
   3   2  -3    4.10   12.30
   3   2  -3    1.00    6.70
  -3  -2   3    7.50    8.60
  -3  -2   3   -1.40    6.20
  -3  -2   3   10.00    7.90
   4   2  -3 1838.72  123.69
   4   2  -3 1666.13  114.89
   4   2  -3 1838.22  117.29
   4   2  -3 1966.40  116.79
   4   2  -3 1896.51  121.69
  -4  -2   3 1624.04  118.39
  -4  -2   3 1654.83  113.39
  -4  -2   3 1698.03  121.09
  -4  -2   3 1634.14  117.89
   5   2  -3  120.69   20.00
   5   2  -3  128.29   19.70
   5   2  -3  130.59   23.90
   5   2  -3  146.49   26.40
   5   2  -3  161.98   17.30
  -5  -2   3  146.89   23.60
  -5  -2   3  121.79   15.80
  -5  -2   3  145.99   23.70
   6   2  -3  263.97   30.00
   6   2  -3  265.17   23.80
   6   2  -3  276.77   39.90
   6   2  -3  272.97   32.00
  -6  -2   3  241.18   33.10
  -6  -2   3  265.17   32.90
  -6  -2   3  208.78   24.80
   7   2  -3  256.37   37.30
   7   2  -3  327.17   51.59
  -7  -2   3  235.48   39.50
  -7  -2   3  298.77   43.30
  -7   2  -2  538.25   52.39
   7  -2   2  646.34   81.49
   7  -2   2  633.64   60.09
  -6   2  -2    4.30    9.20
  -6   2  -2   15.30   17.90
  -6   2  -2   34.70   24.40
  -6   2  -2    0.90    9.00
   6  -2   2   53.59   27.80
   6  -2   2    9.90   12.60
   6  -2   2   -2.70   15.80
  -5   2  -2 1189.58   82.39
  -5   2  -2 1123.59   82.29
  -5   2  -2 1149.78   77.29
  -5   2  -2 1042.60   81.09
   5  -2   2 1288.17   84.39
   5  -2   2 1189.28   79.09
   5  -2   2 1088.79   89.19
  -4   2  -2  845.42   58.89
  -4   2  -2  762.32   57.99
  -4   2  -2  862.31   55.49
  -4   2  -2  681.13   62.09
  -4   2  -2  837.02   61.99
  -4   2  -2  842.62   58.29
   4  -2   2  842.72   56.59
   4  -2   2  814.02   64.49
   4  -2   2  870.01   59.99
  -3   2  -2 1173.98   76.79
  -3   2  -2 1166.88   77.79
  -3   2  -2 1066.89   77.19
  -3   2  -2 1227.48   81.09
  -3   2  -2 1176.08   75.59
   3  -2   2 1202.08   82.19
   3  -2   2 1125.19   77.79
   3  -2   2 1074.29   75.89
  -2   2  -2 4193.28  260.87
  -2   2  -2 3650.03  260.97
  -2   2  -2 3994.00  261.67
  -2   2  -2 4187.08  264.17
   2  -2   2 4094.99  264.67
   2  -2   2 4219.58  261.47
   2  -2   2 4171.08  260.67
  -1   2  -2  697.93   44.20
  -1   2  -2  660.33   42.90
  -1   2  -2  574.94   47.70
  -1   2  -2  678.23   46.90
   1  -2   2  657.23   49.80
   1  -2   2  648.14   50.39
   1  -2   2  670.63   47.30
   1  -2   2  673.73   43.80
   0   2  -2 5574.54  343.17
   0   2  -2 5246.17  345.57
   0   2  -2 5451.65  342.57
   0   2  -2 5077.19  341.27
   0  -2   2 5177.28  341.27
   0  -2   2 5447.06  343.17
   0  -2   2 5237.98  345.77
   0  -2   2 5594.44  342.57
   0  -2   2 5487.25  347.77
   1   2  -2  171.68   14.40
   1   2  -2  152.38   18.10
   1   2  -2  193.28   14.70
  -1  -2   2  183.98   19.30
  -1  -2   2  185.08   14.20
  -1  -2   2  127.39   19.10
  -1  -2   2  166.38   14.20
   2   2  -2 1836.12  123.69
   2   2  -2 2133.99  123.39
   2   2  -2 1655.83  125.59
   2   2  -2 1820.42  122.29
  -2  -2   2 2091.29  126.09
  -2  -2   2 1826.52  123.19
  -2  -2   2 1770.22  123.49
   3   2  -2  506.35   37.20
   3   2  -2  577.04   44.00
   3   2  -2  537.05   40.70
   3   2  -2  522.35   37.80
  -3  -2   2  510.75   39.00
  -3  -2   2  521.35   35.20
  -3  -2   2  545.75   41.90
  -3  -2   2  491.85   39.30
   4   2  -2  651.33   52.09
   4   2  -2  639.04   46.90
   4   2  -2  629.44   46.20
   4   2  -2  665.73   44.20
   4   2  -2  652.93   50.39
  -4  -2   2  574.24   46.00
  -4  -2   2  598.04   47.80
  -4  -2   2  618.04   43.20
  -4  -2   2  627.34   49.80
   5   2  -2  847.02   67.09
   5   2  -2  751.32   60.39
   5   2  -2  918.41   67.79
   5   2  -2  882.81   60.59
   5   2  -2  877.81   56.59
  -5  -2   2  813.02   64.19
  -5  -2   2  744.23   59.29
  -5  -2   2  772.32   57.09
   6   2  -2   25.20   20.10
   6   2  -2   76.99   20.20
   6   2  -2   26.20    9.10
   6   2  -2   47.60   17.00
  -6  -2   2   29.60   16.30
  -6  -2   2   25.00   13.10
  -6  -2   2   18.40   13.60
   7   2  -2  419.86   55.39
   7   2  -2  371.66   42.40
   7   2  -2  471.15   49.30
  -7  -2   2  322.87   45.70
  -7   2  -1  315.27   34.20
  -7   2  -1  328.57   37.20
   7  -2   1  398.96   48.20
   7  -2   1  488.25   68.49
  -6   2  -1  287.17   37.40
  -6   2  -1  388.66   35.30
  -6   2  -1  319.07   29.30
   6  -2   1  354.06   31.50
   6  -2   1  337.17   41.00
   6  -2   1  424.16   52.89
  -5   2  -1   46.10    9.30
  -5   2  -1   54.89   18.20
  -5   2  -1   58.89   13.90
  -5   2  -1   65.29   13.50
  -5   2  -1   43.20   13.50
   5  -2   1   57.09   20.60
   5  -2   1   50.89   10.70
   5  -2   1   60.29   14.20
  -4   2  -1  862.11   60.39
  -4   2  -1  823.82   63.79
  -4   2  -1  892.61   57.99
  -4   2  -1  812.12   60.59
  -4   2  -1  889.91   61.09
   4  -2   1  852.11   58.19
   4  -2   1  841.92   61.69
   4  -2   1  868.01   66.19
  -3   2  -1   40.50    8.30
  -3   2  -1   36.20    9.00
  -3   2  -1   44.00    7.10
  -3   2  -1   53.39   14.60
  -3   2  -1   37.60    7.90
   3  -2   1   45.20   14.60
   3  -2   1   58.19   10.00
   3  -2   1   40.60    7.30
  -2   2  -1 2675.13  181.38
  -2   2  -1 2752.22  178.08
  -2   2  -1 2575.04  179.08
  -2   2  -1 2842.92  178.48
  -2   2  -1 2796.92  179.38
   2  -2   1 2861.61  179.58
   2  -2   1 2910.01  182.28
   2  -2   1 2823.32  177.88
  -1   2  -1  457.55   34.90
  -1   2  -1  540.65   31.80
  -1   2  -1  445.16   31.70
   1  -2   1  483.45   35.00
   1  -2   1  492.95   31.60
   1  -2   1  436.86   37.70
   0   2  -1 1252.27   79.89
   0   2  -1 1257.17   80.49
   0   2  -1 1261.27   79.59
   0   2  -1 1419.76   80.59
   0   2  -1 1143.49   82.39
   0  -2   1 1218.98   80.49
   0  -2   1 1245.18   79.89
   0  -2   1 1077.59   82.19
   1   2  -1 8463.95  565.84
   1   2  -1 9502.85  566.64
   1   2  -1 9464.55  565.44
   1   2  -1 8690.03  567.74
  -1  -2   1 9999.00  568.24
  -1  -2   1 8056.59  565.54
  -1  -2   1 7926.11  566.34
   2   2  -1  383.26   30.10
   2   2  -1  349.57   31.90
   2   2  -1  425.16   28.10
   2   2  -1  404.36   28.50
   2   2  -1  401.86   27.70
  -2  -2   1  343.57   28.70
  -2  -2   1  385.26   26.50
  -2  -2   1  372.56   29.50
  -2  -2   1  461.05   31.80
   3   2  -1 1175.28   80.89
   3   2  -1 1153.28   81.39
   3   2  -1 1190.48   78.69
   3   2  -1 1267.77   76.29
  -3  -2   1 1040.00   79.19
  -3  -2   1 1083.79   77.69
  -3  -2   1 1232.88   81.19
  -3  -2   1 1139.19   76.29
   4   2  -1    8.90    4.60
   4   2  -1   14.90    9.80
   4   2  -1    3.90    7.20
   4   2  -1   18.30   12.40
   4   2  -1    5.90   10.30
  -4  -2   1    3.10    8.60
  -4  -2   1  -10.00    7.50
  -4  -2   1   -6.80    6.70
  -4  -2   1   -2.70    7.60
   5   2  -1 1220.38   79.09
   5   2  -1 1133.09   82.29
   5   2  -1 1094.39   80.39
   5   2  -1 1226.68   85.29
   5   2  -1 1113.39   73.19
  -5  -2   1 1128.49   82.29
  -5  -2   1 1046.40   75.79
  -5  -2   1  949.71   75.99
   6   2  -1   96.89   23.40
   6   2  -1   54.59   17.70
   6   2  -1   53.89   12.30
   6   2  -1   66.79   23.20
  -6  -2   1   62.29   17.90
  -6  -2   1   48.90   16.20
  -6  -2   1   26.30   14.20
   7   2  -1  246.48   35.50
   7   2  -1  155.18   34.30
  -7  -2   1  171.58   36.50
  -8   2   0  299.97   45.10
   8  -2   0  363.26   57.19
   8  -2   0  311.47   56.99
  -7   2   0   35.20   16.20
  -7   2   0   19.80   15.60
   7  -2   0   74.49   24.20
   7  -2   0   56.19   36.10
   7  -2   0   44.00   16.20
  -6   2   0 1914.91  126.39
  -6   2   0 1725.63  120.29
   6  -2   0 1534.95  127.09
   6  -2   0 1826.52  120.69
   6  -2   0 1775.82  131.79
   6  -2   0 2040.30  121.29
  -5   2   0  161.18   17.40
  -5   2   0  214.88   29.50
  -5   2   0  159.28   23.00
  -5   2   0  191.08   21.10
  -5   2   0  140.29   22.10
   5  -2   0  186.08   19.80
   5  -2   0  194.48   29.20
   5  -2   0  194.48   24.30
  -4   2   0  993.60   64.39
  -4   2   0  936.31   69.39
  -4   2   0 1020.00   67.29
  -4   2   0  823.82   66.39
   4  -2   0 1010.80   64.09
   4  -2   0  973.20   70.79
   4  -2   0  948.21   67.99
   4  -2   0  932.91   63.79
  -3   2   0  648.14   43.50
  -3   2   0  648.84   49.30
  -3   2   0  587.24   45.00
  -3   2   0  695.63   45.20
   3  -2   0  608.64   42.60
   3  -2   0  587.64   48.70
   3  -2   0  668.73   46.10
  -2   2   0  791.92   57.59
  -2   2   0  838.82   59.39
  -2   2   0  823.42   55.79
  -2   2   0  898.91   56.79
  -2   2   0  882.41   57.39
   2  -2   0  882.61   58.19
   2  -2   0  840.42   55.39
   2  -2   0  917.81   56.69
   2  -2   0  861.61   59.99
  -1   2   0 1858.51  117.49
  -1   2   0 1779.22  117.89
  -1   2   0 1770.62  116.39
  -1   2   0 1835.22  119.09
   1  -2   0 1777.42  116.39
   1  -2   0 1869.61  119.29
   1  -2   0 1821.72  117.89
   1  -2   0 1908.61  117.49
   0   2   0  807.82   49.90
   0   2   0  740.13   50.39
   0   2   0  724.03   49.80
   0  -2   0  746.03   50.39
   0  -2   0  782.72   49.90
   0  -2   0  684.93   49.80
   1   2   0 1754.62  114.69
   1   2   0 1699.63  113.79
   1   2   0 1681.33  112.99
   1   2   0 1898.41  112.39
  -1  -2   0 1748.82  111.79
  -1  -2   0 1586.54  113.19
  -1  -2   0 1936.81  114.89
  -1  -2   0 1617.24  114.89
   2   2   0  155.38   16.60
   2   2   0  145.09   16.00
   2   2   0  177.48   18.60
  -2  -2   0  173.28   13.70
  -2  -2   0  148.89   15.70
  -2  -2   0  190.58   17.00
  -2  -2   0  163.28   18.80
   3   2   0 1006.10   70.49
   3   2   0  978.10   63.89
   3   2   0  993.80   68.39
   3   2   0  987.10   69.39
  -3  -2   0  999.10   66.29
  -3  -2   0  885.11   68.29
  -3  -2   0 1062.59   70.09
   4   2   0 1342.67   83.99
   4   2   0 1431.86   91.39
   4   2   0 1349.56   91.59
   4   2   0 1385.36   93.49
  -4  -2   0 1286.07   87.39
  -4  -2   0 1374.66   91.89
  -4  -2   0 1089.99   92.59
  -4  -2   0 1128.29   89.79
   5   2   0  319.17   36.50
   5   2   0  267.87   32.50
  -5  -2   0  194.68   35.70
  -5  -2   0  190.28   25.10
  -5  -2   0  260.17   28.90
   6   2   0  602.64   57.79
   6   2   0  617.74   49.60
   6   2   0  499.75   54.99
  -6  -2   0  510.85   49.90
   7   2   0   47.60   21.60
   7   2   0   15.40   28.70
   7   2   0   77.99   41.30
  -7  -2   0   17.20   20.40
  -8   2   1  406.66   49.90
   8  -2  -1  367.86   58.59
   8  -2  -1  449.06   71.69
  -7   2   1   80.69   18.30
  -7   2   1   63.59   19.40
   7  -2  -1  139.49   36.70
   7  -2  -1   96.59   25.90
   7  -2  -1  119.89   18.20
  -6   2   1  302.67   28.90
  -6   2   1  325.17   31.90
  -6   2   1  250.67   40.00
   6  -2  -1  327.67   41.80
   6  -2  -1  348.47   29.40
   6  -2  -1  287.07   38.80
   6  -2  -1  278.77   26.00
   6  -2  -1  359.26   28.30
  -5   2   1 1094.59   86.09
  -5   2   1 1217.48   83.49
  -5   2   1 1322.57   87.29
  -5   2   1 1108.59   87.89
   5  -2  -1 1243.78   83.09
   5  -2  -1 1336.67   82.69
   5  -2  -1 1341.37   89.59
   5  -2  -1 1202.78   82.49
   5  -2  -1 1235.78   90.19
  -4   2   1  187.68   16.20
  -4   2   1  171.08   18.00
  -4   2   1  146.09   18.60
  -4   2   1  166.48   22.70
   4  -2  -1  187.68   15.70
   4  -2  -1  185.78   15.60
   4  -2  -1  162.68   22.00
   4  -2  -1  169.38   19.70
   4  -2  -1  165.98   14.90
  -3   2   1 3489.25  211.68
  -3   2   1 3060.39  212.78
  -3   2   1 3007.70  211.88
  -3   2   1 3416.66  210.48
   3  -2  -1 3282.07  208.88
   3  -2  -1 3261.57  209.28
   3  -2  -1 3241.68  212.68
   3  -2  -1 3239.18  210.08
   3  -2  -1 3392.46  213.78
  -2   2   1   49.60    7.00
  -2   2   1   57.59    8.80
  -2   2   1   72.89   11.30
  -2   2   1   54.79    7.00
   2  -2  -1   52.39    4.30
   2  -2  -1   50.29    6.50
   2  -2  -1   55.59   10.00
   2  -2  -1   56.49    9.70
  -1   2   1 7026.80  444.16
  -1   2   1 7232.98  442.66
  -1   2   1 6635.94  441.66
  -1   2   1 7040.70  443.76
   1  -2  -1 6789.42  443.66
   1  -2  -1 6952.00  444.06
   0   2   1 2466.95  158.18
   0   2   1 2404.66  157.78
   0   2   1 2474.15  157.28
   0  -2  -1 2459.65  157.28
   0  -2  -1 2512.15  157.68
   0  -2  -1 2516.65  160.28
   0  -2  -1 2401.16  158.48
   1   2   1  847.32   57.79
   1   2   1  858.21   57.29
  -1  -2  -1  833.32   57.99
  -1  -2  -1  800.82   57.19
  -1  -2  -1  917.01   57.39
  -1  -2  -1  823.82   55.79
   2   2   1 1001.30   64.39
   2   2   1  980.20   64.69
   2   2   1  884.21   64.89
  -2  -2  -1  819.92   63.79
  -2  -2  -1  937.61   62.59
  -2  -2  -1 1021.90   64.49
  -2  -2  -1  897.61   65.99
   3   2   1  801.12   56.89
   3   2   1  812.92   58.19
   3   2   1  802.52   55.99
  -3  -2  -1  708.93   58.09
  -3  -2  -1  862.61   56.99
  -3  -2  -1  749.92   54.09
  -3  -2  -1  736.53   55.89
   4   2   1 1364.76   93.69
   4   2   1 1403.66   96.49
   4   2   1 1452.25   97.09
  -4  -2  -1 1448.76   95.39
  -4  -2  -1 1207.88   93.89
  -4  -2  -1 1296.47   91.29
  -4  -2  -1 1301.27   97.19
   5   2   1   27.60   18.20
   5   2   1   15.00   17.00
  -5  -2  -1   13.40   11.60
  -5  -2  -1    9.10   13.20
  -5  -2  -1    7.40   18.70
   6   2   1  632.14   57.79
   6   2   1  607.34   63.99
  -6  -2  -1  448.56   60.09
  -6  -2  -1  497.75   48.60
   7   2   1  232.98   47.50
   7   2   1  129.69   35.90
   7   2   1  172.58   28.40
  -7  -2  -1   89.79   26.90
  -8   2   2   75.19   28.60
  -8   2   2   96.69   29.60
   8  -2  -2  139.29   33.60
   8  -2  -2  155.88   41.30
  -7   2   2  638.04   55.09
  -7   2   2  573.04   51.59
   7  -2  -2  625.74   61.49
   7  -2  -2  668.73   65.39
   7  -2  -2  655.13   48.80
  -6   2   2   63.39   14.90
  -6   2   2   86.59   15.70
  -6   2   2   71.19   22.40
   6  -2  -2   80.79   14.60
   6  -2  -2   62.19   19.50
   6  -2  -2   72.99   12.40
   6  -2  -2  112.09   24.30
  -5   2   2 1086.29   74.69
  -5   2   2  915.11   76.69
  -5   2   2 1132.39   77.39
  -5   2   2  958.60   77.99
   5  -2  -2 1149.89   79.89
   5  -2  -2 1166.18   79.99
   5  -2  -2 1113.49   72.69
   5  -2  -2 1115.79   73.59
   5  -2  -2 1113.99   74.49
  -4   2   2  127.99   15.30
  -4   2   2  102.59   13.40
  -4   2   2  139.89   17.10
  -4   2   2  113.79   17.60
   4  -2  -2  139.69   17.70
   4  -2  -2  113.79   12.70
   4  -2  -2  131.09   12.20
   4  -2  -2  110.19   17.50
   4  -2  -2  130.69   14.80
  -3   2   2  439.86   31.40
  -3   2   2  451.35   31.20
  -3   2   2  447.96   33.10
  -3   2   2  389.96   34.70
   3  -2  -2  449.56   29.20
   3  -2  -2  473.25   30.90
   3  -2  -2  376.76   33.10
   3  -2  -2  447.76   34.20
   3  -2  -2  356.86   30.90
  -2   2   2 2732.93  173.58
  -2   2   2 2697.83  175.28
  -2   2   2 2641.84  172.38
  -2   2   2 2674.93  175.68
  -2   2   2 2719.03  173.98
   2  -2  -2 2747.53  173.78
   2  -2  -2 2567.24  175.38
   2  -2  -2 2805.32  175.78
  -1   2   2  823.62   61.19
  -1   2   2  881.01   60.99
  -1   2   2  955.80   59.09
  -1   2   2  901.81   58.49
   1  -2  -2  829.12   58.39
   1  -2  -2  943.71   58.79
   1  -2  -2  899.61   61.49
   0   2   2 1280.47   86.19
   0   2   2 1263.77   83.49
   0   2   2 1196.38   83.69
   0   2   2 1291.87   82.69
   0  -2  -2 1227.38   82.39
   0  -2  -2 1327.07   83.29
   0  -2  -2 1261.87   83.99
   0  -2  -2 1387.06   86.99
   1   2   2    3.10    4.40
   1   2   2    3.60    5.60
   1   2   2   -4.10    5.10
   1   2   2   13.60    8.80
  -1  -2  -2    9.20    4.50
  -1  -2  -2    3.40    1.50
  -1  -2  -2    6.50    4.60
  -1  -2  -2   -5.40    5.00
   2   2   2 2650.03  167.28
   2   2   2 2547.15  166.38
   2   2   2 2438.16  167.58
  -2  -2  -2 2457.75  165.28
  -2  -2  -2 2816.22  166.48
  -2  -2  -2 2570.54  168.08
  -2  -2  -2 2335.27  166.48
   3   2   2  283.17   28.40
   3   2   2  282.97   27.10
   3   2   2  269.07   25.60
  -3  -2  -2  319.77   29.50
  -3  -2  -2  275.47   24.90
  -3  -2  -2  310.07   26.20
  -3  -2  -2  240.88   25.30
   4   2   2  906.01   67.99
   4   2   2  917.51   67.09
   4   2   2  851.61   63.09
  -4  -2  -2  804.12   61.49
  -4  -2  -2  728.93   66.39
  -4  -2  -2  953.90   64.69
   5   2   2  332.87   45.20
   5   2   2  391.96   42.40
  -5  -2  -2  379.36   36.50
  -5  -2  -2  343.07   46.80
   6   2   2  144.29   30.20
   6   2   2  115.59   35.90
  -6  -2  -2   98.79   20.90
  -6  -2  -2   46.70   29.20
  -7  -2  -2  286.87   47.90
  -7  -2  -2  184.78   47.80
  -8   2   3   29.70   24.60
  -8   2   3   41.90   21.80
   8  -2  -3   44.20   27.00
   8  -2  -3   60.39   36.00
  -7   2   3  610.84   52.79
  -7   2   3  522.25   50.29
   7  -2  -3  635.74   58.39
   7  -2  -3  590.64   46.50
   7  -2  -3  582.34   58.39
  -6   2   3  175.68   25.50
  -6   2   3  172.78   28.70
  -6   2   3  249.78   27.00
   6  -2  -3  220.18   21.90
   6  -2  -3  267.17   35.10
   6  -2  -3  184.78   22.00
   6  -2  -3  197.58   31.70
  -5   2   3  490.85   46.60
  -5   2   3  566.54   44.30
  -5   2   3  458.85   44.30
  -5   2   3  567.14   42.90
   5  -2  -3  554.74   39.60
   5  -2  -3  560.04   44.30
   5  -2  -3  621.44   41.30
   5  -2  -3  537.85   45.90
   5  -2  -3  617.44   47.80
  -4   2   3 1531.95  111.09
  -4   2   3 1758.12  110.79
  -4   2   3 1698.53  109.69
  -4   2   3 1587.34  111.39
   4  -2  -3 1680.03  107.39
   4  -2  -3 1699.63  111.59
   4  -2  -3 1631.34  112.69
   4  -2  -3 1706.53  108.89
   4  -2  -3 1506.15  109.79
  -3   2   3  150.78   15.60
  -3   2   3  175.98   17.00
  -3   2   3  172.58   13.80
  -3   2   3  166.28   20.50
   3  -2  -3  205.28   15.10
   3  -2  -3  169.98   19.10
   3  -2  -3  169.38   16.10
   3  -2  -3  208.68   20.10
  -2   2   3 3122.09  202.98
  -2   2   3 3058.49  200.58
  -2   2   3 3056.99  200.08
  -2   2   3 3224.38  201.68
  -2   2   3 3209.68  203.28
   2  -2  -3 3078.59  200.08
   2  -2  -3 2997.80  202.98
   2  -2  -3 3025.10  203.18
   2  -2  -3 3337.67  201.48
  -1   2   3   84.09   11.70
  -1   2   3   73.79    8.30
  -1   2   3   56.29    8.80
  -1   2   3   68.79    8.00
   1  -2  -3   60.99    7.90
   1  -2  -3   57.69    8.70
   1  -2  -3   63.99   10.40
   1  -2  -3   72.29    7.80
   0   2   3 1060.59   74.39
   0   2   3 1118.79   77.29
   0   2   3 1104.29   74.59
   0   2   3 1281.67   74.29
   0  -2  -3 1142.69   78.19
   0  -2  -3 1056.69   74.09
   0  -2  -3 1096.69   74.69
   0  -2  -3 1144.19   73.29
   1   2   3 1242.38   84.29
   1   2   3 1196.28   83.69
   1   2   3 1187.58   84.49
   1   2   3 1208.08   86.99
   1   2   3 1327.47   81.99
  -1  -2  -3 1400.56   80.59
  -1  -2  -3 1148.19   82.79
  -1  -2  -3 1315.57   82.29
  -1  -2  -3 1196.08   84.19
   2   2   3  606.34   50.79
   2   2   3  620.04   47.20
   2   2   3  585.94   47.40
   2   2   3  674.53   46.10
  -2  -2  -3  625.94   47.50
  -2  -2  -3  642.04   45.60
  -2  -2  -3  686.73   45.50
   3   2   3  801.12   58.19
   3   2   3  759.52   60.79
   3   2   3  817.02   61.39
  -3  -2  -3  776.32   57.79
  -3  -2  -3  854.81   61.99
  -3  -2  -3  754.82   58.79
  -3  -2  -3  903.81   59.09
   4   2   3  109.49   22.80
   4   2   3   79.99   18.70
  -4  -2  -3   66.89   16.30
  -4  -2  -3   83.39   15.60
  -4  -2  -3   46.40   18.40
   5   2   3  887.51   68.49
   5   2   3  695.43   73.79
  -5  -2  -3  730.33   69.69
  -5  -2  -3  817.72   62.79
   6   2   3    9.40   24.30
   6   2   3  -73.69   32.80
  -6  -2  -3   15.80   28.10
  -6  -2  -3   -8.20   13.90
  -8   2   4  205.38   38.50
  -8   2   4  192.48   32.30
   8  -2  -4  235.18   38.20
   8  -2  -4  215.78   42.40
  -7   2   4  130.79   24.30
  -7   2   4   93.99   24.30
  -7   2   4   52.59   25.00
   7  -2  -4  122.09   18.80
   7  -2  -4  136.09   29.10
   7  -2  -4  121.39   27.50
  -6   2   4  825.22   64.89
  -6   2   4  888.01   67.09
  -6   2   4  788.52   67.29
   6  -2  -4  844.72   67.39
   6  -2  -4  850.71   61.29
   6  -2  -4  996.30   73.19
   6  -2  -4  927.61   67.49
  -5   2   4    0.40    7.90
  -5   2   4    8.20   10.50
  -5   2   4   -2.70   11.50
  -5   2   4    4.70   13.50
   5  -2  -4  -14.00   10.50
   5  -2  -4    4.70    8.30
   5  -2  -4    7.30    7.10
   5  -2  -4   11.50   15.50
   5  -2  -4    4.70   12.90
  -4   2   4 1075.59   85.79
  -4   2   4 1239.48   85.09
  -4   2   4 1244.68   87.09
  -4   2   4 1236.78   82.19
  -4   2   4 1309.97   85.69
   4  -2  -4 1293.67   86.59
   4  -2  -4 1251.67   82.49
   4  -2  -4 1313.87   88.39
   4  -2  -4 1264.47   84.29
  -3   2   4  623.04   43.50
  -3   2   4  651.23   48.60
  -3   2   4  650.93   45.20
  -3   2   4  635.04   46.20
  -3   2   4  597.14   46.80
   3  -2  -4  659.33   44.20
   3  -2  -4  628.94   45.20
   3  -2  -4  683.03   48.60
   3  -2  -4  630.84   47.70
  -2   2   4 2375.26  162.38
  -2   2   4 2313.37  164.98
  -2   2   4 2630.24  165.88
  -2   2   4 2738.93  164.58
  -2   2   4 2557.94  162.48
   2  -2  -4 2318.07  165.68
   2  -2  -4 2667.63  163.88
   2  -2  -4 2540.75  162.78
  -1   2   4 1463.85   98.29
  -1   2   4 1573.04   98.59
  -1   2   4 1589.04   99.39
  -1   2   4 1472.55  100.89
   1  -2  -4 1400.66   98.19
   1  -2  -4 1548.45  101.89
   1  -2  -4 1470.35   98.09
   0   2   4  120.09   19.10
   0   2   4  160.18   19.30
   0   2   4  141.19   18.10
   0   2   4  155.98   16.70
   0  -2  -4  150.98   15.00
   0  -2  -4  181.68   14.00
   0  -2  -4  122.49   20.40
   1   2   4 1795.72  123.19
   1   2   4 1899.41  120.89
   1   2   4 1845.42  125.49
   1   2   4 1868.51  122.89
   1   2   4 1876.41  121.99
  -1  -2  -4 1935.01  118.99
  -1  -2  -4 1652.23  121.99
  -1  -2  -4 1756.12  121.29
  -1  -2  -4 1960.50  119.99
   2   2   4    2.90    9.40
   2   2   4    5.10    7.50
   2   2   4   19.50   13.10
   2   2   4    9.30    7.90
  -2  -2  -4    6.40    8.20
  -2  -2  -4   12.60    6.70
  -2  -2  -4    6.70    8.20
   3   2   4 1266.57   86.99
   3   2   4 1023.60   88.49
   3   2   4 1211.78   85.69
   3   2   4 1153.68   82.59
  -3  -2  -4 1272.47   82.69
  -3  -2  -4 1241.48   85.89
  -3  -2  -4 1112.29   82.09
   4   2   4  234.48   37.90
   4   2   4  220.48   32.50
  -4  -2  -4  238.88   26.70
  -4  -2  -4  228.18   36.60
   5   2   4  299.67   41.90
   5   2   4  268.87   44.50
  -5  -2  -4  276.27   45.70
  -5  -2  -4  340.37   33.90
   6   2   4  361.46   57.69
   6   2   4  464.45   56.09
  -6  -2  -4  324.87   41.20
  -6  -2  -4  405.86   62.99
  -8   2   5  422.46   52.29
  -8   2   5  481.65   51.69
   8  -2  -5  411.66   68.99
   8  -2  -5  489.25   63.19
  -7   2   5    9.20   19.60
  -7   2   5   28.90   15.90
   7  -2  -5   69.39   25.40
   7  -2  -5   25.50   14.70
   7  -2  -5   42.20   23.20
  -6   2   5  427.26   41.80
  -6   2   5  433.86   40.20
  -6   2   5  381.96   45.60
   6  -2  -5  434.96   48.20
   6  -2  -5  518.15   47.60
   6  -2  -5  419.36   35.70
   6  -2  -5  461.25   41.80
  -5   2   5  328.17   29.80
  -5   2   5  284.37   29.90
  -5   2   5  308.57   34.20
   5  -2  -5  336.97   35.20
   5  -2  -5  274.67   28.10
   5  -2  -5  310.47   26.00
   5  -2  -5  306.57   32.10
   5  -2  -5  277.37   39.20
  -4   2   5  371.76   35.60
  -4   2   5  403.36   38.10
  -4   2   5  455.45   36.00
  -4   2   5  426.16   34.60
  -4   2   5  418.26   31.60
   4  -2  -5  475.75   34.50
   4  -2  -5  436.46   32.40
   4  -2  -5  439.76   38.50
  -3   2   5  758.32   56.99
  -3   2   5  756.22   53.39
  -3   2   5  763.02   52.79
  -3   2   5  757.82   55.89
  -3   2   5  787.32   54.89
  -3   2   5  798.42   58.29
   3  -2  -5  832.02   55.49
   3  -2  -5  846.02   58.69
   3  -2  -5  783.32   53.69
  -2   2   5  188.78   24.90
  -2   2   5  190.48   18.20
  -2   2   5  233.78   19.90
  -2   2   5  198.28   22.60
  -2   2   5  264.67   22.80
   2  -2  -5  220.98   21.40
   2  -2  -5  194.18   23.30
   2  -2  -5  254.87   21.00
  -1   2   5 6538.45  398.36
  -1   2   5 5912.21  396.96
  -1   2   5 5951.60  396.76
  -1   2   5 6050.99  399.26
   1  -2  -5 6441.96  396.76
   1  -2  -5 6752.42  397.46
   1  -2  -5 6023.80  400.56
   1  -2  -5 5879.31  396.86
   0   2   5  203.18   18.50
   0   2   5  188.98   20.90
   0   2   5  166.78   17.90
   0   2   5  171.18   18.00
   0  -2  -5  159.18   15.60
   0  -2  -5  156.78   16.60
   0  -2  -5  189.48   22.90
   1   2   5  921.31   66.39
   1   2   5  893.31   64.79
   1   2   5  908.81   68.39
   1   2   5  916.51   66.59
   1   2   5  920.71   64.89
  -1  -2  -5  878.41   64.39
  -1  -2  -5  995.10   62.09
  -1  -2  -5  965.00   65.69
  -1  -2  -5  989.30   62.49
   2   2   5  373.96   33.40
   2   2   5  409.46   34.50
   2   2   5  413.76   40.00
   2   2   5  379.96   36.40
  -2  -2  -5  401.96   34.90
  -2  -2  -5  380.56   26.80
  -2  -2  -5  420.86   31.20
  -2  -2  -5  375.26   32.70
   3   2   5  523.45   49.20
   3   2   5  538.75   47.00
  -3  -2  -5  552.24   43.20
  -3  -2  -5  571.24   48.30
   4   2   5  793.32   65.39
   4   2   5  803.92   69.49
  -4  -2  -5  712.23   65.39
  -4  -2  -5  759.12   58.69
   5   2   5   17.50   21.10
   5   2   5    2.80   31.40
  -5  -2  -5   35.70   16.30
  -5  -2  -5   -3.50   23.70
   6   2   5  417.86   57.19
   6   2   5  283.97   55.69
  -6  -2  -5  377.16   43.30
  -6  -2  -5  386.96   63.89
  -8   2   6  161.88   32.70
  -8   2   6  104.79   29.30
   8  -2  -6  165.18   35.80
  -7   2   6  454.45   45.60
  -7   2   6  373.06   46.60
   7  -2  -6  428.76   40.30
   7  -2  -6  545.85   56.49
   7  -2  -6  506.55   48.60
  -6   2   6   86.99   23.20
  -6   2   6   77.49   17.60
  -6   2   6   46.40   21.00
   6  -2  -6   59.19   28.40
   6  -2  -6   52.39   18.80
   6  -2  -6   58.89   14.10
   6  -2  -6   63.49   21.90
  -5   2   6  883.71   65.49
  -5   2   6  849.91   60.49
  -5   2   6  848.82   65.79
  -5   2   6  792.02   59.09
  -5   2   6  838.32   67.99
   5  -2  -6 1032.90   71.49
   5  -2  -6  941.31   62.09
  -4   2   6   -5.80    7.80
  -4   2   6   -4.20    9.50
  -4   2   6    0.50    6.70
  -4   2   6   -2.80   14.50
  -4   2   6    0.20    5.40
  -4   2   6    0.90   10.20
   4  -2  -6    3.20    8.30
   4  -2  -6    0.90   11.00
   4  -2  -6    8.30    8.90
  -3   2   6  678.03   51.39
  -3   2   6  608.14   52.49
  -3   2   6  635.64   47.00
  -3   2   6  713.53   49.80
  -3   2   6  657.43   50.79
  -3   2   6  690.03   47.90
   3  -2  -6  792.32   50.49
   3  -2  -6  658.33   52.59
   3  -2  -6  688.03   48.70
  -2   2   6  638.34   49.10
  -2   2   6  638.24   46.20
  -2   2   6  649.54   45.90
  -2   2   6  651.03   48.60
   2  -2  -6  623.54   46.40
   2  -2  -6  691.73   47.80
   2  -2  -6  691.13   50.89
   2  -2  -6  674.33   45.70
  -1   2   6  858.81   56.49
  -1   2   6  741.43   56.69
  -1   2   6  727.43   54.09
  -1   2   6  786.92   54.59
   1  -2  -6  761.52   53.69
   1  -2  -6  733.43   58.19
   1  -2  -6  865.11   54.79
   1  -2  -6  739.23   54.29
   0   2   6  736.93   49.99
   0   2   6  651.23   48.40
   0   2   6  642.94   51.29
   0   2   6  655.63   49.40
   0  -2  -6  654.33   48.50
   0  -2  -6  652.03   47.90
   0  -2  -6  625.74   53.39
   0  -2  -6  737.03   47.50
   1   2   6  146.49   18.80
   1   2   6  156.68   18.70
   1   2   6  146.39   21.10
   1   2   6  138.29   19.30
   1   2   6  140.79   24.30
  -1  -2  -6  113.89   13.70
  -1  -2  -6  120.49   16.70
  -1  -2  -6  127.29   18.00
  -1  -2  -6  131.99   13.80
   2   2   6 2063.09  148.19
   2   2   6 2045.50  146.09
   2   2   6 2222.08  145.59
  -2  -2  -6 2136.19  138.19
  -2  -2  -6 2047.70  144.39
  -2  -2  -6 2303.47  141.39
   3   2   6   22.10   15.20
   3   2   6   22.80   20.80
  -3  -2  -6   30.00   17.80
  -3  -2  -6   19.50   11.20
   4   2   6  995.80   83.19
   4   2   6  957.60   77.59
  -4  -2  -6  932.11   78.49
  -4  -2  -6  964.30   71.79
   5   2   6  159.88   43.50
   5   2   6  191.48   35.30
  -5  -2  -6  161.48   27.80
  -5  -2  -6  176.28   33.90
  -8   2   7    0.90   27.60
  -8   2   7   13.70   22.00
   8  -2  -7  -24.90   33.70
  -7   2   7  523.05   54.29
  -7   2   7  544.55   51.69
  -7   2   7  526.75   40.90
   7  -2  -7  648.14   64.49
   7  -2  -7  576.64   48.40
  -6   2   7   61.19   23.00
  -6   2   7   66.79   19.70
  -6   2   7   47.70   14.90
  -6   2   7   73.09   11.60
   6  -2  -7  108.29   26.60
   6  -2  -7   55.19   14.90
  -5   2   7  639.94   54.19
  -5   2   7  622.64   47.40
  -5   2   7  620.74   45.70
  -5   2   7  704.13   53.19
  -5   2   7  675.43   56.29
   5  -2  -7  672.33   49.20
   5  -2  -7  661.93   58.69
  -4   2   7  368.56   28.80
  -4   2   7  311.47   35.50
  -4   2   7  360.36   30.40
  -4   2   7  322.77   39.80
  -4   2   7  344.97   35.30
  -4   2   7  452.15   35.20
   4  -2  -7  410.86   32.80
   4  -2  -7  446.76   38.90
  -3   2   7  416.06   34.90
  -3   2   7  348.67   36.80
  -3   2   7  374.56   34.40
  -3   2   7  407.36   33.40
  -3   2   7  377.96   29.90
  -3   2   7  365.76   30.30
   3  -2  -7  389.96   37.00
   3  -2  -7  438.56   34.20
   3  -2  -7  388.66   32.50
  -2   2   7 2031.20  144.59
  -2   2   7 2173.08  144.89
  -2   2   7 2158.38  147.79
  -2   2   7 2117.79  147.59
   2  -2  -7 2407.96  146.69
   2  -2  -7 2229.18  150.08
   2  -2  -7 2151.28  145.19
   2  -2  -7 2369.36  144.59
  -1   2   7   68.39   15.20
  -1   2   7   34.80   11.90
  -1   2   7   48.00   11.00
  -1   2   7   56.69   11.50
   1  -2  -7   28.40   13.40
   1  -2  -7   35.10   11.20
   1  -2  -7   72.29   12.40
   1  -2  -7   52.29   11.20
   0   2   7 1075.99   76.09
   0   2   7 1111.39   76.69
   0   2   7 1023.00   77.29
   0   2   7 1036.50   74.99
   0  -2  -7 1048.50   74.89
   0  -2  -7 1006.80   80.19
   0  -2  -7 1076.79   74.19
   0  -2  -7 1170.98   73.69
   1   2   7   13.40   10.40
   1   2   7  -10.20   10.40
   1   2   7   13.10   12.80
   1   2   7   10.40   13.60
  -1  -2  -7   -1.10    7.90
  -1  -2  -7    7.80   10.10
  -1  -2  -7   11.60    6.70
   2   2   7  259.07   37.00
   2   2   7  207.48   38.60
   2   2   7  314.77   32.40
   2   2   7  244.38   31.20
  -2  -2  -7  335.07   23.90
  -2  -2  -7  330.07   34.60
  -2  -2  -7  309.07   27.00
   3   2   7  566.94   58.19
   3   2   7  661.93   63.19
  -3  -2  -7  791.32   60.59
  -3  -2  -7  732.93   53.69
   4   2   7  324.97   42.00
   4   2   7  289.77   46.30
  -4  -2  -7  354.06   44.50
  -4  -2  -7  259.67   32.20
   5   2   7  432.26   63.99
   5   2   7  539.55   58.79
  -5  -2  -7  482.85   47.20
  -5  -2  -7  516.55   66.29
  -8   2   8   61.59   27.70
  -8   2   8   46.10   31.90
   8  -2  -8  122.19   40.30
  -7   2   8  266.47   35.90
  -7   2   8  237.68   24.50
  -7   2   8  256.57   42.60
   7  -2  -8  228.68   35.90
   7  -2  -8  282.97   42.20
  -6   2   8  415.96   44.80
  -6   2   8  411.16   37.50
  -6   2   8  473.45   49.99
  -6   2   8  465.95   43.50
  -6   2   8  405.86   33.30
   6  -2  -8  478.45   52.69
   6  -2  -8  420.96   39.80
  -5   2   8   44.20   23.60
  -5   2   8   28.00   11.20
  -5   2   8   13.10   13.00
  -5   2   8   26.50    9.00
  -5   2   8    0.80   15.10
   5  -2  -8   29.10   20.20
   5  -2  -8   21.30   13.20
  -4   2   8  812.82   58.89
  -4   2   8  830.32   64.29
  -4   2   8  813.22   57.19
  -4   2   8  842.32   67.39
  -4   2   8  777.12   62.49
   4  -2  -8  850.91   60.49
   4  -2  -8  836.32   66.49
  -3   2   8   30.80   14.50
  -3   2   8   21.90   12.10
  -3   2   8   41.70   10.50
  -3   2   8   33.20   17.60
  -3   2   8   23.90    9.50
  -3   2   8   42.20   14.40
   3  -2  -8   32.90   13.40
   3  -2  -8   41.60   16.00
   3  -2  -8   33.90   12.80
  -2   2   8 1363.56   98.69
  -2   2   8 1517.85  103.09
  -2   2   8 1515.55   99.49
  -2   2   8 1366.46  101.39
   2  -2  -8 1562.34  100.69
   2  -2  -8 1413.06   99.39
   2  -2  -8 1444.36  104.59
   2  -2  -8 1509.55   98.19
  -1   2   8  433.06   40.70
  -1   2   8  542.95   44.40
  -1   2   8  487.95   43.10
  -1   2   8  579.34   42.40
   1  -2  -8  501.95   41.40
   1  -2  -8  517.85   47.80
   1  -2  -8  506.75   40.40
   1  -2  -8  539.85   40.20
   0   2   8  815.32   60.09
   0   2   8  698.13   60.59
   0   2   8  783.62   60.19
   0  -2  -8  774.52   58.59
   0  -2  -8  855.51   56.59
   0  -2  -8  721.33   64.29
   1   2   8 1125.89   80.49
   1   2   8 1009.50   82.89
   1   2   8  975.60   79.49
   1   2   8 1112.69   83.09
  -1  -2  -8 1042.50   79.89
  -1  -2  -8 1182.98   75.59
  -1  -2  -8 1204.08   74.09
   2   2   8  223.68   32.10
   2   2   8  202.38   33.40
   2   2   8  245.58   37.40
  -2  -2  -8  271.37   23.20
  -2  -2  -8  266.07   26.30
  -2  -2  -8  350.36   35.90
   3   2   8  997.00   76.89
   3   2   8  866.71   81.29
  -3  -2  -8  988.90   77.59
  -3  -2  -8  968.90   70.59
   4   2   8  -22.20   30.40
   4   2   8   11.40   21.10
  -4  -2  -8    3.90   14.90
  -4  -2  -8   31.90   23.90
  -7   2   9   12.30   24.70
  -7   2   9    1.70   18.10
   7  -2  -9   35.60   32.00
   7  -2  -9  -28.40   21.90
  -6   2   9  627.14   48.90
  -6   2   9  630.64   60.59
  -6   2   9  657.53   58.29
   6  -2  -9  809.72   68.59
   6  -2  -9  718.63   56.29
  -5   2   9   83.09   19.90
  -5   2   9   69.69   12.70
  -5   2   9   78.59   22.20
  -5   2   9   91.79   29.00
   5  -2  -9   32.30   16.90
   5  -2  -9   90.39   25.20
  -4   2   9  264.27   31.60
  -4   2   9  429.46   45.20
  -4   2   9  336.77   28.60
  -4   2   9  308.37   36.30
  -4   2   9  322.57   38.40
   4  -2  -9  356.96   33.80
   4  -2  -9  332.97   42.00
  -3   2   9  318.27   37.30
  -3   2   9  315.97   35.30
  -3   2   9  366.76   30.20
  -3   2   9  275.47   30.80
   3  -2  -9  369.66   33.60
   3  -2  -9  370.26   39.40
  -2   2   9  140.99   22.90
  -2   2   9  164.88   22.70
  -2   2   9  165.88   28.00
   2  -2  -9  196.38   31.10
   2  -2  -9  181.58   22.60
   2  -2  -9  193.18   24.50
  -1   2   9 1256.87   91.59
  -1   2   9 1343.07   90.69
  -1   2   9 1212.08   92.59
   1  -2  -9 1234.58   96.39
   1  -2  -9 1315.47   89.09
   1  -2  -9 1265.47   89.59
   0   2   9   23.90   14.50
   0   2   9   -7.40   13.90
   0   2   9    6.50   17.40
   0  -2  -9   17.60   19.60
   0  -2  -9   -0.40   12.30
   0  -2  -9    8.80   11.70
   1   2   9  451.15   42.50
   1   2   9  460.55   45.30
   1   2   9  443.56   46.40
  -1  -2  -9  517.55   43.90
  -1  -2  -9  457.65   38.00
   2   2   9   78.99   24.20
   2   2   9   64.59   23.00
   2   2   9   57.59   20.00
  -2  -2  -9  110.99   21.30
   3   2   9  553.24   65.69
   3   2   9  591.54   56.59
  -3  -2  -9  664.93   60.49
   4   2   9  602.44   78.29
   4   2   9  763.62   68.79
  -7   2  10  148.99   30.20
  -7   2  10  188.38   35.30
   7  -2 -10  158.78   38.00
   7  -2 -10   79.69   28.90
  -6   2  10  160.88   32.00
  -6   2  10  123.79   25.90
  -6   2  10  138.69   21.40
   6  -2 -10  124.89   31.40
   6  -2 -10   78.39   25.20
  -5   2  10  477.65   58.49
  -5   2  10  459.65   36.20
  -5   2  10  408.56   45.90
  -5   2  10  391.86   46.70
   5  -2 -10  421.56   44.30
  -4   2  10  151.08   33.90
  -4   2  10  112.59   26.50
  -4   2  10  180.98   30.40
  -4   2  10  172.68   22.40
   4  -2 -10  206.38   32.80
   4  -2 -10  161.78   24.70
  -3   2  10 1067.79   77.69
  -3   2  10 1062.59   84.59
   3  -2 -10 1087.89   80.09
   3  -2 -10 1179.18   88.29
  -2   2  10   73.29   17.60
  -2   2  10   73.09   23.40
   2  -2 -10   86.79   24.60
   2  -2 -10   73.09   18.30
  -1   2  10  917.81   72.59
  -1   2  10  843.02   68.69
   1  -2 -10  834.92   75.69
   1  -2 -10  955.40   68.09
   0   2  10  446.86   45.30
   0   2  10  423.76   45.20
   0  -2 -10  390.16   40.50
   0  -2 -10  421.66   38.70
   0  -2 -10  431.56   53.79
   1   2  10  285.77   40.80
   1   2  10  223.18   39.40
   1   2  10  217.38   35.60
  -1  -2 -10  319.07   35.10
   2   2  10  329.87   40.50
   2   2  10  273.57   46.30
   3   2  10   57.89   34.00
   3   2  10   39.90   25.00
  -3  -2 -10   53.29   24.70
  -7   2  11  263.07   44.50
  -6   2  11   -1.60   24.30
  -6   2  11    8.10   25.20
  -6   2  11    8.10   17.70
   6  -2 -11  -19.30   21.90
   6  -2 -11   24.90   31.70
  -5   2  11  398.46   37.60
  -5   2  11  421.76   50.99
  -5   2  11  400.76   50.29
   5  -2 -11  437.36   44.70
   5  -2 -11  431.06   55.49
  -4   2  11   16.80   20.70
  -4   2  11   39.00   15.90
   4  -2 -11   21.10   17.70
   4  -2 -11   18.00   25.10
  -3   2  11  362.56   38.90
  -3   2  11  409.96   48.40
   3  -2 -11  441.36   41.60
   3  -2 -11  403.66   52.29
  -2   2  11  768.72   69.39
  -2   2  11  820.12   64.19
   2  -2 -11  834.82   64.09
   2  -2 -11  794.22   75.59
  -1   2  11  252.57   35.20
  -1   2  11  224.08   37.40
   1  -2 -11  255.87   32.50
   0   2  11  920.21   79.69
   0   2  11 1122.69   79.09
   0   2  11  882.61   82.39
   0  -2 -11 1073.99   77.79
   1   2  11    6.30   24.00
   1   2  11   39.90   28.10
  -1  -2 -11   52.99   19.20
   2   2  11  495.95   61.59
   2   2  11  457.05   52.39
  -6   2  12  107.59   32.70
  -6   2  12  128.29   33.10
   6  -2 -12   81.39   28.30
   6  -2 -12  164.98   39.60
  -5   2  12   78.79   28.30
  -5   2  12  150.58   25.10
   5  -2 -12  109.49   26.10
   5  -2 -12  151.98   35.00
  -4   2  12  310.47   49.70
  -4   2  12  363.16   39.20
   4  -2 -12  459.15   56.79
   4  -2 -12  403.46   43.30
  -3   2  12   -4.50   23.10
  -3   2  12   16.80   17.40
   3  -2 -12   17.20   27.90
   3  -2 -12   61.19   20.10
  -2   2  12  650.53   58.09
  -2   2  12  553.34   65.09
   2  -2 -12  735.93   57.99
   2  -2 -12  656.43   72.09
  -1   2  12  112.99   33.40
  -1   2  12   85.29   27.80
   1  -2 -12  157.18   38.00
   1  -2 -12  187.78   32.80
   0   2  12  669.93   55.79
   0   2  12  465.95   59.39
   0   2  12  460.05   64.59
   0  -2 -12  671.13   55.49
   1   2  12  291.17   41.80
  -1  -2 -12  364.86   49.90
  -5   2  13   44.30   22.40
  -5   2  13   21.20   33.10
   5  -2 -13  -10.80   37.30
   5  -2 -13   53.49   23.20
  -4   2  13  212.08   36.80
  -4   2  13  217.48   39.30
  -3   2  13   64.69   23.10
  -3   2  13   52.99   30.30
   3  -2 -13   86.79   37.30
   3  -2 -13  117.39   25.10
  -2   2  13  500.85   54.89
  -2   2  13  427.36   62.79
   2  -2 -13  577.24   51.89
   2  -2 -13  462.35   68.49
  -1   2  13  411.36   55.89
  -1   2  13  464.65   65.29
   1  -2 -13  534.25   72.09
   1  -2 -13  529.05   51.99
   0   2  13   -3.40   23.40
   0   2  13   40.00   38.00
   0   2  13  -17.70   28.40
   2   3 -14  277.97   48.20
  -2  -3  14  202.08   58.59
  -2  -3  14  330.77   46.30
  -2  -3  14  442.46   78.09
  -1   3 -13   99.69   21.00
  -1   3 -13  172.78   28.60
   1  -3  13   24.50   34.60
   1  -3  13  102.59   52.69
   0   3 -13  322.17   31.10
   0   3 -13  314.47   44.00
   0  -3  13  267.77   56.19
   0  -3  13  362.96   49.60
   1   3 -13  335.37   45.40
  -1  -3  13  375.56   62.49
  -1  -3  13  341.87   46.10
   2   3 -13   53.89   25.00
  -2  -3  13   93.89   30.80
  -2  -3  13  114.49   41.20
  -2  -3  13   54.29   47.30
   3   3 -13  619.64   58.29
   3   3 -13  474.05   57.19
  -3  -3  13  498.65   75.49
   4   3 -13  -13.40   28.40
  -4  -3  13  -12.90   37.80
  -4  -3  13   34.10   34.80
  -2   3 -12  425.26   37.20
   2  -3  12  329.37   65.39
   2  -3  12  366.26   55.09
  -1   3 -12  624.94   49.30
  -1   3 -12  656.03   59.49
   1  -3  12  530.75   78.79
   1  -3  12  648.44   68.49
   0   3 -12    4.70   10.40
   0   3 -12    4.30   19.20
   0  -3  12  -36.10   33.10
   0  -3  12    0.10   25.80
   1   3 -12  323.87   41.20
   1   3 -12  424.56   40.20
  -1  -3  12  268.47   53.69
  -1  -3  12  380.56   47.50
  -1  -3  12  244.68   45.90
   2   3 -12   33.10   21.50
   2   3 -12   23.30   19.40
  -2  -3  12  -18.50   36.60
  -2  -3  12   27.90   31.00
  -2  -3  12    6.70   20.40
   3   3 -12  666.13   55.09
   3   3 -12  496.15   54.99
  -3  -3  12  504.75   51.89
  -3  -3  12  516.75   67.39
   4   3 -12   42.60   24.70
   4   3 -12   58.79   28.70
  -4  -3  12   75.69   36.50
  -4  -3  12   16.70   32.20
   5   3 -12   43.80   29.90
   5   3 -12   20.00   26.90
  -5  -3  12   57.39   36.70
  -5  -3  12   61.49   34.90
  -3   3 -11  623.44   48.90
   3  -3  11  483.35   68.79
  -2   3 -11    9.30   10.10
  -2   3 -11   28.10   19.70
   2  -3  11   50.79   42.50
  -1   3 -11  847.12   68.29
  -1   3 -11  903.61   62.89
   1  -3  11  877.21   76.69
   1  -3  11  838.52   63.19
   1  -3  11  761.32   86.09
   0   3 -11  187.18   31.80
   0  -3  11  204.18   22.30
   0  -3  11  202.78   41.80
   0  -3  11  248.38   41.20
   0  -3  11  128.59   42.70
   1   3 -11  530.55   41.50
   1   3 -11  407.86   43.00
  -1  -3  11  331.47   60.79
  -1  -3  11  458.75   36.80
  -1  -3  11  400.76   45.00
  -1  -3  11  319.27   56.19
   2   3 -11  717.33   53.39
   2   3 -11  748.03   59.59
   2   3 -11  769.22   57.59
  -2  -3  11  689.43   53.69
  -2  -3  11  591.54   70.69
  -2  -3  11  630.14   56.59
   3   3 -11  174.78   31.20
   3   3 -11  124.09   25.30
  -3  -3  11  101.69   19.00
  -3  -3  11  119.99   22.60
  -3  -3  11  117.39   34.20
  -3  -3  11   94.59   33.10
   4   3 -11  479.95   50.09
   4   3 -11  422.56   45.80
  -4  -3  11  322.87   55.79
  -4  -3  11  327.17   54.79
   5   3 -11  -37.20   21.10
   5   3 -11  -16.50   26.20
  -5  -3  11  -35.70   25.20
  -5  -3  11   56.39   33.10
   6   3 -11  292.37   46.20
   6   3 -11  267.07   47.50
  -6  -3  11  305.47   51.09
  -6  -3  11  279.57   56.39
  -4   3 -10  112.49   21.10
  -4   3 -10  124.49   29.10
   4  -3  10   41.80   39.60
  -3   3 -10  838.62   65.69
  -3   3 -10  738.33   58.39
   3  -3  10  740.43   74.79
  -2   3 -10  496.25   40.10
  -2   3 -10  557.44   47.20
   2  -3  10  448.36   38.00
   2  -3  10  435.76   72.09
   2  -3  10  489.95   56.99
  -1   3 -10  144.29   24.10
  -1   3 -10  182.18   21.20
   1  -3  10  196.38   33.10
   1  -3  10  176.88   22.20
   1  -3  10  183.98   19.00
   1  -3  10  109.39   35.60
   0   3 -10  529.05   44.70
   0  -3  10  469.75   36.70
   0  -3  10  506.15   35.40
   0  -3  10  339.47   58.79
   0  -3  10  377.76   57.89
   0  -3  10  436.26   47.60
   1   3 -10    0.50   15.80
   1   3 -10    7.30   12.80
   1   3 -10  -15.70   12.90
  -1  -3  10  -10.80   10.50
  -1  -3  10   28.20   24.50
  -1  -3  10    7.10   32.70
  -1  -3  10   -3.50   16.10
   2   3 -10  963.20   68.39
   2   3 -10 1009.20   64.89
   2   3 -10  949.60   70.99
  -2  -3  10  828.12   78.29
  -2  -3  10  845.62   67.39
  -2  -3  10  871.11   65.49
   3   3 -10  149.69   17.20
   3   3 -10  109.39   19.80
   3   3 -10  131.09   24.10
  -3  -3  10   79.89   28.40
  -3  -3  10  150.28   33.80
  -3  -3  10  117.79   18.90
  -3  -3  10  137.49   25.30
   4   3 -10  435.46   43.30
   4   3 -10  462.15   46.50
  -4  -3  10  364.76   49.80
  -4  -3  10  378.16   53.39
   5   3 -10  142.69   25.90
   5   3 -10  168.18   31.50
  -5  -3  10  168.28   36.90
  -5  -3  10  143.29   34.30
   6   3 -10   31.30   23.90
   6   3 -10   41.70   30.60
  -6  -3  10   61.09   35.30
  -6  -3  10   29.30   26.80
  -4   3  -9  362.06   34.50
   4  -3   9  334.77   51.39
  -3   3  -9  197.98   30.60
  -3   3  -9  131.99   19.80
   3  -3   9  121.69   22.40
   3  -3   9  124.99   31.30
  -2   3  -9 1018.60   72.19
  -2   3  -9  991.30   68.29
   2  -3   9  940.81   65.69
   2  -3   9  904.21   68.09
   2  -3   9  900.71   85.89
   2  -3   9  951.50   79.09
  -1   3  -9   19.90    8.80
  -1   3  -9   47.90   15.80
   1  -3   9   32.60   20.80
   1  -3   9   19.90    9.90
   1  -3   9   62.19   26.00
   1  -3   9   31.70    8.70
   0   3  -9 1812.52  123.59
   0   3  -9 1916.51  121.89
   0   3  -9 1956.90  124.89
   0  -3   9 1762.52  118.99
   0  -3   9 1880.31  126.29
   0  -3   9 1532.75  130.79
   1   3  -9  165.18   27.10
   1   3  -9  169.38   21.30
   1   3  -9  164.08   21.40
  -1  -3   9  181.78   19.40
  -1  -3   9  101.89   36.40
  -1  -3   9  147.19   24.70
  -1  -3   9  178.48   32.80
   2   3  -9  201.18   28.50
   2   3  -9  188.98   23.80
   2   3  -9  241.88   21.30
  -2  -3   9  204.38   37.10
  -2  -3   9  144.49   33.90
  -2  -3   9  209.68   22.60
  -2  -3   9  195.08   24.50
   3   3  -9  691.13   55.29
   3   3  -9  728.53   54.19
  -3  -3   9  764.22   67.09
  -3  -3   9  529.45   61.89
  -3  -3   9  653.03   49.50
  -3  -3   9  694.83   52.29
   4   3  -9   65.19   17.40
   4   3  -9   73.39   19.70
  -4  -3   9   67.49   24.70
  -4  -3   9   69.59   27.10
   5   3  -9  292.37   37.50
   5   3  -9  333.97   43.40
  -5  -3   9  259.17   42.20
  -5  -3   9  243.48   41.60
   6   3  -9   -9.40   19.50
   6   3  -9  -25.40   25.40
  -6  -3   9    6.00   22.40
  -6  -3   9  -15.60   30.50
   7   3  -9  316.37   49.10
   7   3  -9  219.88   35.30
  -7  -3   9  191.18   45.40
  -7  -3   9  240.28   44.60
  -5   3  -8   49.20   25.20
   5  -3   8   72.09   37.40
  -4   3  -8  755.52   61.89
  -4   3  -8  749.23   55.89
   4  -3   8  648.44   71.49
   4  -3   8  695.23   55.89
  -3   3  -8  202.08   22.20
  -3   3  -8  235.48   30.90
  -3   3  -8  256.87   39.50
   3  -3   8  186.78   22.90
   3  -3   8  251.87   37.60
   3  -3   8  199.78   31.20
  -2   3  -8  684.03   47.70
  -2   3  -8  629.64   56.69
  -2   3  -8  613.24   50.29
   2  -3   8  723.13   59.89
   2  -3   8  537.45   47.10
   2  -3   8  595.54   62.99
   2  -3   8  659.43   45.00
  -1   3  -8  633.54   43.90
  -1   3  -8  606.74   46.60
  -1   3  -8  633.84   53.19
  -1   3  -8  555.34   48.80
   1  -3   8  541.35   40.80
   1  -3   8  506.45   54.89
   1  -3   8  513.25   59.69
   1  -3   8  575.24   40.70
   1  -3   8  616.14   51.59
   0   3  -8  139.39   24.90
   0   3  -8  178.78   22.40
   0   3  -8  157.48   21.20
   0   3  -8  179.48   25.40
   0  -3   8  150.48   21.50
   0  -3   8  180.88   15.80
   0  -3   8  149.39   37.00
   0  -3   8  167.78   30.90
   0  -3   8  208.38   26.60
   1   3  -8  887.31   64.89
   1   3  -8  934.21   71.09
   1   3  -8  959.30   62.89
   1   3  -8  983.90   62.69
  -1  -3   8  796.32   62.89
  -1  -3   8  739.43   70.89
  -1  -3   8  850.71   63.89
  -1  -3   8  907.21   60.69
   2   3  -8   -2.30    7.10
   2   3  -8   -4.70   10.10
   2   3  -8    3.90   16.40
   2   3  -8   -7.00    8.70
  -2  -3   8   11.70   10.00
  -2  -3   8  -11.00    9.50
  -2  -3   8    3.50   16.80
  -2  -3   8   -0.80    8.10
  -2  -3   8    7.90   21.70
   3   3  -8 1859.91  109.59
  -3  -3   8 1590.94  115.79
  -3  -3   8 1581.24  106.99
  -3  -3   8 1548.65  117.19
  -3  -3   8 1416.86  103.59
  -3  -3   8 1463.75  102.99
   4   3  -8  187.78   27.40
   4   3  -8  161.98   27.60
  -4  -3   8  170.28   31.30
  -4  -3   8  124.39   27.70
  -4  -3   8  161.68   27.20
   5   3  -8  248.88   33.70
  -5  -3   8  215.58   37.20
  -5  -3   8  174.68   34.50
   6   3  -8  190.88   29.60
   6   3  -8  158.88   30.80
  -6  -3   8  124.79   28.50
  -6  -3   8  220.18   39.50
   7   3  -8   47.80   29.10
   7   3  -8   -5.20   24.10
  -7  -3   8   48.70   34.00
  -7  -3   8   44.90   35.80
  -5   3  -7  189.08   28.80
  -5   3  -7  167.28   20.90
  -5   3  -7  133.99   22.00
   5  -3   7  200.88   40.90
   5  -3   7  139.79   24.80
  -4   3  -7  325.37   29.30
  -4   3  -7  255.17   37.10
  -4   3  -7  315.87   41.70
   4  -3   7  297.57   30.40
   4  -3   7  292.17   46.50
   4  -3   7  275.07   39.10
  -3   3  -7 1210.58   81.79
  -3   3  -7 1196.78   83.19
  -3   3  -7 1105.59   87.99
   3  -3   7 1153.88   83.99
   3  -3   7 1252.97   92.59
   3  -3   7 1113.59   79.59
  -2   3  -7   60.09   11.70
  -2   3  -7   18.80   18.40
  -2   3  -7   39.60   12.50
   2  -3   7   30.20   19.20
   2  -3   7   17.40   21.30
   2  -3   7   55.39    9.30
   2  -3   7   30.00   12.00
   2  -3   7   82.49   12.20
  -1   3  -7 1305.57   93.19
  -1   3  -7 1287.87   97.19
  -1   3  -7 1370.96   92.59
   1  -3   7 1293.77   87.99
   1  -3   7 1453.35   96.49
   1  -3   7 1309.77  104.49
   1  -3   7 1342.07   91.39
   1  -3   7 1391.56   87.89
   0   3  -7   24.50   11.20
   0   3  -7   29.40   17.20
   0   3  -7   25.20    8.60
   0   3  -7   34.40   11.90
   0  -3   7   17.20    5.00
   0  -3   7   26.30   16.80
   0  -3   7   38.90   13.50
   0  -3   7   48.20   29.70
   0  -3   7   20.40    8.10
   1   3  -7 1032.10   71.49
   1   3  -7 1078.19   69.39
   1   3  -7 1071.69   69.79
   1   3  -7 1096.19   76.79
  -1  -3   7  881.01   80.59
  -1  -3   7  997.30   70.59
  -1  -3   7  919.81   69.79
  -1  -3   7 1005.70   67.89
   2   3  -7  411.66   38.70
   2   3  -7  422.56   27.70
   2   3  -7  393.66   32.20
   2   3  -7  375.16   30.50
  -2  -3   7  380.06   39.30
  -2  -3   7  295.17   42.10
  -2  -3   7  370.06   30.00
  -2  -3   7  360.86   30.90
  -2  -3   7  352.56   29.80
   3   3  -7  446.96   36.20
   3   3  -7  462.35   41.80
   3   3  -7  457.45   36.30
  -3  -3   7  367.16   42.80
  -3  -3   7  403.76   34.30
  -3  -3   7  385.06   44.00
  -3  -3   7  381.26   34.50
   4   3  -7  924.21   63.59
   4   3  -7  847.32   61.29
  -4  -3   7  738.13   66.29
  -4  -3   7  742.83   60.19
  -4  -3   7  762.02   67.49
   5   3  -7   38.00   16.30
   5   3  -7   53.89   21.60
  -5  -3   7   37.00   22.50
  -5  -3   7   30.50   19.60
   6   3  -7  316.07   39.20
   6   3  -7  351.56   47.20
  -6  -3   7  280.57   42.50
  -6  -3   7  328.17   49.60
   7   3  -7   26.90   24.50
   7   3  -7    7.20   29.40
  -7  -3   7   87.49   35.20
  -7  -3   7   19.00   26.40
  -6   3  -6  175.58   33.40
  -6   3  -6  132.09   26.30
   6  -3   6  152.28   42.30
   6  -3   6  121.49   27.80
  -5   3  -6  589.04   48.60
  -5   3  -6  594.94   44.10
  -5   3  -6  582.44   54.49
   5  -3   6  608.44   51.49
   5  -3   6  641.14   68.09
  -4   3  -6    0.60    7.90
  -4   3  -6   31.00   20.90
  -4   3  -6  -10.40    7.50
  -4   3  -6    2.00   11.90
   4  -3   6    0.60    9.80
   4  -3   6    1.90   23.30
   4  -3   6   18.60   20.10
  -3   3  -6 1552.24  122.79
  -3   3  -6 1756.12  118.09
  -3   3  -6 1794.42  118.29
   3  -3   6 1855.61  126.69
   3  -3   6 1697.33  116.19
   3  -3   6 1771.62  117.79
   3  -3   6 1865.41  119.79
  -2   3  -6  521.85   43.60
  -2   3  -6  511.95   39.40
  -2   3  -6  503.25   45.80
  -2   3  -6  511.45   38.10
   2  -3   6  456.05   49.00
   2  -3   6  498.55   45.70
   2  -3   6  486.75   37.10
   2  -3   6  481.65   35.50
   2  -3   6  511.45   38.50
  -1   3  -6  331.17   28.20
  -1   3  -6  300.47   29.70
  -1   3  -6  280.67   34.20
   1  -3   6  324.07   43.40
   1  -3   6  328.47   32.20
   1  -3   6  332.77   22.70
   1  -3   6  307.97   26.40
   0   3  -6  496.75   36.40
   0   3  -6  588.74   39.90
   0   3  -6  572.44   39.60
   0   3  -6  559.84   45.10
   0  -3   6  403.76   51.69
   0  -3   6  489.85   34.70
   0  -3   6  509.55   40.40
   0  -3   6  501.85   45.40
   0  -3   6  516.75   38.20
   1   3  -6  444.66   35.30
   1   3  -6  492.55   41.60
   1   3  -6  522.95   34.70
   1   3  -6  498.05   33.90
  -1  -3   6  461.85   32.60
  -1  -3   6  456.55   34.70
  -1  -3   6  383.36   40.00
  -1  -3   6  411.26   46.40
  -1  -3   6  440.56   35.00
   2   3  -6 2183.28  136.29
   2   3  -6 2338.57  132.09
   2   3  -6 2143.09  135.79
   2   3  -6 2297.37  140.69
  -2  -3   6 1904.11  132.69
  -2  -3   6 1821.42  142.69
  -2  -3   6 1981.20  135.19
  -2  -3   6 1822.62  139.89
  -2  -3   6 1931.61  134.59
   3   3  -6   10.40   12.10
   3   3  -6   -3.40    7.80
   3   3  -6   -5.50    7.50
  -3  -3   6   19.50   15.00
  -3  -3   6    4.60    7.90
  -3  -3   6   -7.60    6.90
  -3  -3   6  -19.40   12.20
   4   3  -6  878.31   64.79
   4   3  -6  950.40   64.89
   4   3  -6  915.41   61.69
  -4  -3   6  797.32   67.89
  -4  -3   6  801.42   61.69
  -4  -3   6  713.53   65.49
  -4  -3   6  748.43   60.29
   5   3  -6  160.38   26.90
   5   3  -6  183.98   29.70
  -5  -3   6  160.48   29.50
  -5  -3   6  165.48   28.80
   6   3  -6  450.45   48.70
   6   3  -6  349.17   39.40
  -6  -3   6  321.77   42.20
  -6  -3   6  317.37   48.30
   7   3  -6  165.18   28.90
   7   3  -6  268.17   42.30
  -7  -3   6  138.19   33.10
  -7  -3   6  169.28   39.20
  -6   3  -5   53.29   25.80
  -6   3  -5   74.09   17.10
   6  -3   5  124.19   40.70
   6  -3   5   35.40   20.90
  -5   3  -5  497.25   55.89
  -5   3  -5  605.84   48.80
  -5   3  -5  679.53   51.99
  -5   3  -5  632.54   44.40
  -5   3  -5  546.95   47.90
   5  -3   5  640.24   64.19
   5  -3   5  670.33   51.19
  -4   3  -5  410.66   47.40
  -4   3  -5  478.55   38.10
  -4   3  -5  521.15   40.20
  -4   3  -5  549.45   37.30
  -4   3  -5  532.45   41.20
   4  -3   5  506.15   40.20
   4  -3   5  497.75   40.60
   4  -3   5  492.75   53.19
  -3   3  -5  524.05   40.10
  -3   3  -5  568.24   38.30
  -3   3  -5  559.14   40.40
  -3   3  -5  466.25   45.80
   3  -3   5  520.75   38.60
   3  -3   5  503.95   40.00
   3  -3   5  523.75   48.80
  -2   3  -5 1308.37   84.89
  -2   3  -5 1261.87   84.69
  -2   3  -5 1125.59   89.89
  -2   3  -5 1285.07   88.49
   2  -3   5 1290.67   84.49
   2  -3   5 1271.07   82.59
   2  -3   5 1274.77   83.79
   2  -3   5 1102.59   92.09
   2  -3   5 1339.67   90.29
  -1   3  -5    5.20   11.00
  -1   3  -5    5.60    6.30
  -1   3  -5   -1.70    8.50
   1  -3   5    4.60   18.40
   1  -3   5    4.70    9.30
   1  -3   5    6.20    5.30
   1  -3   5   -0.80   11.00
   0   3  -5 1756.62  116.89
   0   3  -5 1919.11  120.29
   0   3  -5 1975.20  119.99
   0   3  -5 1846.92  125.49
   0  -3   5 1869.81  121.09
   0  -3   5 1804.32  116.09
   0  -3   5 1742.53  118.89
   0  -3   5 1627.04  125.39
   0  -3   5 1723.63  129.59
   1   3  -5   41.80   16.70
   1   3  -5   44.30    8.30
   1   3  -5   28.50    8.10
   1   3  -5   42.90    9.80
  -1  -3   5   41.40    8.90
  -1  -3   5   27.00    6.00
  -1  -3   5   38.60   15.80
  -1  -3   5   36.70   12.10
  -1  -3   5   32.30   17.50
   2   3  -5  890.91   60.39
   2   3  -5  839.72   55.99
   2   3  -5  846.02   55.89
  -2  -3   5  745.73   55.09
  -2  -3   5  747.03   62.59
  -2  -3   5  696.13   59.59
  -2  -3   5  775.12   54.99
   3   3  -5  686.43   49.30
   3   3  -5  671.43   47.60
   3   3  -5  737.93   51.39
  -3  -3   5  588.14   46.50
  -3  -3   5  637.54   47.90
  -3  -3   5  604.14   54.49
  -3  -3   5  600.84   51.99
   4   3  -5  199.48   26.10
   4   3  -5  292.07   28.50
   4   3  -5  232.78   24.00
   4   3  -5  140.79   29.90
  -4  -3   5  225.08   24.90
  -4  -3   5  192.78   30.00
  -4  -3   5  214.78   30.30
   5   3  -5  339.77   40.30
   5   3  -5  324.27   32.40
   5   3  -5  306.97   31.10
  -5  -3   5  272.07   35.90
  -5  -3   5  274.67   36.00
   6   3  -5   31.10   22.10
   6   3  -5   -6.10   15.20
   6   3  -5   19.80   16.50
  -6  -3   5   17.80   15.00
  -6  -3   5   31.70   22.00
   7   3  -5  438.36   58.59
   7   3  -5  397.66   45.60
  -7  -3   5  353.16   57.09
  -7  -3   5  334.67   50.99
  -7   3  -4  272.67   42.10
  -7   3  -4  241.18   39.20
   7  -3   4  273.77   39.40
   7  -3   4  207.28   49.90
  -6   3  -4  369.56   46.20
  -6   3  -4  385.86   33.20
  -6   3  -4  400.86   38.20
   6  -3   4  431.56   44.90
   6  -3   4  533.55   62.89
  -5   3  -4  125.09   18.90
  -5   3  -4  146.89   23.60
  -5   3  -4  150.08   16.20
  -5   3  -4  107.69   20.30
  -5   3  -4  138.59   29.10
   5  -3   4  184.58   32.00
   5  -3   4  124.79   19.30
   5  -3   4  146.89   23.40
  -4   3  -4 1571.34  103.59
  -4   3  -4 1450.45  102.29
  -4   3  -4 1523.35  101.09
  -4   3  -4 1578.84  104.59
   4  -3   4 1549.94  112.09
   4  -3   4 1509.15  102.49
   4  -3   4 1526.35  104.09
  -3   3  -4   19.70   13.20
  -3   3  -4   23.40    7.40
  -3   3  -4   20.90    6.50
  -3   3  -4   13.00   14.70
  -3   3  -4   23.90    8.10
   3  -3   4   15.50    6.40
   3  -3   4   18.40   15.30
   3  -3   4   17.40    8.30
  -2   3  -4 1759.92  139.79
  -2   3  -4 2117.89  135.39
  -2   3  -4 2046.50  138.99
  -2   3  -4 2130.99  133.89
  -2   3  -4 2159.08  136.19
   2  -3   4 2102.79  140.19
   2  -3   4 2092.69  134.09
   2  -3   4 2151.38  135.39
  -1   3  -4 1835.52  108.49
  -1   3  -4 1652.23  110.49
  -1   3  -4 1530.65  113.29
   1  -3   4 1451.05  114.29
   1  -3   4 1692.63  107.59
   1  -3   4 1670.83  111.39
   1  -3   4 1605.94  117.59
   0   3  -4  600.64   40.00
   0   3  -4  552.24   41.10
   0   3  -4  493.25   48.30
   0  -3   4  524.85   42.30
   0  -3   4  545.65   39.00
   0  -3   4  541.75   50.59
   1   3  -4  736.43   49.30
   1   3  -4  788.82   50.59
   1   3  -4  765.12   48.70
  -1  -3   4  715.83   48.60
  -1  -3   4  683.33   57.39
  -1  -3   4  754.42   50.19
  -1  -3   4  619.04   54.69
  -1  -3   4  688.03   49.20
   2   3  -4  493.45   34.20
   2   3  -4  432.06   33.80
   2   3  -4  459.95   38.80
  -2  -3   4  435.46   33.20
  -2  -3   4  437.16   33.30
  -2  -3   4  516.45   41.70
  -2  -3   4  353.16   38.70
   3   3  -4 1939.11  127.89
   3   3  -4 2234.08  130.39
   3   3  -4 1997.50  130.29
  -3  -3   4 1895.71  127.39
  -3  -3   4 1870.31  128.39
  -3  -3   4 1907.61  133.69
  -3  -3   4 1669.83  129.89
   4   3  -4   35.70   12.90
   4   3  -4   43.60   21.90
   4   3  -4   62.89   13.40
   4   3  -4   54.39   12.30
  -4  -3   4   52.19   15.30
  -4  -3   4   47.70   15.60
  -4  -3   4   54.99   13.00
   5   3  -4  872.71   60.59
   5   3  -4  936.31   69.89
   5   3  -4  890.11   62.69
  -5  -3   4  700.33   64.19
  -5  -3   4  808.52   67.39
   6   3  -4   50.29   23.10
   6   3  -4   50.19   13.90
   6   3  -4   60.79   17.50
  -6  -3   4   48.20   19.60
  -6  -3   4   50.49   21.20
   7   3  -4  161.98   36.70
   7   3  -4  164.18   25.90
  -7  -3   4  118.79   31.70
  -7   3  -3   59.79   28.20
   7  -3   3   95.19   40.80
   7  -3   3   25.20   24.10
  -6   3  -3  511.55   41.90
  -6   3  -3  472.75   45.60
  -6   3  -3  447.16   36.40
   6  -3   3  418.06   38.00
   6  -3   3  433.76   46.90
   6  -3   3  605.74   64.79
  -5   3  -3   17.80   10.80
  -5   3  -3   43.80   12.90
  -5   3  -3   16.20   21.60
  -5   3  -3   34.70    8.70
  -5   3  -3   37.00   11.20
   5  -3   3   23.70   11.10
   5  -3   3   39.20   26.30
   5  -3   3   28.30   12.10
  -4   3  -3  959.40   67.89
  -4   3  -3  882.21   66.29
  -4   3  -3  997.00   66.99
  -4   3  -3 1019.60   65.09
  -4   3  -3  841.42   72.09
   4  -3   3  993.50   68.19
   4  -3   3  962.00   65.89
   4  -3   3 1021.40   76.19
  -3   3  -3  968.30   58.29
  -3   3  -3  812.32   58.29
  -3   3  -3  838.32   59.69
  -3   3  -3  881.01   64.19
  -3   3  -3  702.23   63.89
  -3   3  -3  861.61   58.19
   3  -3   3  851.01   64.99
   3  -3   3  880.81   59.09
   3  -3   3  892.21   58.29
  -2   3  -3 1434.06   95.79
  -2   3  -3 1512.45  100.49
  -2   3  -3 1490.65   96.79
  -2   3  -3 1392.46   94.89
   2  -3   3 1412.26   95.19
   2  -3   3 1502.65  101.19
   2  -3   3 1497.55   95.69
  -1   3  -3 2706.43  172.18
  -1   3  -3 2757.42  169.58
  -1   3  -3 2377.06  173.98
   1  -3   3 2661.53  177.78
   1  -3   3 2611.84  169.18
   1  -3   3 2635.24  172.38
   0   3  -3   43.80    5.00
   0   3  -3   79.39   12.00
   0   3  -3   44.50   12.70
   0  -3   3   69.99   17.20
   0  -3   3   65.49   13.90
   0  -3   3   64.99    8.50
   0  -3   3   51.79    4.90
   1   3  -3 1633.94  103.29
   1   3  -3 1558.74  101.59
   1   3  -3 1620.84  102.89
   1   3  -3 1784.82  107.79
  -1  -3   3 1584.54  103.09
  -1  -3   3 1501.35  108.49
  -1  -3   3 1359.66  106.09
  -1  -3   3 1531.05  102.39
   2   3  -3  375.06   30.00
   2   3  -3  431.96   29.80
  -2  -3   3  351.76   33.30
  -2  -3   3  395.76   29.60
  -2  -3   3  400.76   35.60
  -2  -3   3  378.86   29.70
   3   3  -3  899.71   73.19
   3   3  -3 1005.40   69.29
   3   3  -3  955.60   66.79
   3   3  -3 1063.79   67.99
  -3  -3   3 1033.10   72.59
  -3  -3   3  987.30   67.89
  -3  -3   3  833.62   68.29
   4   3  -3  533.05   39.40
   4   3  -3  638.84   42.70
   4   3  -3  572.74   43.20
   4   3  -3  558.64   51.49
   4   3  -3  648.14   47.60
  -4  -3   3  561.64   48.70
  -4  -3   3  473.35   44.30
  -4  -3   3  532.75   44.70
   5   3  -3  126.49   17.70
   5   3  -3  145.89   22.30
   5   3  -3  121.49   17.90
   5   3  -3  174.18   31.80
  -5  -3   3  117.69   21.50
  -5  -3   3  136.59   24.20
  -5  -3   3  121.19   12.60
   6   3  -3  400.46   49.20
   6   3  -3  415.56   41.00
   6   3  -3  442.96   33.10
   6   3  -3  366.86   37.90
  -6  -3   3  401.06   43.30
  -6  -3   3  388.36   43.40
   7   3  -3  -17.70   18.40
   7   3  -3    4.60   25.80
  -7  -3   3  -13.30   18.70
  -7   3  -2  222.88   30.70
  -7   3  -2  297.87   35.60
   7  -3   2  293.07   43.80
   7  -3   2  358.26   55.19
  -6   3  -2  343.97   29.60
  -6   3  -2  321.47   37.50
  -6   3  -2  350.46   33.50
   6  -3   2  341.37   48.90
   6  -3   2  346.37   40.50
   6  -3   2  367.16   31.60
  -5   3  -2  327.57   29.50
  -5   3  -2  266.37   28.50
  -5   3  -2  366.46   26.20
  -5   3  -2  322.97   29.40
  -5   3  -2  245.48   40.60
   5  -3   2  284.67   30.70
   5  -3   2  319.37   26.90
   5  -3   2  336.77   43.50
  -4   3  -2   81.19   13.10
  -4   3  -2   67.69   12.60
  -4   3  -2   72.49   12.50
  -4   3  -2   76.79   18.60
  -4   3  -2   79.39   10.50
   4  -3   2   70.39   18.10
   4  -3   2   84.59   13.90
   4  -3   2   85.89   12.60
  -3   3  -2 3036.20  188.48
  -3   3  -2 2930.21  188.18
  -3   3  -2 2925.01  190.08
  -3   3  -2 2830.72  192.88
  -3   3  -2 2794.22  189.08
   3  -3   2 2823.52  189.58
   3  -3   2 2990.70  187.78
   3  -3   2 3011.70  194.48
  -2   3  -2   74.59   10.10
  -2   3  -2   84.49   12.50
  -2   3  -2   69.49    8.10
  -2   3  -2   72.99   19.60
   2  -3   2   61.59   18.90
   2  -3   2   70.49    9.20
  -1   3  -2 1138.49   71.39
  -1   3  -2  970.90   75.99
  -1   3  -2 1115.09   74.29
  -1   3  -2 1056.49   70.19
   1  -3   2 1085.59   74.59
   1  -3   2 1129.59   71.29
   1  -3   2 1070.99   70.29
   1  -3   2 1158.78   79.79
   0   3  -2   18.50    9.70
   0   3  -2   29.40    5.50
   0   3  -2   19.80    3.60
   0   3  -2   23.60    6.20
   0  -3   2   27.50    4.90
   0  -3   2   20.80   10.40
   0  -3   2   31.80   14.20
   0  -3   2   20.20    6.70
   1   3  -2 2302.67  151.48
   1   3  -2 2285.27  154.48
   1   3  -2 2264.07  150.28
   1   3  -2 2462.45  151.98
  -1  -3   2 2240.58  151.28
  -1  -3   2 2438.26  151.58
  -1  -3   2 2391.26  156.28
   2   3  -2 2307.87  142.99
   2   3  -2 2473.95  146.99
   2   3  -2 2163.58  150.08
   2   3  -2 2150.38  146.49
   2   3  -2 2104.09  145.19
  -2  -3   2 2062.79  145.69
  -2  -3   2 2338.57  149.99
   3   3  -2  135.59   21.80
   3   3  -2  128.79   15.30
   3   3  -2  133.79   14.60
   3   3  -2  131.69   15.60
   3   3  -2  138.19   18.20
  -3  -3   2  158.68   21.60
  -3  -3   2  130.89   10.30
  -3  -3   2  136.99   16.80
  -3  -3   2  103.89   17.40
   4   3  -2  939.91   67.69
   4   3  -2  942.01   69.49
   4   3  -2 1011.90   61.39
   4   3  -2  907.11   62.89
   4   3  -2  958.70   63.89
  -4  -3   2  808.42   64.59
  -4  -3   2  808.12   58.79
  -4  -3   2  760.32   62.89
  -4  -3   2  904.51   68.19
   5   3  -2   77.89   15.50
   5   3  -2   75.39   15.20
   5   3  -2   35.20   19.40
   5   3  -2   84.89   12.60
  -5  -3   2   61.89   16.60
  -5  -3   2   66.39   11.00
  -5  -3   2   49.20   16.50
   6   3  -2  318.17   36.50
   6   3  -2  365.66   46.90
  -6  -3   2  295.57   37.70
  -6  -3   2  255.57   35.90
   7   3  -2   53.89   21.40
   7   3  -2   81.09   31.10
  -7  -3   2   36.20   22.50
  -7   3  -1  551.24   50.09
  -7   3  -1  495.05   44.80
   7  -3   1  597.34   46.50
   7  -3   1  612.74   70.29
   7  -3   1  563.34   56.89
  -6   3  -1   23.30   15.50
  -6   3  -1    9.00    9.70
   6  -3   1   43.20   28.20
   6  -3   1   30.90   11.30
   6  -3   1   28.00   18.20
  -5   3  -1 1075.19   81.89
  -5   3  -1 1231.38   83.19
  -5   3  -1 1237.08   79.49
  -5   3  -1 1067.39   87.19
  -5   3  -1 1064.29   80.89
   5  -3   1 1185.18   90.19
   5  -3   1 1298.77   84.79
   5  -3   1 1213.48   78.69
  -4   3  -1  417.16   31.30
  -4   3  -1  421.06   39.40
  -4   3  -1  462.75   34.20
  -4   3  -1  379.86   33.30
  -4   3  -1  419.96   32.80
   4  -3   1  434.06   30.80
   4  -3   1  437.76   41.00
   4  -3   1  450.65   34.90
  -3   3  -1 1859.51  121.39
  -3   3  -1 1764.82  122.99
  -3   3  -1 1897.11  126.99
  -3   3  -1 1834.92  121.89
  -3   3  -1 1973.90  123.59
   3  -3   1 1940.61  120.89
   3  -3   1 1846.62  123.49
   3  -3   1 1860.81  127.89
  -2   3  -1 2216.68  137.09
  -2   3  -1 2156.08  135.69
  -2   3  -1 1996.10  137.09
  -2   3  -1 2081.39  140.19
  -2   3  -1 2072.49  137.49
   2  -3   1 2196.78  140.89
   2  -3   1 2153.18  135.69
   2  -3   1 2069.39  137.29
  -1   3  -1  349.47   23.40
  -1   3  -1  319.57   26.70
  -1   3  -1  333.47   22.90
   1  -3   1  341.37   32.40
   1  -3   1  322.17   23.30
   1  -3   1  332.37   22.80
   1  -3   1  355.86   27.30
   0   3  -1 1106.89   80.59
   0   3  -1 1236.38   80.79
   0   3  -1 1308.17   79.69
   0   3  -1 1269.07   79.59
   0   3  -1 1119.29   83.59
   0  -3   1 1194.78   86.09
   0  -3   1 1262.87   79.59
   0  -3   1 1253.97   80.99
   1   3  -1  251.57   18.60
   1   3  -1  257.57   16.90
   1   3  -1  224.68   19.30
   1   3  -1  238.68   21.30
   1   3  -1  252.87   23.40
  -1  -3   1  206.18   18.60
  -1  -3   1  230.48   22.30
  -1  -3   1  240.38   23.30
   2   3  -1 4133.19  257.47
   2   3  -1 4329.17  258.77
   2   3  -1 4077.19  260.57
   2   3  -1 3905.51  261.97
   2   3  -1 4147.08  258.87
  -2  -3   1 3731.93  259.27
  -2  -3   1 4173.88  262.37
  -2  -3   1 3640.84  256.27
   3   3  -1  253.67   18.10
   3   3  -1  245.68   26.50
   3   3  -1  213.28   20.80
   3   3  -1  213.88   22.90
  -3  -3   1  225.38   25.00
  -3  -3   1  208.58   16.80
  -3  -3   1  194.08   27.10
  -3  -3   1  189.58   21.10
   4   3  -1  485.85   36.20
   4   3  -1  602.94   42.00
   4   3  -1  594.74   46.70
   4   3  -1  595.34   46.30
   4   3  -1  506.55   42.00
  -4  -3   1  527.45   37.70
  -4  -3   1  452.25   40.60
  -4  -3   1  541.05   44.90
  -4  -3   1  489.95   42.50
   5   3  -1  574.34   47.40
   5   3  -1  589.14   46.50
   5   3  -1  583.54   38.30
   5   3  -1  598.44   52.89
  -5  -3   1  506.55   41.20
  -5  -3   1  517.35   48.90
   6   3  -1  179.18   32.30
   6   3  -1  157.08   29.20
   6   3  -1  125.49   23.10
  -6  -3   1  124.49   26.40
   7   3  -1  542.75   64.99
   7   3  -1  519.35   51.29
  -7  -3   1  362.66   53.39
  -8   3   0   16.80   19.70
   8  -3   0   96.59   46.80
   8  -3   0  -25.20   27.50
  -7   3   0  542.35   50.99
  -7   3   0  527.75   47.20
   7  -3   0  583.94   68.59
   7  -3   0  686.63   60.19
   7  -3   0  615.04   46.80
  -6   3   0  206.78   25.60
  -6   3   0  210.18   22.80
   6  -3   0  245.98   42.00
   6  -3   0  228.98   22.10
   6  -3   0  234.08   22.90
   6  -3   0  210.18   33.90
  -5   3   0  146.39   21.60
  -5   3   0  205.58   18.90
  -5   3   0  179.08   27.40
  -5   3   0  158.88   22.10
  -5   3   0  190.48   20.90
   5  -3   0  204.08   30.70
   5  -3   0  181.28   18.20
   5  -3   0  220.78   25.20
  -4   3   0 1096.59   75.79
  -4   3   0 1037.30   75.79
  -4   3   0 1058.89   78.89
  -4   3   0 1114.89   73.89
   4  -3   0 1086.69   71.89
   4  -3   0 1145.59   77.19
   4  -3   0 1095.69   80.29
   4  -3   0 1149.08   73.59
  -3   3   0  222.68   17.60
  -3   3   0  220.18   25.30
  -3   3   0  221.18   18.40
  -3   3   0  182.98   16.40
  -3   3   0  181.98   18.90
   3  -3   0  232.88   17.40
   3  -3   0  222.48   19.70
   3  -3   0  225.38   15.50
   3  -3   0  217.88   24.50
  -2   3   0 3762.72  239.58
  -2   3   0 3687.83  239.28
  -2   3   0 3490.75  239.78
   2  -3   0 3891.11  239.28
   2  -3   0 3669.13  240.18
   2  -3   0 3881.01  242.58
  -1   3   0  244.38   22.30
  -1   3   0  254.67   18.50
  -1   3   0  259.87   20.00
  -1   3   0  248.38   17.20
  -1   3   0  259.07   18.90
   1  -3   0  241.88   20.30
   1  -3   0  236.98   27.00
   1  -3   0  250.07   23.00
   0   3   0 2711.83  168.08
   0   3   0 2497.35  168.58
   0   3   0 2576.64  167.98
   0  -3   0 2764.52  168.38
   0  -3   0 2652.23  168.98
   0  -3   0 2350.86  168.28
   1   3   0  432.26   28.10
   1   3   0  403.36   30.10
   1   3   0  450.75   32.10
   1   3   0  352.46   30.10
  -1  -3   0  378.46   31.90
  -1  -3   0  414.66   27.40
  -1  -3   0  430.46   32.40
  -1  -3   0  369.36   29.70
   2   3   0  980.60   69.69
   2   3   0 1015.20   65.29
   2   3   0 1026.20   66.79
  -2  -3   0  943.71   64.99
  -2  -3   0  888.31   67.49
  -2  -3   0 1078.39   70.09
   3   3   0 1729.93  113.49
   3   3   0 1694.33  114.19
   3   3   0 1803.22  107.09
   3   3   0 1717.03  111.39
  -3  -3   0 1774.52  114.49
  -3  -3   0 1606.14  108.69
  -3  -3   0 1586.44  111.99
  -3  -3   0 1377.96  114.29
   4   3   0   -0.80   12.60
   4   3   0   15.10   12.80
   4   3   0   -2.90    9.90
  -4  -3   0   19.00   15.40
  -4  -3   0   10.90    8.50
  -4  -3   0   -0.80    8.90
  -4  -3   0    5.90   10.00
   5   3   0  935.11   68.49
   5   3   0  787.52   63.09
  -5  -3   0  657.33   70.59
  -5  -3   0  718.73   56.19
  -5  -3   0  825.32   63.69
   6   3   0   19.10   22.30
   6   3   0   45.50   19.20
   6   3   0  102.09   27.50
  -6  -3   0   37.90   17.00
   7   3   0  261.87   43.10
   7   3   0  232.78   40.90
  -7  -3   0  210.98   44.70
  -8   3   1  241.78   36.40
  -8   3   1  245.08   42.90
   8  -3  -1  444.46   73.49
  -7   3   1  148.49   25.40
  -7   3   1  154.58   26.00
   7  -3  -1  152.48   28.20
   7  -3  -1  134.29   22.00
   7  -3  -1  134.99   35.40
  -6   3   1 1061.59   75.49
  -6   3   1 1111.99   79.29
   6  -3  -1 1089.49   73.39
   6  -3  -1 1058.19   73.99
   6  -3  -1 1119.99   82.99
   6  -3  -1 1086.39   73.09
   6  -3  -1 1006.90   84.89
  -5   3   1    6.40    9.80
  -5   3   1    6.50   15.80
  -5   3   1    5.30    7.50
  -5   3   1    2.50    6.40
   5  -3  -1    8.50    6.30
   5  -3  -1   -3.50   13.50
   5  -3  -1    6.20   10.40
   5  -3  -1    5.20    6.50
   5  -3  -1    5.10    6.40
  -4   3   1 1683.33  123.89
  -4   3   1 1734.73  125.89
  -4   3   1 1886.21  123.89
  -4   3   1 1976.60  122.59
   4  -3  -1 1872.11  127.19
   4  -3  -1 2021.90  119.89
   4  -3  -1 1931.01  121.89
   4  -3  -1 1793.72  119.69
   4  -3  -1 1808.42  125.09
  -3   3   1  309.67   32.30
  -3   3   1  337.67   28.50
  -3   3   1  393.46   27.80
  -3   3   1  360.86   27.00
   3  -3  -1  376.06   29.60
   3  -3  -1  383.36   26.80
   3  -3  -1  350.76   31.80
  -2   3   1 2043.20  127.79
  -2   3   1 1852.21  125.99
  -2   3   1 1924.91  124.79
  -2   3   1 1951.10  124.69
   2  -3  -1 2018.10  124.79
   2  -3  -1 1805.02  126.09
   2  -3  -1 1870.81  127.49
  -1   3   1 1698.93  116.39
  -1   3   1 1827.82  119.09
  -1   3   1 1761.82  119.39
  -1   3   1 1813.42  117.09
   1  -3  -1 1786.82  116.99
   1  -3  -1 1892.71  119.79
   1  -3  -1 1816.62  116.99
   1  -3  -1 1908.31  119.39
   0   3   1  382.16   28.70
   0   3   1  337.17   25.30
   0   3   1  371.66   24.70
   0   3   1  325.87   23.70
   0  -3  -1  357.56   24.20
   0  -3  -1  331.37   26.70
   0  -3  -1  345.07   29.00
   1   3   1  956.60   73.39
   1   3   1 1130.39   75.39
   1   3   1 1111.69   78.09
   1   3   1 1083.89   71.59
   1   3   1 1099.99   74.99
   1   3   1 1190.68   73.79
  -1  -3  -1 1095.09   76.09
  -1  -3  -1 1237.38   76.09
  -1  -3  -1 1113.19   72.89
   2   3   1    9.50    8.00
   2   3   1    1.60    5.90
   2   3   1  -14.80    7.90
  -2  -3  -1    2.60    7.40
  -2  -3  -1    8.40   10.90
  -2  -3  -1    7.90    5.40
  -2  -3  -1   -1.50    5.80
   3   3   1 2651.63  165.08
   3   3   1 2471.05  164.78
   3   3   1 2695.63  167.48
  -3  -3  -1 2683.93  166.28
  -3  -3  -1 2254.57  164.28
  -3  -3  -1 2252.17  167.18
  -3  -3  -1 2407.86  161.68
   4   3   1  192.58   25.10
   4   3   1  209.08   26.90
  -4  -3  -1  154.28   22.60
  -4  -3  -1  139.59   26.30
  -4  -3  -1  159.08   19.80
   5   3   1  294.97   41.00
   5   3   1  402.46   41.50
  -5  -3  -1  310.37   47.30
  -5  -3  -1  258.57   30.20
  -5  -3  -1  326.47   34.20
   6   3   1  389.86   49.80
   6   3   1  377.76   55.99
  -6  -3  -1  256.97   43.90
  -6  -3  -1  343.67   39.80
   7   3   1   83.19   35.60
   7   3   1  143.49   50.19
   7   3   1   67.49   25.10
  -8   3   2  458.45   52.49
   8  -3  -2  415.36   59.09
   8  -3  -2  501.95   71.89
  -7   3   2  105.99   21.30
  -7   3   2  112.89   23.40
   7  -3  -2  120.19   26.00
   7  -3  -2  117.39   17.00
   7  -3  -2  164.68   37.40
  -6   3   2  422.76   52.59
  -6   3   2  552.24   45.30
  -6   3   2  525.35   43.10
   6  -3  -2  575.74   53.29
   6  -3  -2  552.04   51.19
   6  -3  -2  546.35   39.40
   6  -3  -2  576.24   40.80
   6  -3  -2  536.45   41.30
  -5   3   2  236.48   32.40
  -5   3   2  260.17   25.20
  -5   3   2  236.38   27.70
  -5   3   2  264.27   24.50
   5  -3  -2  255.97   31.60
   5  -3  -2  262.87   21.50
   5  -3  -2  268.07   29.10
   5  -3  -2  269.27   22.70
   5  -3  -2  274.27   21.20
  -4   3   2  785.32   51.59
  -4   3   2  794.72   52.69
  -4   3   2  722.93   55.59
  -4   3   2  660.23   53.09
   4  -3  -2  705.93   50.49
   4  -3  -2  721.03   48.70
   4  -3  -2  690.93   54.89
   4  -3  -2  767.52   54.89
   4  -3  -2  724.63   48.20
  -3   3   2 5515.45  336.67
  -3   3   2 5376.06  336.57
  -3   3   2 5147.98  338.07
  -3   3   2 4918.71  338.77
   3  -3  -2 5237.18  339.17
   3  -3  -2 5209.48  338.57
   3  -3  -2 5267.57  335.97
  -2   3   2   66.39   12.50
  -2   3   2   96.49    8.90
  -2   3   2   82.39    9.50
  -2   3   2   88.69    7.40
  -2   3   2   99.99   12.40
   2  -3  -2   85.19    9.40
   2  -3  -2   89.89   12.40
   2  -3  -2  106.99   15.20
  -1   3   2 3045.60  189.28
  -1   3   2 2889.71  188.68
  -1   3   2 2835.52  189.08
  -1   3   2 2948.00  191.78
   1  -3  -2 2919.51  188.98
   1  -3  -2 2961.10  189.08
   1  -3  -2 3012.20  191.98
   0   3   2  182.98   15.00
   0   3   2  189.98   13.50
   0   3   2  156.98   15.00
   0   3   2  163.88   19.20
   0  -3  -2  199.08   20.20
   0  -3  -2  153.08   16.00
   0  -3  -2  179.68   13.10
   0  -3  -2  181.78   14.30
   1   3   2  766.22   57.39
   1   3   2  802.12   61.19
   1   3   2  849.72   56.99
   1   3   2  794.02   57.99
   1   3   2  894.01   53.89
  -1  -3  -2  832.62   55.79
  -1  -3  -2  788.82   58.69
  -1  -3  -2  869.11   57.39
   2   3   2 1190.28   78.29
   2   3   2 1183.98   80.19
   2   3   2 1099.99   77.79
  -2  -3  -2 1087.99   76.09
  -2  -3  -2 1238.58   78.79
  -2  -3  -2 1129.69   80.39
  -2  -3  -2 1055.49   78.29
   3   3   2  508.25   40.90
   3   3   2  518.35   42.20
   3   3   2  534.65   39.90
  -3  -3  -2  463.75   37.00
  -3  -3  -2  495.25   43.70
  -3  -3  -2  535.05   40.70
  -3  -3  -2  422.96   39.50
   4   3   2  945.71   71.29
   4   3   2 1007.20   73.39
  -4  -3  -2  958.60   69.69
  -4  -3  -2  874.81   73.89
  -4  -3  -2  860.41   65.39
   5   3   2   14.30   17.20
   5   3   2   16.20   24.10
  -5  -3  -2   28.20   22.90
  -5  -3  -2   -4.10   10.70
   6   3   2  530.65   56.09
   6   3   2  380.96   65.49
  -6  -3  -2  433.26   45.40
  -6  -3  -2  362.46   60.79
  -8   3   3  200.48   36.60
  -8   3   3  158.88   30.30
   8  -3  -3  147.19   41.80
   8  -3  -3  178.38   37.30
  -7   3   3  661.93   55.19
  -7   3   3  546.25   53.89
   7  -3  -3  764.12   62.29
   7  -3  -3  678.23   64.79
   7  -3  -3  610.74   48.00
  -6   3   3  212.18   25.10
  -6   3   3  166.48   30.30
  -6   3   3  222.48   25.90
   6  -3  -3  253.47   24.70
   6  -3  -3  197.58   33.90
   6  -3  -3  196.98   20.30
   6  -3  -3  190.08   33.30
  -5   3   3  804.92   58.39
  -5   3   3  697.83   61.39
  -5   3   3  801.82   57.29
   5  -3  -3  829.82   61.99
   5  -3  -3  823.42   53.69
   5  -3  -3  759.92   61.49
   5  -3  -3  816.92   55.69
   5  -3  -3  762.32   55.69
  -4   3   3   42.80   13.80
  -4   3   3   39.90    9.50
  -4   3   3   42.30   11.10
  -4   3   3   41.80    8.40
   4  -3  -3   32.00   12.30
   4  -3  -3   20.30    8.60
   4  -3  -3   26.50   10.20
   4  -3  -3   40.10    8.80
   4  -3  -3   35.00    5.90
  -3   3   3 2567.74  163.88
  -3   3   3 2472.35  169.08
  -3   3   3 2398.46  168.08
  -3   3   3 2531.95  166.48
  -3   3   3 2656.43  166.08
   3  -3  -3 2536.05  169.08
   3  -3  -3 2755.92  169.58
   3  -3  -3 2606.54  166.08
   3  -3  -3 2479.55  163.88
  -2   3   3 1077.49   71.49
  -2   3   3 1171.98   73.19
  -2   3   3 1064.29   68.99
  -2   3   3 1003.40   67.39
  -2   3   3  987.10   67.09
   2  -3  -3 1022.00   68.49
   2  -3  -3  969.60   71.29
   2  -3  -3  952.50   67.19
  -1   3   3 2699.33  176.38
  -1   3   3 2804.72  176.88
  -1   3   3 2889.71  176.98
   1  -3  -3 2681.93  176.48
   1  -3  -3 2807.02  180.38
   1  -3  -3 2694.53  176.38
   1  -3  -3 2613.54  176.58
   0   3   3 1580.34  103.39
   0   3   3 1595.94  107.09
   0   3   3 1621.04  103.49
   0  -3  -3 1496.75  107.49
   0  -3  -3 1578.34  102.79
   0  -3  -3 1600.44  101.59
   0  -3  -3 1512.95  103.79
   1   3   3   15.60    8.40
   1   3   3  -13.10   10.30
   1   3   3  -10.90    7.80
   1   3   3   -3.40    5.50
   1   3   3   21.50    5.80
  -1  -3  -3    9.00    6.80
  -1  -3  -3   -9.40    7.90
  -1  -3  -3    5.40    6.30
  -1  -3  -3    6.20    2.80
   2   3   3 2701.73  193.48
   2   3   3 3108.69  189.98
   2   3   3 2698.43  188.18
   2   3   3 2777.32  190.68
  -2  -3  -3 2787.82  187.18
  -2  -3  -3 2976.90  191.08
  -2  -3  -3 3111.49  188.88
   3   3   3   40.00   15.00
   3   3   3   32.00   12.50
   3   3   3   24.30   10.90
  -3  -3  -3   32.80   10.40
  -3  -3  -3   53.19   16.80
  -3  -3  -3   41.50   12.40
  -3  -3  -3   30.60   12.00
   4   3   3  627.54   55.79
   4   3   3  562.84   54.29
  -4  -3  -3  659.83   50.99
  -4  -3  -3  609.34   59.19
   5   3   3  191.28   31.40
   5   3   3  210.78   39.80
  -5  -3  -3  138.29   25.70
  -5  -3  -3  162.08   36.40
   6   3   3  281.87   51.89
   6   3   3  341.97   53.09
  -6  -3  -3  198.98   42.80
  -6  -3  -3  287.27   37.80
  -8   3   4  -32.10   22.80
  -8   3   4  -15.40   18.10
   8  -3  -4   15.50   28.10
   8  -3  -4   -1.10   32.90
  -7   3   4  567.84   54.59
  -7   3   4  652.63   54.79
   7  -3  -4  674.43   61.29
   7  -3  -4  559.84   47.10
   7  -3  -4  752.82   62.19
  -6   3   4  103.19   19.80
  -6   3   4  126.39   27.10
  -6   3   4  109.99   20.10
   6  -3  -4  100.89   22.00
   6  -3  -4   92.29   16.20
   6  -3  -4  120.09   19.70
   6  -3  -4  146.99   25.40
  -5   3   4  710.93   52.59
  -5   3   4  709.53   52.59
  -5   3   4  593.44   55.69
   5  -3  -4  817.82   56.49
   5  -3  -4  715.33   53.19
   5  -3  -4  697.13   56.69
   5  -3  -4  656.83   50.29
   5  -3  -4  677.93   47.80
  -4   3   4  814.92   63.49
  -4   3   4  907.51   62.29
  -4   3   4  833.62   65.19
  -4   3   4  943.81   62.09
  -4   3   4  882.71   58.29
   4  -3  -4  880.81   58.89
   4  -3  -4  839.82   65.09
   4  -3  -4  902.31   64.69
   4  -3  -4  895.71   61.09
  -3   3   4  578.44   46.80
  -3   3   4  611.24   42.40
  -3   3   4  656.43   43.90
  -3   3   4  655.23   45.30
  -3   3   4  676.13   49.40
   3  -3  -4  605.64   48.00
   3  -3  -4  591.14   42.60
   3  -3  -4  603.34   47.60
   3  -3  -4  676.03   44.70
  -2   3   4 2357.86  158.48
  -2   3   4 2419.86  159.68
  -2   3   4 2426.96  158.08
  -2   3   4 2550.74  162.58
  -2   3   4 2493.05  162.08
   2  -3  -4 2480.75  162.58
   2  -3  -4 2501.55  159.18
   2  -3  -4 2373.86  158.28
  -1   3   4   72.89   12.10
  -1   3   4   77.79   11.20
  -1   3   4   64.29   10.40
  -1   3   4   77.59   14.40
   1  -3  -4   59.89   13.40
   1  -3  -4   62.49    9.70
   1  -3  -4   70.09   10.20
   1  -3  -4   69.09    9.40
   0   3   4 2696.23  156.28
   0   3   4 2422.56  156.78
   0   3   4 2482.65  157.18
   0   3   4 2445.76  160.48
   0  -3  -4 2355.66  161.48
   0  -3  -4 2398.06  154.78
   0  -3  -4 2230.98  156.88
   0  -3  -4 2178.68  155.78
   1   3   4  375.26   31.70
   1   3   4  402.16   27.90
   1   3   4  370.46   35.40
   1   3   4  354.66   29.40
   1   3   4  374.66   30.70
  -1  -3  -4  365.56   28.80
  -1  -3  -4  346.37   30.50
  -1  -3  -4  395.76   28.60
  -1  -3  -4  366.46   25.50
   2   3   4 1065.29   74.29
   2   3   4  945.31   71.09
   2   3   4  940.01   76.49
   2   3   4 1086.59   73.99
  -2  -3  -4 1026.80   73.89
  -2  -3  -4 1124.89   71.29
  -2  -3  -4  958.00   69.99
   3   3   4  889.11   67.99
   3   3   4  948.71   68.59
  -3  -3  -4  756.02   62.59
  -3  -3  -4  865.11   68.69
  -3  -3  -4  938.91   64.89
   4   3   4  189.08   32.50
   4   3   4  203.48   31.40
  -4  -3  -4  197.28   32.30
  -4  -3  -4  156.58   24.20
   5   3   4  497.85   55.19
   5   3   4  484.65   62.89
  -5  -3  -4  485.45   45.40
  -5  -3  -4  496.75   58.49
   6   3   4  -11.50   40.00
  -6  -3  -4    9.80   16.90
  -6  -3  -4   43.20   34.30
  -8   3   5  220.18   39.30
  -8   3   5  182.98   32.60
   8  -3  -5  241.98   40.80
   8  -3  -5  194.28   42.00
  -7   3   5  297.77   34.30
  -7   3   5  293.07   37.90
   7  -3  -5  298.17   44.50
   7  -3  -5  265.47   29.40
   7  -3  -5  339.97   46.40
  -6   3   5  637.74   59.79
  -6   3   5  636.34   55.49
  -6   3   5  678.23   54.19
   6  -3  -5  668.53   57.19
   6  -3  -5  706.33   58.19
   6  -3  -5  630.74   48.20
   6  -3  -5  789.12   61.99
  -5   3   5   19.20   18.50
  -5   3   5   17.40   11.80
  -5   3   5    7.90    8.10
   5  -3  -5   11.20   10.90
   5  -3  -5   10.30   13.70
   5  -3  -5   41.60   15.60
   5  -3  -5   12.60    8.00
  -4   3   5 1126.29   73.19
  -4   3   5 1044.30   70.29
  -4   3   5 1048.40   77.29
  -4   3   5 1059.79   74.09
  -4   3   5  972.90   75.19
   4  -3  -5 1035.50   70.49
   4  -3  -5 1035.20   77.19
   4  -3  -5 1103.29   72.99
  -3   3   5   92.59   16.80
  -3   3   5   80.99   13.40
  -3   3   5   93.69   11.50
  -3   3   5   84.79   11.30
  -3   3   5   87.89   14.60
  -3   3   5   96.89   10.70
   3  -3  -5   65.89   11.50
   3  -3  -5   74.19   12.10
   3  -3  -5  110.69   17.50
  -2   3   5 1980.30  132.49
  -2   3   5 1984.70  130.29
  -2   3   5 1913.71  128.49
  -2   3   5 1995.90  128.99
   2  -3  -5 2058.69  129.59
   2  -3  -5 1835.82  128.49
   2  -3  -5 2040.80  133.69
  -1   3   5 1169.08   76.39
  -1   3   5 1077.69   75.39
  -1   3   5 1068.29   78.99
  -1   3   5 1153.08   75.89
   1  -3  -5 1141.59   75.09
   1  -3  -5 1152.38   80.69
   1  -3  -5 1160.68   75.29
   1  -3  -5 1067.19   75.49
   0   3   5 1073.69   68.99
   0   3   5  912.51   72.49
   0   3   5 1017.40   69.89
   0   3   5  967.90   68.99
   0  -3  -5 1154.58   76.39
   0  -3  -5 1010.50   69.59
   0  -3  -5  958.90   66.89
   0  -3  -5  992.10   68.49
   1   3   5  908.61   65.89
   1   3   5  997.60   65.09
   1   3   5  842.32   69.69
   1   3   5  997.90   68.49
   1   3   5  988.40   67.79
  -1  -3  -5  986.00   63.69
  -1  -3  -5  926.01   61.79
  -1  -3  -5  907.31   64.99
  -1  -3  -5  892.61   66.89
   2   3   5   -0.20   11.30
   2   3   5   -8.90   13.90
   2   3   5    5.40    9.90
   2   3   5    5.20   11.90
  -2  -3  -5    6.40    9.10
  -2  -3  -5    9.50   11.60
  -2  -3  -5   18.30    9.50
   3   3   5 1419.86  100.79
   3   3   5 1407.86  100.39
  -3  -3  -5 1202.98   99.39
  -3  -3  -5 1434.56   95.99
   4   3   5   53.09   24.10
   4   3   5   38.20   17.90
  -4  -3  -5   17.40   13.70
  -4  -3  -5   14.60   21.10
   5   3   5  383.96   57.49
   5   3   5  490.05   55.49
  -5  -3  -5  489.85   61.09
  -5  -3  -5  463.55   44.30
  -8   3   6  318.37   50.99
  -8   3   6  389.66   50.09
   8  -3  -6  511.15   64.29
   8  -3  -6  510.85   63.59
  -7   3   6   33.10   21.90
  -7   3   6   59.89   17.70
   7  -3  -6  106.49   28.30
   7  -3  -6   83.09   28.50
   7  -3  -6   30.20   15.10
  -6   3   6  608.94   61.39
  -6   3   6  680.13   56.89
  -6   3   6  710.73   55.29
   6  -3  -6  799.22   64.09
   6  -3  -6  663.83   50.09
   6  -3  -6  640.34   62.79
   6  -3  -6  670.03   57.89
  -5   3   6  180.48   26.50
  -5   3   6  230.98   25.30
  -5   3   6  235.68   31.40
  -5   3   6  209.68   19.70
  -5   3   6  225.98   19.30
   5  -3  -6  207.58   21.50
   5  -3  -6  232.78   32.80
  -4   3   6  949.31   79.59
  -4   3   6 1131.89   74.89
  -4   3   6 1136.09   79.19
  -4   3   6 1098.19   75.19
  -4   3   6 1082.59   82.19
  -4   3   6 1220.98   77.89
   4  -3  -6 1151.88   75.69
   4  -3  -6 1129.79   82.39
   4  -3  -6 1129.49   77.79
  -3   3   6 1307.97   85.39
  -3   3   6 1212.78   85.19
  -3   3   6 1352.86   86.29
  -3   3   6 1349.66   91.59
  -3   3   6 1175.78   89.09
  -3   3   6 1262.27   88.29
   3  -3  -6 1260.07   91.09
   3  -3  -6 1361.66   87.39
   3  -3  -6 1226.28   85.59
  -2   3   6  125.69   16.60
  -2   3   6  110.19   14.80
  -2   3   6  121.49   19.30
  -2   3   6  125.09   14.80
   2  -3  -6  111.79   20.70
   2  -3  -6  127.79   14.30
   2  -3  -6  149.29   15.50
   2  -3  -6  131.09   15.20
  -1   3   6 2145.59  146.79
  -1   3   6 2056.59  149.99
  -1   3   6 2419.96  148.59
  -1   3   6 2348.17  147.79
   1  -3  -6 2066.59  146.89
   1  -3  -6 2286.17  152.88
   1  -3  -6 2429.76  146.79
   1  -3  -6 2158.68  146.39
   0   3   6  -15.40   10.00
   0   3   6   18.20    9.10
   0   3   6    6.20    8.20
   0   3   6   18.10    9.40
   0  -3  -6    9.10    8.70
   0  -3  -6   13.00    6.30
   0  -3  -6    4.00    7.10
   0  -3  -6   17.90   13.90
   1   3   6 1351.26   99.49
   1   3   6 1384.16  104.19
   1   3   6 1488.65  102.19
   1   3   6 1592.84   99.29
   1   3   6 1535.05  101.89
  -1  -3  -6 1535.85   95.69
  -1  -3  -6 1439.76  100.69
  -1  -3  -6 1271.97   98.39
  -1  -3  -6 1524.55   96.59
   2   3   6  533.35   46.30
   2   3   6  533.35   48.10
  -2  -3  -6  493.95   47.00
  -2  -3  -6  521.35   35.80
  -2  -3  -6  594.14   42.10
   3   3   6  587.24   51.79
   3   3   6  538.55   49.60
  -3  -3  -6  462.05   49.00
  -3  -3  -6  444.46   42.30
   4   3   6  723.33   60.39
   4   3   6  541.35   64.19
  -4  -3  -6  615.64   51.69
  -4  -3  -6  559.24   60.89
   5   3   6    2.70   38.40
   5   3   6   75.29   29.90
  -5  -3  -6   80.49   19.80
  -5  -3  -6  117.09   32.80
  -8   3   7  300.17   47.20
  -8   3   7  232.98   43.30
   8  -3  -7  267.57   47.10
  -7   3   7  255.37   24.70
  -7   3   7  242.18   40.00
   7  -3  -7  334.87   52.09
   7  -3  -7  207.78   31.40
  -6   3   7  417.96   31.90
  -6   3   7  418.96   51.39
  -6   3   7  391.16   42.10
  -6   3   7  376.96   32.40
  -6   3   7  422.86   38.90
   6  -3  -7  435.16   49.00
   6  -3  -7  402.36   35.50
  -5   3   7  550.14   52.79
  -5   3   7  485.05   47.50
  -5   3   7  560.24   39.90
  -5   3   7  573.94   45.40
  -5   3   7  570.84   40.60
   5  -3  -7  556.94   42.30
   5  -3  -7  469.15   51.09
  -4   3   7   57.99   11.10
  -4   3   7   82.89   14.20
  -4   3   7   49.99   20.20
  -4   3   7   62.09   16.10
  -4   3   7   67.99   11.30
   4  -3  -7   63.29   13.10
   4  -3  -7   64.09   17.40
  -3   3   7 1246.28   78.89
  -3   3   7 1178.28   79.69
  -3   3   7 1135.69   84.59
  -3   3   7 1150.08   81.99
  -3   3   7 1073.09   82.49
  -3   3   7 1131.29   78.39
   3  -3  -7 1170.98   79.19
   3  -3  -7 1168.48   85.19
  -2   3   7  286.47   24.30
  -2   3   7  242.68   24.00
  -2   3   7  285.17   29.30
  -2   3   7  276.87   27.00
   2  -3  -7  273.07   25.20
   2  -3  -7  256.07   31.00
   2  -3  -7  295.37   23.90
   2  -3  -7  252.87   24.40
  -1   3   7 1067.29   74.89
  -1   3   7 1037.00   77.89
  -1   3   7  998.10   74.09
  -1   3   7 1230.28   76.59
   1  -3  -7 1016.50   74.39
   1  -3  -7 1088.09   80.89
   1  -3  -7  986.20   73.19
   1  -3  -7 1133.29   73.49
   0   3   7  256.87   28.80
   0   3   7  276.07   33.20
   0   3   7  326.27   29.20
   0   3   7  307.37   29.70
   0  -3  -7  304.37   24.40
   0  -3  -7  245.78   26.90
   0  -3  -7  313.17   28.70
   0  -3  -7  275.77   35.30
   1   3   7  499.75   44.20
   1   3   7  572.84   49.00
   1   3   7  554.34   53.39
   1   3   7  558.84   47.90
  -1  -3  -7  656.03   41.00
  -1  -3  -7  567.74   40.90
  -1  -3  -7  586.84   47.60
   2   3   7 1274.57   97.29
   2   3   7 1330.77   96.49
  -2  -3  -7 1307.17   85.99
  -2  -3  -7 1377.06   90.79
  -2  -3  -7 1289.97   95.79
   3   3   7    3.20   21.50
   3   3   7    0.90   17.30
  -3  -3  -7    3.50   14.20
  -3  -3  -7   -5.50   17.00
   4   3   7  774.82   75.69
   4   3   7  832.32   69.89
  -4  -3  -7  709.83   61.29
  -4  -3  -7  741.63   71.89
  -8   3   8    4.60   23.40
  -8   3   8   26.10   27.60
  -7   3   8  445.26   44.40
  -7   3   8  431.96   48.20
  -7   3   8  406.66   34.30
   7  -3  -8  429.16   58.39
   7  -3  -8  345.57   40.60
  -6   3   8   -5.10   17.00
  -6   3   8   39.40   28.70
  -6   3   8    4.00   11.80
  -6   3   8    9.00   13.30
  -6   3   8   16.50    9.70
   6  -3  -8  -13.50   20.00
   6  -3  -8  -11.00   13.60
  -5   3   8 1166.08   82.29
  -5   3   8 1214.68   83.49
  -5   3   8 1178.38   94.39
  -5   3   8 1172.98   89.39
  -5   3   8 1181.98   87.69
   5  -3  -8 1286.07   84.99
   5  -3  -8 1328.27   94.79
  -4   3   8  305.77   30.40
  -4   3   8  325.57   26.80
  -4   3   8  347.57   43.10
  -4   3   8  252.07   33.00
  -4   3   8  295.97   25.90
   4  -3  -8  291.77   37.60
   4  -3  -8  260.67   28.40
  -3   3   8  484.05   44.30
  -3   3   8  630.94   47.70
  -3   3   8  593.64   42.20
  -3   3   8  463.55   49.90
  -3   3   8  541.05   42.20
   3  -3  -8  584.44   50.79
   3  -3  -8  634.74   44.50
  -2   3   8 1273.07   88.39
  -2   3   8 1271.37   85.59
  -2   3   8 1145.39   84.69
  -2   3   8 1204.78   89.09
   2  -3  -8 1263.07   85.69
   2  -3  -8 1255.07   84.39
   2  -3  -8 1241.88   85.79
   2  -3  -8 1217.28   91.79
  -1   3   8  103.79   17.90
  -1   3   8   75.29   14.90
  -1   3   8   64.39   16.80
  -1   3   8   53.69   14.00
   1  -3  -8   91.99   14.10
   1  -3  -8   78.59   15.20
   1  -3  -8   58.89   19.50
   1  -3  -8   43.60   12.60
   0   3   8  871.91   65.19
   0   3   8  886.51   66.29
   0   3   8  742.13   68.59
   0  -3  -8  872.01   64.79
   0  -3  -8  831.32   73.69
   0  -3  -8  959.70   61.09
   1   3   8   92.79   20.00
   1   3   8   77.69   17.30
   1   3   8   55.39   19.90
  -1  -3  -8   54.09   11.20
  -1  -3  -8   57.09   17.10
   2   3   8  821.02   66.39
   2   3   8  768.02   67.69
  -2  -3  -8  789.42   64.89
   3   3   8  130.49   32.00
   3   3   8  189.08   32.40
  -3  -3  -8  238.88   40.50
  -3  -3  -8  163.58   27.40
   4   3   8  321.37   48.30
   4   3   8  331.07   51.59
  -4  -3  -8  326.67   36.80
  -4  -3  -8  378.06   55.19
  -7   3   9  251.97   35.30
  -7   3   9  213.48   26.60
  -7   3   9  233.08   41.70
   7  -3  -9  155.08   28.60
   7  -3  -9  269.27   43.90
  -6   3   9  378.76   39.00
  -6   3   9  307.77   42.10
  -6   3   9  362.86   31.80
   6  -3  -9  333.67   38.50
   6  -3  -9  465.75   52.29
  -5   3   9   68.99   32.60
  -5   3   9   38.20   14.10
  -5   3   9   52.89   19.60
  -5   3   9   53.79   12.50
  -5   3   9   68.59   18.20
   5  -3  -9   22.70   21.80
   5  -3  -9   37.70   15.40
  -4   3   9 1021.30   77.19
  -4   3   9  790.42   62.59
  -4   3   9  806.52   65.69
  -4   3   9  832.92   61.19
  -4   3   9  836.62   67.99
   4  -3  -9  931.41   64.19
   4  -3  -9  906.81   73.79
  -3   3   9    0.80   10.70
  -3   3   9   13.70   21.60
  -3   3   9   13.80   10.90
  -3   3   9  -22.10   13.20
   3  -3  -9   13.00   11.70
   3  -3  -9    9.60   17.50
  -2   3   9 1387.46   96.89
  -2   3   9 1360.86   99.69
   2  -3  -9 1393.86  104.29
   2  -3  -9 1422.06   96.89
  -1   3   9  272.27   32.20
  -1   3   9  243.18   30.90
   1  -3  -9  242.38   30.60
   1  -3  -9  251.37   26.40
   1  -3  -9  270.67   40.60
   0   3   9  901.31   69.79
   0   3   9  875.21   69.69
   0  -3  -9  883.81   63.79
   0  -3  -9  922.21   68.69
   0  -3  -9  925.41   79.49
   1   3   9  766.22   62.79
   1   3   9  699.83   60.29
   1   3   9  752.62   63.69
  -1  -3  -9  742.93   60.79
  -1  -3  -9  766.42   53.59
   2   3   9   90.49   27.50
   2   3   9   67.09   21.70
   2   3   9   97.99   27.00
  -2  -3  -9  145.59   26.00
   3   3   9  539.25   66.69
   3   3   9  616.64   61.79
  -3  -3  -9  659.33   62.59
  -7   3  10  -15.00   24.20
  -7   3  10   28.10   20.80
   7  -3 -10    7.40   32.70
   7  -3 -10  -35.10   28.30
  -6   3  10  344.77   41.90
  -6   3  10  378.86   46.10
  -6   3  10  332.57   34.00
   6  -3 -10  408.96   56.79
   6  -3 -10  423.26   42.70
  -5   3  10   -0.20   18.70
  -5   3  10  -21.10   16.30
  -5   3  10   10.00   11.70
   5  -3 -10    8.30   24.30
   5  -3 -10    1.90   16.30
  -4   3  10  828.22   64.49
  -4   3  10  825.02   71.79
   4  -3 -10  929.91   67.59
   4  -3 -10 1001.30   78.19
  -3   3  10  384.36   37.70
  -3   3  10  352.86   42.00
   3  -3 -10  415.66   40.40
   3  -3 -10  488.35   52.09
  -2   3  10  201.38   27.20
  -2   3  10  166.18   29.20
   2  -3 -10  171.48   34.90
   2  -3 -10  179.68   28.10
  -1   3  10  850.91   66.79
  -1   3  10  846.02   69.19
   1  -3 -10  828.22   78.69
   1  -3 -10  858.71   65.79
   0   3  10   64.29   21.30
   0   3  10   57.79   19.20
   0  -3 -10   38.70   28.80
   0  -3 -10   47.60   13.70
   0  -3 -10   77.89   18.10
   1   3  10  771.72   62.89
   1   3  10  672.83   64.59
   1   3  10  668.03   63.09
  -1  -3 -10  754.42   62.79
   2   3  10   90.59   24.50
   2   3  10   57.09   27.10
  -2  -3 -10   81.79   23.60
  -6   3  11  151.18   23.80
  -6   3  11  177.28   32.60
  -6   3  11  142.79   29.70
   6  -3 -11  130.59   34.90
   6  -3 -11  174.68   27.80
  -5   3  11  257.47   45.50
  -5   3  11  292.57   35.70
   5  -3 -11  394.46   40.40
   5  -3 -11  393.96   53.79
  -4   3  11  172.18   31.20
  -4   3  11  155.28   24.30
   4  -3 -11  202.68   37.20
   4  -3 -11  199.38   31.10
  -3   3  11  782.12   63.09
  -3   3  11  764.92   69.09
   3  -3 -11  815.92   64.29
   3  -3 -11  869.11   76.19
  -2   3  11   25.20   17.70
  -2   3  11   17.40   21.80
   2  -3 -11   12.00   15.40
   2  -3 -11   44.10   28.40
  -1   3  11  732.03   64.29
  -1   3  11  782.32   70.59
   1  -3 -11  798.72   63.59
   0   3  11  160.88   32.30
   0   3  11  200.38   34.50
   0   3  11  164.28   33.50
   0  -3 -11  232.38   34.60
   1   3  11  563.64   54.59
   1   3  11  556.04   74.79
   1   3  11  531.05   60.19
  -1  -3 -11  615.34   57.59
   2   3  11  518.45   55.89
   2   3  11  377.56   61.89
  -2  -3 -11  591.84   57.69
  -6   3  12   17.10   29.60
   6  -3 -12  -20.40   33.90
   6  -3 -12   60.49   23.90
  -5   3  12  365.86   51.99
  -5   3  12  374.46   40.70
   5  -3 -12  349.57   63.09
   5  -3 -12  458.05   44.00
  -4   3  12  116.29   23.10
  -4   3  12  113.89   30.70
   4  -3 -12  100.99   33.20
   4  -3 -12   99.69   22.70
  -3   3  12  344.97   49.50
  -3   3  12  317.27   40.00
   3  -3 -12  433.26   42.80
   3  -3 -12  324.37   56.09
  -2   3  12  406.86   47.30
  -2   3  12  399.66   52.89
   2  -3 -12  559.14   49.20
  -1   3  12  262.87   42.50
  -1   3  12  214.28   33.60
   1  -3 -12  177.58   44.90
   0   3  12  446.26   56.79
   0   3  12  355.06   50.29
   0   3  12  409.46   47.70
   1   3  12   54.19   24.00
   1   3  12    4.20   28.20
  -1  -3 -12   59.89   26.40
  -5   3  13  109.99   26.90
  -5   3  13  157.28   37.00
   5  -3 -13  241.58   45.20
  -4   3  13  305.37   54.89
  -4   3  13  329.97   42.00
   4  -3 -13  419.86   67.49
  -3   3  13   16.70   21.60
  -3   3  13   53.39   30.00
   3  -3 -13   65.09   36.50
  -2   3  13  519.65   66.29
  -2   3  13  524.95   57.89
   2  -3 -13  518.95   75.19
   2  -3 -13  711.03   57.69
  -1   3  13  -26.20   24.70
  -1   3  13   23.60   34.40
   1  -3 -13   47.30   40.80
   0   4 -13  560.24   54.79
   0   4 -13  505.75   43.40
   0  -4  13  547.95   81.79
   0  -4  13  405.76   61.89
   1   4 -13    1.70   21.90
  -1  -4  13   42.90   41.60
  -1  -4  13   42.10   30.50
  -1  -4  13  -36.60   46.80
   2   4 -13  372.36   49.00
  -2  -4  13  270.37   62.89
  -2  -4  13  458.35   54.59
   3   4 -13  -10.80   24.80
  -3  -4  13   11.40   44.20
  -3  -4  13   43.90   39.70
   4   4 -13  114.19   32.00
  -4  -4  13   60.19   42.70
  -4  -4  13  192.78   47.70
  -2   4 -12  698.63   61.09
  -2   4 -12  587.14   49.20
   2  -4  12  530.95   92.89
   2  -4  12  526.95   73.09
  -1   4 -12   84.89   17.30
  -1   4 -12  119.29   26.70
   1  -4  12   77.59   33.20
   1  -4  12  103.29   45.70
   0   4 -12  234.58   38.70
   0  -4  12  242.78   38.30
   0  -4  12  292.37   51.99
   0  -4  12  175.18   53.89
   1   4 -12  160.08   29.70
  -1  -4  12  182.88   44.00
  -1  -4  12  176.58   49.60
  -1  -4  12  207.48   36.10
   2   4 -12  200.78   33.20
  -2  -4  12  253.27   49.00
  -2  -4  12  249.68   33.50
   3   4 -12  546.05   48.60
   3   4 -12  386.86   49.30
  -3  -4  12  399.46   68.39
   4   4 -12   -7.10   23.30
   4   4 -12   71.69   29.50
  -4  -4  12   68.09   37.50
  -4  -4  12   28.60   36.10
   5   4 -12  187.48   33.60
   5   4 -12  244.48   39.30
  -5  -4  12  103.89   39.90
  -5  -4  12  180.58   45.20
  -3   4 -11  121.59   22.30
   3  -4  11  113.29   39.10
  -2   4 -11  734.23   59.79
  -2   4 -11  675.73   51.99
   2  -4  11  450.55   82.49
   2  -4  11  617.34   71.19
  -1   4 -11  601.54   50.79
  -1   4 -11  541.45   43.90
   1  -4  11  478.85   58.99
   1  -4  11  426.96   70.79
   0   4 -11  131.39   25.10
   0  -4  11  141.99   32.40
   0  -4  11   97.49   43.40
   0  -4  11  111.59   36.50
   1   4 -11  528.25   50.79
   1   4 -11  543.25   43.90
  -1  -4  11  563.64   51.79
  -1  -4  11  461.15   63.89
   2   4 -11   15.00   15.10
   2   4 -11    8.00   18.30
   2   4 -11   39.80   14.80
  -2  -4  11   46.50   18.90
  -2  -4  11   37.90   35.10
  -2  -4  11   -2.10   28.00
   3   4 -11  569.84   49.30
   3   4 -11  509.55   51.09
  -3  -4  11  589.34   64.99
  -3  -4  11  487.85   45.70
   4   4 -11   81.29   25.00
   4   4 -11   85.39   23.10
  -4  -4  11   64.99   31.10
  -4  -4  11   70.09   31.40
   5   4 -11  205.18   36.00
   5   4 -11  114.09   29.10
  -5  -4  11  155.08   40.90
  -5  -4  11  124.89   36.70
  -4   4 -10  148.79   24.60
   4  -4  10  127.49   42.80
  -3   4 -10  771.82   61.39
  -3   4 -10  607.64   52.29
   3  -4  10  695.03   72.59
  -2   4 -10   24.50   10.70
  -2   4 -10   65.29   18.20
   2  -4  10  -19.40   25.90
   2  -4  10   -4.90   35.00
  -1   4 -10  784.92   62.39
  -1   4 -10  779.82   57.49
   1  -4  10  685.83   77.29
   1  -4  10  793.42   68.99
   0   4 -10  127.39   22.60
   0  -4  10   59.29   31.20
   0  -4  10  108.89   39.60
   0  -4  10  150.88   27.70
   0  -4  10  123.29   13.30
   1   4 -10 1137.39   73.39
   1   4 -10 1038.70   74.39
   1   4 -10 1089.49   78.59
  -1  -4  10 1024.70   77.09
  -1  -4  10  876.81   87.79
  -1  -4  10  997.50   70.39
   2   4 -10  342.67   30.00
   2   4 -10  331.77   38.00
   2   4 -10  318.47   32.20
  -2  -4  10  268.97   49.80
  -2  -4  10  328.37   34.50
  -2  -4  10  348.47   31.00
   3   4 -10  187.88   18.10
   3   4 -10  177.88   29.20
   3   4 -10  178.98   30.90
  -3  -4  10  127.89   35.20
  -3  -4  10  192.98   26.20
  -3  -4  10  150.28   36.00
  -3  -4  10  218.58   25.60
   4   4 -10  491.75   46.70
   4   4 -10  527.65   49.00
  -4  -4  10  488.55   59.59
  -4  -4  10  368.26   54.89
   5   4 -10   10.20   19.90
   5   4 -10   63.29   26.00
  -5  -4  10  -13.50   31.80
  -5  -4  10   -1.40   24.20
   6   4 -10  196.48   33.40
   6   4 -10  178.68   37.20
  -6  -4  10  125.29   39.70
  -6  -4  10  226.78   44.70
  -4   4  -9   26.80   11.60
  -4   4  -9   54.79   21.60
   4  -4   9   14.20   30.90
  -3   4  -9  576.44   46.80
  -3   4  -9  597.04   52.09
   3  -4   9  603.74   62.69
  -2   4  -9  207.68   23.40
  -2   4  -9  232.08   31.10
   2  -4   9  203.38   43.50
   2  -4   9  255.47   42.10
  -1   4  -9  330.27   37.00
   1  -4   9  418.56   43.80
   1  -4   9  280.07   45.40
   1  -4   9  385.96   57.99
   0   4  -9  949.40   66.59
   0   4  -9  848.52   63.99
   0  -4   9  723.33   81.49
   0  -4   9  738.33   75.69
   0  -4   9  942.01   67.69
   1   4  -9  104.89   15.80
   1   4  -9  109.59   17.60
   1   4  -9   81.39   18.80
  -1  -4   9   52.69   25.10
  -1  -4   9   83.79   14.20
  -1  -4   9   49.30   33.90
  -1  -4   9   88.39   18.50
   2   4  -9  745.73   51.19
   2   4  -9  625.34   54.19
  -2  -4   9  701.03   49.70
  -2  -4   9  665.53   50.79
  -2  -4   9  555.44   63.89
   3   4  -9   34.00   14.40
   3   4  -9   44.50   15.20
  -3  -4   9   43.10   14.10
  -3  -4   9   19.20   23.00
  -3  -4   9   34.00   23.60
  -3  -4   9   29.50   12.00
   4   4  -9  678.23   57.09
   4   4  -9  794.22   59.09
  -4  -4   9  673.93   68.59
  -4  -4   9  578.54   66.09
   5   4  -9  135.59   29.20
   5   4  -9   79.49   22.00
  -5  -4   9   69.69   24.60
  -5  -4   9  122.69   34.60
   6   4  -9  133.79   29.30
   6   4  -9  139.59   33.70
  -6  -4   9  160.78   39.30
  -6  -4   9  195.68   41.60
  -5   4  -8  642.24   58.29
  -5   4  -8  494.65   47.00
   5  -4   8  553.44   70.79
  -4   4  -8  481.05   44.20
  -4   4  -8  398.96   36.50
   4  -4   8  407.46   36.80
   4  -4   8  392.06   56.59
  -3   4  -8  411.16   34.40
  -3   4  -8  354.56   39.30
   3  -4   8  392.06   35.90
   3  -4   8  417.46   49.90
   3  -4   8  391.56   31.30
  -2   4  -8 1252.37   89.19
  -2   4  -8 1262.97   87.69
   2  -4   8 1272.67   97.09
  -1   4  -8    1.30   20.40
  -1   4  -8    2.10   11.50
  -1   4  -8   -2.80   15.80
   1  -4   8    3.50   27.30
   1  -4   8   16.10   16.30
   1  -4   8   -5.80   19.10
   0   4  -8  874.71   76.29
   0   4  -8 1107.09   69.79
   0  -4   8  751.42   76.99
   0  -4   8  922.81   86.59
   0  -4   8 1074.59   72.29
   1   4  -8  177.58   20.50
   1   4  -8  205.08   25.60
   1   4  -8  160.68   19.70
  -1  -4   8  169.98   16.60
  -1  -4   8  133.29   34.20
  -1  -4   8  175.18   23.90
  -1  -4   8  199.58   35.00
   2   4  -8  752.32   51.29
   2   4  -8  758.12   48.20
   2   4  -8  714.43   53.79
  -2  -4   8  592.34   63.79
  -2  -4   8  662.63   50.19
  -2  -4   8  683.43   49.80
  -2  -4   8  583.74   61.39
   3   4  -8  517.25   40.40
   3   4  -8  526.15   43.00
  -3  -4   8  478.15   39.70
  -3  -4   8  450.85   51.09
  -3  -4   8  392.26   49.80
   4   4  -8  212.48   30.20
   4   4  -8  220.28   30.40
  -4  -4   8  174.98   37.30
  -4  -4   8  222.58   39.00
   5   4  -8  654.23   57.59
   5   4  -8  592.54   52.39
  -5  -4   8  490.65   62.99
  -5  -4   8  513.95   57.99
   6   4  -8   24.70   26.20
   6   4  -8   68.09   23.70
  -6  -4   8    6.50   32.00
  -6  -4   8    7.40   24.60
   7   4  -8  243.58   36.80
   7   4  -8  274.97   45.30
  -7  -4   8  286.47   50.79
  -5   4  -7   81.69   22.00
  -5   4  -7   30.80   13.60
  -5   4  -7   32.10   12.80
   5  -4   7   20.40   30.00
   5  -4   7   21.00   18.10
  -4   4  -7  768.72   56.99
  -4   4  -7  817.52   59.59
  -4   4  -7  623.64   66.59
   4  -4   7  743.43   55.29
   4  -4   7  734.43   70.19
  -3   4  -7  219.98   24.40
  -3   4  -7  251.97   39.70
  -3   4  -7  180.68   20.50
   3  -4   7  169.38   31.10
   3  -4   7  151.08   18.10
   3  -4   7  150.18   25.10
  -2   4  -7 1205.08   76.19
  -2   4  -7  972.40   83.49
  -2   4  -7 1109.89   76.29
   2  -4   7 1070.29   75.29
   2  -4   7 1156.98   83.39
   2  -4   7  910.61   86.69
  -1   4  -7  421.16   34.00
  -1   4  -7  379.66   35.90
  -1   4  -7  440.36   43.70
   1  -4   7  324.27   51.39
   1  -4   7  382.86   37.20
   1  -4   7  346.17   31.20
   1  -4   7  312.37   43.10
   0   4  -7  442.06   33.70
   0   4  -7  398.76   33.60
   0   4  -7  395.56   42.20
   0  -4   7  433.36   35.70
   0  -4   7  316.67   41.00
   0  -4   7  307.37   51.69
   0  -4   7  354.16   31.30
   1   4  -7 1088.89   69.59
   1   4  -7 1059.19   78.69
   1   4  -7 1025.80   68.79
   1   4  -7 1072.99   71.69
  -1  -4   7  966.90   70.29
  -1  -4   7  979.10   67.09
  -1  -4   7 1005.90   70.59
  -1  -4   7  853.81   77.79
   2   4  -7  179.78   22.50
   2   4  -7  180.28   18.50
   2   4  -7  175.08   15.00
   2   4  -7  136.79   26.30
  -2  -4   7  179.68   29.80
  -2  -4   7  168.68   19.10
  -2  -4   7  161.08   20.60
  -2  -4   7  167.38   21.00
  -2  -4   7  215.88   35.20
   3   4  -7 1086.89   72.69
   3   4  -7 1108.79   73.09
   3   4  -7 1082.39   78.79
  -3  -4   7  888.61   80.49
  -3  -4   7  866.11   78.19
  -3  -4   7  967.10   70.79
   4   4  -7   47.20   15.20
   4   4  -7   24.60   14.30
  -4  -4   7   38.20   22.10
  -4  -4   7   44.50   15.50
  -4  -4   7   37.40   19.80
   5   4  -7  466.15   47.20
   5   4  -7  432.06   41.40
  -5  -4   7  351.36   46.40
  -5  -4   7  353.76   54.89
   6   4  -7  220.88   36.30
   6   4  -7  203.88   30.60
  -6  -4   7  161.68   34.30
  -6  -4   7  145.09   35.60
   7   4  -7  126.99   29.60
   7   4  -7  140.29   37.80
  -7  -4   7  158.28   44.50
  -7  -4   7   71.59   34.40
  -6   4  -6  633.44   60.29
  -6   4  -6  514.45   50.89
   6  -4   6  547.05   56.99
   6  -4   6  670.03   75.49
  -5   4  -6  191.88   23.50
  -5   4  -6  282.17   34.50
  -5   4  -6  217.78   25.50
   5  -4   6  199.58   29.00
   5  -4   6  253.37   41.30
  -4   4  -6  842.12   61.79
  -4   4  -6  861.81   59.29
  -4   4  -6  853.81   61.89
   4  -4   6  849.91   73.59
   4  -4   6  801.32   59.79
   4  -4   6  936.81   67.19
   4  -4   6  707.23   60.89
  -3   4  -6 1078.09   72.09
  -3   4  -6  947.91   79.49
  -3   4  -6 1093.29   72.79
   3  -4   6  977.40   71.39
   3  -4   6 1077.49   82.29
   3  -4   6 1001.80   69.29
   3  -4   6  998.70   71.79
  -2   4  -6  157.98   19.80
  -2   4  -6  197.48   18.50
  -2   4  -6  156.28   26.50
  -2   4  -6  147.69   27.10
   2  -4   6  176.98   27.70
   2  -4   6  125.09   28.00
   2  -4   6  138.89   18.40
  -1   4  -6 1404.66   92.49
  -1   4  -6 1278.67   96.69
  -1   4  -6 1402.96   90.39
   1  -4   6 1298.47   88.89
   1  -4   6 1140.39   97.99
   1  -4   6 1284.17  104.89
   1  -4   6 1410.16   93.89
   0   4  -6   77.49   18.90
   0   4  -6   81.39   14.60
   0   4  -6   88.39   14.90
   0  -4   6   92.49   15.80
   0  -4   6   42.50   27.90
   0  -4   6  106.89   22.70
   0  -4   6   71.89   13.20
   1   4  -6 1525.35   92.79
   1   4  -6 1492.75   92.99
   1   4  -6 1517.15   94.99
   1   4  -6 1462.85  101.19
  -1  -4   6 1372.96   93.89
  -1  -4   6 1410.16   91.49
  -1  -4   6 1201.88  104.29
  -1  -4   6 1163.78   99.79
  -1  -4   6 1355.16   93.69
   2   4  -6  212.98   20.50
   2   4  -6  247.08   30.80
   2   4  -6  222.08   16.00
   2   4  -6  230.08   23.40
  -2  -4   6  187.08   30.60
  -2  -4   6  165.58   33.40
  -2  -4   6  217.48   21.30
  -2  -4   6  209.68   20.10
   3   4  -6  846.02   55.79
   3   4  -6  786.82   54.99
  -3  -4   6  625.84   59.69
  -3  -4   6  690.03   63.09
  -3  -4   6  695.93   53.59
  -3  -4   6  726.43   53.59
   4   4  -6  514.35   42.60
   4   4  -6  448.46   44.90
   4   4  -6  510.85   40.50
  -4  -4   6  432.36   40.10
  -4  -4   6  412.36   47.30
  -4  -4   6  441.96   47.10
   5   4  -6  138.79   25.60
   5   4  -6  133.19   21.80
  -5  -4   6  111.29   28.40
  -5  -4   6   81.39   25.80
   6   4  -6  405.76   42.10
  -6  -4   6  332.47   46.90
  -6  -4   6  348.67   55.49
   7   4  -6   11.70   30.20
   7   4  -6  -41.10   19.70
  -7  -4   6    7.70   27.30
  -7  -4   6   27.00   37.20
  -6   4  -5  225.38   41.40
  -6   4  -5  244.58   26.30
  -6   4  -5  229.28   29.00
   6  -4   5  254.77   39.90
   6  -4   5  290.77   49.90
  -5   4  -5  991.50   66.19
  -5   4  -5  839.22   66.99
  -5   4  -5 1031.70   70.69
  -5   4  -5 1046.20   70.89
   5  -4   5 1002.00   70.19
   5  -4   5  799.72   67.49
   5  -4   5  902.91   83.89
  -4   4  -5   11.30    7.30
  -4   4  -5    7.10    9.30
  -4   4  -5    8.70   21.30
  -4   4  -5   -5.00    7.00
  -4   4  -5    5.90    7.60
   4  -4   5   12.40    9.10
   4  -4   5  -14.20   10.20
   4  -4   5  -25.70   19.40
  -3   4  -5 1344.97  106.69
  -3   4  -5 1602.64  103.09
  -3   4  -5 1350.26  108.79
  -3   4  -5 1575.74  101.89
  -3   4  -5 1542.25   99.39
   3  -4   5 1541.75  101.39
   3  -4   5 1578.54  110.29
   3  -4   5 1536.85  100.09
  -2   4  -5   27.60    9.10
  -2   4  -5   20.50    7.50
  -2   4  -5   20.30   13.80
  -2   4  -5   29.90   17.40
   2  -4   5   17.60   14.10
   2  -4   5   17.90    7.40
  -1   4  -5  927.41   60.59
  -1   4  -5  813.92   67.19
  -1   4  -5  924.11   63.39
   1  -4   5  892.91   63.79
   1  -4   5  844.92   59.59
   1  -4   5  716.53   67.89
   1  -4   5  972.50   76.79
   0   4  -5 2266.77  144.79
   0   4  -5 2358.36  144.29
   0   4  -5 2339.07  150.78
   0  -4   5 2309.67  143.69
   0  -4   5 1893.21  149.59
   0  -4   5 2158.78  144.99
   0  -4   5 1990.90  154.78
   1   4  -5  360.66   35.80
   1   4  -5  361.66   29.10
   1   4  -5  351.26   27.30
   1   4  -5  385.46   27.80
  -1  -4   5  371.66   26.30
  -1  -4   5  349.47   41.60
  -1  -4   5  365.06   28.60
  -1  -4   5  346.37   29.20
   2   4  -5 1370.06   88.29
   2   4  -5 1239.68   82.69
   2   4  -5 1341.67   82.69
  -2  -4   5 1178.28   81.39
  -2  -4   5 1200.78   82.09
  -2  -4   5 1077.89   90.29
  -2  -4   5 1041.10   86.69
   3   4  -5    7.60    7.80
   3   4  -5    7.70   13.00
   3   4  -5    0.60    7.80
  -3  -4   5   -3.00   12.20
  -3  -4   5    1.20    7.80
  -3  -4   5   -0.60   13.00
  -3  -4   5    2.90    8.70
   4   4  -5  832.22   58.69
   4   4  -5  743.03   54.99
   4   4  -5  786.92   57.39
  -4  -4   5  632.84   59.39
  -4  -4   5  665.93   55.89
  -4  -4   5  703.53   62.19
   5   4  -5   65.29   17.80
   5   4  -5   80.69   22.30
   5   4  -5   72.29   18.10
  -5  -4   5   41.90   19.00
  -5  -4   5   60.19   22.70
   6   4  -5  438.76   45.50
   6   4  -5  472.85   54.19
  -6  -4   5  457.95   53.89
  -6  -4   5  439.26   50.29
   7   4  -5  205.48   31.50
   7   4  -5  198.48   41.60
  -7  -4   5  128.69   38.60
  -7   4  -4  556.34   55.09
   7  -4   4  569.44   60.59
   7  -4   4  551.04   82.49
  -6   4  -4   41.00   13.90
  -6   4  -4   76.79   20.60
  -6   4  -4   43.80   12.70
   6  -4   4  -15.20   30.20
   6  -4   4   43.50   19.70
  -5   4  -4  821.02   58.19
  -5   4  -4  833.82   59.49
  -5   4  -4  614.24   67.69
  -5   4  -4  693.03   55.79
  -5   4  -4  811.42   55.09
   5  -4   4  685.53   56.39
   5  -4   4  927.01   74.69
   5  -4   4  846.32   59.79
  -4   4  -4  309.17   23.90
  -4   4  -4  277.97   25.90
  -4   4  -4  321.87   25.30
  -4   4  -4  234.78   23.10
  -4   4  -4  219.38   38.30
   4  -4   4  266.27   25.30
   4  -4   4  329.67   39.80
   4  -4   4  272.57   25.60
  -3   4  -4 1191.68   80.89
  -3   4  -4 1161.18   77.89
  -3   4  -4 1134.19   85.59
  -3   4  -4 1181.58   79.09
   3  -4   4 1198.68   78.79
   3  -4   4 1182.58   87.09
   3  -4   4 1176.78   78.99
  -2   4  -4 1192.58  100.99
  -2   4  -4 1470.05   99.99
  -2   4  -4 1517.25   95.49
  -2   4  -4 1428.86   92.89
  -2   4  -4 1551.94   96.89
   2  -4   4 1449.95   94.99
   2  -4   4 1440.66  100.69
  -1   4  -4  876.21   53.69
  -1   4  -4  635.54   59.49
  -1   4  -4  861.81   57.39
   1  -4   4  765.02   57.49
   1  -4   4  741.33   52.29
   1  -4   4  619.54   60.99
   1  -4   4  822.52   67.59
   0   4  -4 2125.99  147.49
   0   4  -4 2261.97  141.49
   0   4  -4 2285.57  142.49
   0  -4   4 2103.79  151.58
   0  -4   4 2226.38  141.09
   0  -4   4 1898.01  146.99
   0  -4   4 2200.08  142.69
   1   4  -4   59.79   20.40
   1   4  -4   46.80    8.30
   1   4  -4   66.19   10.50
   1   4  -4   73.19   12.80
  -1  -4   4   47.30    7.90
  -1  -4   4   57.29   20.10
  -1  -4   4   42.80   18.70
  -1  -4   4   59.39   10.60
  -1  -4   4   45.70    8.80
   2   4  -4 1078.69   71.69
   2   4  -4 1047.90   71.59
   2   4  -4 1118.09   76.29
  -2  -4   4 1008.40   70.99
  -2  -4   4 1046.00   71.09
  -2  -4   4  954.20   78.29
   3   4  -4  336.27   31.00
   3   4  -4  304.77   26.90
   3   4  -4  298.67   37.60
   3   4  -4  316.87   28.30
  -3  -4   4  320.67   27.60
  -3  -4   4  268.07   31.80
  -3  -4   4  261.07   34.20
   4   4  -4  432.76   37.30
   4   4  -4  369.86   32.50
   4   4  -4  419.06   34.50
  -4  -4   4  370.06   39.90
  -4  -4   4  316.57   33.90
  -4  -4   4  286.27   36.50
   5   4  -4  648.34   54.79
   5   4  -4  608.84   48.20
   5   4  -4  562.44   44.00
  -5  -4   4  510.45   51.69
  -5  -4   4  468.45   50.19
   6   4  -4   61.79   24.40
   6   4  -4   44.20   18.40
  -6  -4   4   50.19   20.40
  -6  -4   4   51.99   25.50
   7   4  -4  231.78   33.00
   7   4  -4  224.48   41.10
  -7  -4   4  245.38   45.00
  -7   4  -3  373.26   41.00
   7  -4   3  438.76   63.29
   7  -4   3  351.16   49.20
  -6   4  -3  475.65   36.50
  -6   4  -3  402.56   53.79
  -6   4  -3  434.76   40.40
  -6   4  -3  430.16   42.80
   6  -4   3  455.85   62.09
   6  -4   3  466.45   45.80
  -5   4  -3  145.59   19.00
  -5   4  -3  133.99   18.70
  -5   4  -3  160.28   20.90
  -5   4  -3  135.99   16.70
  -5   4  -3  122.29   29.30
   5  -4   3  104.49   19.40
   5  -4   3  148.09   22.40
   5  -4   3  133.59   31.10
  -4   4  -3 1237.38  101.89
  -4   4  -3 1468.95   97.39
  -4   4  -3 1451.45   94.89
  -4   4  -3 1542.65   94.99
  -4   4  -3 1289.37   94.99
   4  -4   3 1441.76   96.39
   4  -4   3 1429.76   94.29
   4  -4   3 1476.55  105.19
  -3   4  -3   25.60    6.30
  -3   4  -3   20.90   15.20
  -3   4  -3   18.20    7.40
  -3   4  -3    9.90   13.90
  -3   4  -3   35.20    7.70
  -3   4  -3   30.30    6.80
   3  -4   3   25.90    7.40
   3  -4   3   22.90    7.00
   3  -4   3   29.60   14.00
  -2   4  -3 2236.28  136.59
  -2   4  -3 2232.88  138.19
  -2   4  -3 1980.80  135.09
  -2   4  -3 1762.42  142.09
  -2   4  -3 2181.08  141.29
   2  -4   3 2156.38  141.99
   2  -4   3 2144.49  136.19
  -1   4  -3  428.76   43.00
  -1   4  -3  512.95   39.70
  -1   4  -3  543.45   35.70
   1  -4   3  529.85   35.20
   1  -4   3  479.35   39.60
   1  -4   3  508.45   49.90
   1  -4   3  453.15   44.70
   0   4  -3 1112.09   69.49
   0   4  -3 1112.99   71.69
   0   4  -3 1033.30   79.79
   0   4  -3 1050.19   70.49
   0   4  -3 1114.49   73.59
   0  -4   3 1140.49   83.49
   0  -4   3 1083.49   71.39
   0  -4   3  875.51   78.89
   0  -4   3 1049.09   73.39
   1   4  -3 2313.07  140.29
   1   4  -3 2102.49  139.49
   1   4  -3 2271.17  145.89
   1   4  -3 2137.89  138.79
  -1  -4   3 2040.10  146.79
  -1  -4   3 2213.68  139.89
  -1  -4   3 1853.31  144.09
  -1  -4   3 2085.99  138.99
  -1  -4   3 2245.38  138.89
   2   4  -3 1138.29   78.09
   2   4  -3 1005.40   83.39
   2   4  -3 1214.28   79.19
   2   4  -3 1212.98   81.59
  -2  -4   3 1223.48   85.39
  -2  -4   3 1128.69   78.09
   3   4  -3 1494.65   92.79
   3   4  -3 1325.87   93.39
   3   4  -3 1353.86   91.39
  -3  -4   3 1245.88   91.29
  -3  -4   3 1293.67   97.29
   4   4  -3    0.20    9.40
   4   4  -3    8.70   11.70
   4   4  -3    4.80    9.90
   4   4  -3   32.70   21.00
  -4  -4   3   22.20   14.30
  -4  -4   3    1.80   10.80
  -4  -4   3    5.20   12.30
   5   4  -3  535.75   42.70
   5   4  -3  501.55   36.50
   5   4  -3  488.05   38.40
   5   4  -3  564.54   49.20
  -5  -4   3  390.06   31.10
  -5  -4   3  448.06   46.10
  -5  -4   3  378.46   43.50
   6   4  -3  150.88   31.30
   6   4  -3   81.19   20.70
  -6  -4   3   44.40   25.70
  -6  -4   3   86.49   22.30
   7   4  -3  186.98   30.50
   7   4  -3  259.27   44.20
  -7  -4   3  203.38   42.80
  -7   4  -2   40.70   15.40
  -7   4  -2   30.90   14.00
  -7   4  -2   79.79   33.80
   7  -4   2   36.00   36.70
   7  -4   2   53.79   23.60
  -6   4  -2  725.43   51.89
  -6   4  -2  733.63   56.29
  -6   4  -2  669.13   55.49
   6  -4   2  780.92   73.39
   6  -4   2  594.14   50.79
   6  -4   2  789.62   60.09
  -5   4  -2    1.40    8.70
  -5   4  -2    4.80    8.90
  -5   4  -2    3.60    7.70
  -5   4  -2   10.00    7.40
   5  -4   2   -7.20    8.30
   5  -4   2   19.30   10.90
   5  -4   2  -17.30   19.90
  -4   4  -2  991.70   65.09
  -4   4  -2  874.01   72.39
  -4   4  -2  920.11   64.49
  -4   4  -2  865.41   65.59
  -4   4  -2  964.10   67.19
   4  -4   2  979.70   63.89
   4  -4   2  997.90   67.29
   4  -4   2 1033.60   75.39
  -3   4  -2  862.21   53.19
  -3   4  -2  760.72   59.69
  -3   4  -2  851.51   54.49
  -3   4  -2  726.63   61.79
  -3   4  -2  789.92   55.49
  -3   4  -2  732.23   54.09
   3  -4   2  832.92   61.39
   3  -4   2  762.82   54.69
   3  -4   2  804.72   52.79
  -2   4  -2 1389.26   87.69
  -2   4  -2 1502.25   86.29
  -2   4  -2 1085.19   92.69
  -2   4  -2 1333.47   91.69
  -2   4  -2 1250.97   85.79
   2  -4   2 1345.27   85.59
   2  -4   2 1251.77   91.59
   2  -4   2 1313.37   86.09
  -1   4  -2  890.51   74.29
  -1   4  -2 1052.79   67.89
  -1   4  -2 1129.99   68.89
   1  -4   2 1055.69   79.59
   1  -4   2 1007.20   72.09
   1  -4   2 1088.79   68.59
   0   4  -2   -8.60   10.10
   0   4  -2    3.30    5.70
   0   4  -2    8.20    3.70
   0   4  -2    4.10    5.00
   0   4  -2    8.20    4.20
   0  -4   2    2.80    9.70
   0  -4   2    5.60    3.90
   0  -4   2    1.80   13.90
   0  -4   2    5.10    7.50
   1   4  -2 1419.06  102.99
   1   4  -2 1675.23   95.49
   1   4  -2 1511.45   97.99
   1   4  -2 1340.67  102.59
   1   4  -2 1510.55   97.79
   1   4  -2 1431.26   96.89
  -1  -4   2 1466.95   97.39
  -1  -4   2 1433.66  104.19
   2   4  -2  997.00   59.69
   2   4  -2  978.40   60.29
   2   4  -2  931.01   63.79
   2   4  -2  902.11   67.99
   2   4  -2  874.01   62.19
   2   4  -2  832.92   64.19
  -2  -4   2  872.31   67.69
  -2  -4   2  834.02   62.29
   3   4  -2 1487.85   98.49
   3   4  -2 1581.74   95.89
   3   4  -2 1454.35   96.09
   3   4  -2 1399.96  101.19
   3   4  -2 1411.16   93.59
  -3  -4   2 1322.17   96.19
  -3  -4   2 1506.05  102.09
  -3  -4   2 1203.78   91.09
   4   4  -2  353.46   31.20
   4   4  -2  377.76   36.30
   4   4  -2  326.87   41.40
   4   4  -2  326.57   30.10
   4   4  -2  379.66   28.10
  -4  -4   2  319.17   35.90
  -4  -4   2  300.47   24.00
   5   4  -2  147.49   16.50
   5   4  -2  145.09   24.20
   5   4  -2  155.68   26.30
   5   4  -2  154.98   26.90
  -5  -4   2  126.79   15.10
  -5  -4   2  179.08   27.80
  -5  -4   2  107.99   21.70
   6   4  -2  549.25   58.49
   6   4  -2  569.14   49.60
   6   4  -2  513.85   48.80
  -6  -4   2  452.25   50.99
   7   4  -2   63.09   34.30
   7   4  -2   86.59   25.70
  -7  -4   2   46.30   30.90
  -7   4  -1   52.09   15.40
  -7   4  -1   43.60   15.60
   7  -4   1  -22.70   30.80
   7  -4   1   67.79   22.40
   7  -4   1   45.80   22.80
  -6   4  -1  543.15   44.50
  -6   4  -1  555.14   41.30
   6  -4   1  496.15   59.79
   6  -4   1  606.74   49.60
   6  -4   1  457.05   39.50
  -5   4  -1 1805.12  132.09
  -5   4  -1 2060.39  135.39
  -5   4  -1 2172.18  132.69
  -5   4  -1 1741.73  133.79
   5  -4   1 2100.99  142.69
   5  -4   1 2063.09  130.19
   5  -4   1 2088.39  136.29
  -4   4  -1   61.39   18.50
  -4   4  -1   64.99   12.40
  -4   4  -1   64.79   11.20
  -4   4  -1   86.79   11.70
  -4   4  -1   80.09   13.50
   4  -4   1   48.60   16.40
   4  -4   1   76.69    9.70
   4  -4   1   71.59   12.70
  -3   4  -1 2553.64  154.28
  -3   4  -1 2447.85  155.28
  -3   4  -1 2171.68  157.98
  -3   4  -1 2379.56  152.08
  -3   4  -1 2224.28  154.48
   3  -4   1 2405.26  151.88
   3  -4   1 2423.96  159.78
   3  -4   1 2343.17  154.98
  -2   4  -1  162.18   14.40
  -2   4  -1  132.69   22.50
  -2   4  -1  153.18   13.50
  -2   4  -1  152.58   14.10
   2  -4   1  135.39   20.30
   2  -4   1  124.09   15.40
   2  -4   1  156.18   11.70
  -1   4  -1 1636.34  102.69
  -1   4  -1 1504.95  104.69
  -1   4  -1 1525.55  101.29
   1  -4   1 1552.84  101.29
   1  -4   1 1569.24  104.99
   1  -4   1 1634.44  102.79
   1  -4   1 1541.35  110.59
   0   4  -1  116.49   10.70
   0   4  -1   93.89   16.50
   0   4  -1   95.09   18.00
   0   4  -1  106.69   13.00
   0   4  -1   99.99   13.60
   0   4  -1  109.29   11.40
   0  -4   1  114.69   20.50
   0  -4   1  129.39   15.60
   1   4  -1 3077.39  204.78
   1   4  -1 3480.45  205.28
   1   4  -1 3395.36  203.48
   1   4  -1 2739.73  207.68
   1   4  -1 3250.57  205.88
   1   4  -1 3129.49  208.68
  -1  -4   1 3151.88  209.88
  -1  -4   1 3141.19  205.48
   2   4  -1 1449.46  101.99
   2   4  -1 1643.04  101.39
   2   4  -1 1442.56   98.79
   2   4  -1 1537.25  104.49
   2   4  -1 1564.64  100.69
  -2  -4   1 1590.24  105.59
  -2  -4   1 1408.66   97.39
  -2  -4   1 1461.35  101.09
   3   4  -1  334.57   24.60
   3   4  -1  378.06   30.70
   3   4  -1  346.17   27.00
   3   4  -1  284.77   27.00
   3   4  -1  314.27   33.00
  -3  -4   1  286.47   27.60
  -3  -4   1  231.18   29.50
  -3  -4   1  293.87   31.90
  -3  -4   1  297.67   22.40
   4   4  -1  577.34   48.00
   4   4  -1  665.33   43.10
   4   4  -1  646.04   53.19
   4   4  -1  686.13   49.00
  -4  -4   1  559.94   43.20
  -4  -4   1  641.04   53.59
   5   4  -1   44.80   20.50
   5   4  -1   21.00   16.90
   5   4  -1   32.90    6.10
   5   4  -1   28.00   14.20
  -5  -4   1   31.30   10.30
  -5  -4   1   15.60   18.80
  -5  -4   1   16.40   13.30
   6   4  -1  543.85   51.39
   6   4  -1  603.94   55.19
   6   4  -1  517.15   60.29
  -6  -4   1  540.35   53.49
   7   4  -1  129.79   39.70
   7   4  -1  133.59   27.90
  -7  -4   1   94.79   35.00
  -8   4   0  139.19   29.90
  -8   4   0   88.99   32.00
   8  -4   0  144.99   49.20
   8  -4   0  138.69   31.80
  -7   4   0  449.16   42.50
  -7   4   0  393.46   39.60
   7  -4   0  447.16   37.80
   7  -4   0  458.95   49.40
   7  -4   0  419.66   63.09
  -6   4   0  122.49   18.70
  -6   4   0  105.39   18.80
   6  -4   0  126.69   23.60
   6  -4   0  114.39   16.70
   6  -4   0  119.09   15.70
   6  -4   0  115.19   32.70
  -5   4   0  542.75   48.10
  -5   4   0  655.83   48.60
  -5   4   0  558.74   55.49
  -5   4   0  681.03   46.80
   5  -4   0  635.94   50.19
   5  -4   0  705.13   43.90
   5  -4   0  640.74   43.10
   5  -4   0  594.04   55.79
  -4   4   0  490.55   34.50
  -4   4   0  412.06   35.70
  -4   4   0  457.55   41.60
  -4   4   0  480.45   36.00
   4  -4   0  452.15   37.20
   4  -4   0  450.75   42.00
   4  -4   0  477.05   30.90
  -3   4   0 1878.01  118.19
  -3   4   0 1838.52  117.49
  -3   4   0 1786.12  121.79
  -3   4   0 1664.53  118.19
   3  -4   0 1766.62  118.79
   3  -4   0 1812.42  122.39
  -2   4   0 2563.94  145.79
  -2   4   0 2173.88  148.29
  -2   4   0 2256.87  150.98
  -2   4   0 2218.48  147.49
  -2   4   0 2287.87  147.69
   2  -4   0 2253.17  151.18
   2  -4   0 2164.28  148.39
  -1   4   0  174.48   18.70
  -1   4   0  171.88   14.20
  -1   4   0  163.58   13.20
  -1   4   0  192.88   16.60
  -1   4   0  169.98   15.20
   1  -4   0  197.68   18.40
   1  -4   0  165.88   18.50
   1  -4   0  178.48   25.80
   0   4   0 2023.90  127.39
   0   4   0 2029.80  124.89
   0   4   0 1889.71  128.19
   0   4   0 2048.40  127.39
   0  -4   0 1790.12  130.99
   0  -4   0 1804.42  127.69
   1   4   0    2.60    9.30
   1   4   0    4.70    5.10
   1   4   0   -6.10    9.60
   1   4   0   -1.80    9.30
   1   4   0    8.20    5.70
  -1  -4   0    5.70   10.50
  -1  -4   0    9.20    4.10
  -1  -4   0    3.60    9.10
   2   4   0 1508.75   96.29
   2   4   0 1476.95   99.79
   2   4   0 1446.66   95.89
   2   4   0 1538.95   99.69
  -2  -4   0 1515.45  101.19
  -2  -4   0 1356.46   97.89
  -2  -4   0 1343.77   94.49
   3   4   0   16.70   10.30
   3   4   0   26.20    9.70
   3   4   0    9.40   11.20
   3   4   0   34.80    5.60
  -3  -4   0   15.20    8.90
  -3  -4   0   33.30   12.90
  -3  -4   0   26.10   14.20
  -3  -4   0   25.00    7.00
   4   4   0 1045.20   73.49
   4   4   0  902.41   67.79
  -4  -4   0  870.41   62.29
  -4  -4   0  756.42   74.09
  -4  -4   0 1000.50   71.49
   5   4   0  287.17   38.10
   5   4   0  251.77   36.80
  -5  -4   0  225.88   38.90
  -5  -4   0  260.57   33.00
  -5  -4   0  224.78   24.50
   6   4   0  158.58   33.50
   6   4   0  154.98   32.60
   6   4   0  130.69   25.40
  -6  -4   0  130.29   26.80
  -8   4   1   17.40   22.10
   8  -4  -1   25.00   45.20
   8  -4  -1   27.00   27.10
  -7   4   1  662.83   55.29
  -7   4   1  718.13   57.69
   7  -4  -1  720.73   73.39
   7  -4  -1  639.54   49.60
   7  -4  -1  733.03   63.99
  -6   4   1  351.66   32.00
  -6   4   1  314.37   30.00
   6  -4  -1  337.77   38.50
   6  -4  -1  335.87   26.00
   6  -4  -1  338.87   25.30
   6  -4  -1  295.67   46.00
   6  -4  -1  297.87   28.90
  -5   4   1  648.74   47.50
  -5   4   1  674.33   49.20
  -5   4   1  566.54   49.60
  -5   4   1  551.04   55.49
   5  -4  -1  682.33   52.09
   5  -4  -1  661.73   46.60
   5  -4  -1  666.43   43.00
   5  -4  -1  696.13   56.79
  -4   4   1 1161.88   76.19
  -4   4   1 1039.00   76.69
  -4   4   1 1184.38   75.19
  -4   4   1 1015.10   79.49
   4  -4  -1 1099.69   77.49
   4  -4  -1 1103.29   74.29
   4  -4  -1 1094.39   80.49
  -3   4   1  483.85   41.70
  -3   4   1  449.76   37.40
  -3   4   1  505.45   36.30
  -3   4   1  557.74   36.60
   3  -4  -1  463.45   41.40
   3  -4  -1  486.75   38.50
   3  -4  -1  547.65   36.10
  -2   4   1 1721.93  121.19
  -2   4   1 1600.64  119.09
  -2   4   1 1899.41  117.59
  -2   4   1 1917.21  118.09
   2  -4  -1 1852.61  121.49
   2  -4  -1 1810.02  119.69
   2  -4  -1 1836.32  117.79
  -1   4   1  191.68   19.80
  -1   4   1  161.18   13.60
  -1   4   1  169.48   13.70
  -1   4   1  161.38   17.50
   1  -4  -1  162.18   17.70
   1  -4  -1  168.48   18.80
   1  -4  -1  180.98   13.80
   1  -4  -1  149.09   15.20
   1  -4  -1  154.18   23.40
   0   4   1 1392.36   86.09
   0   4   1 1284.17   84.09
   0   4   1 1281.07   82.19
   0   4   1 1306.47   87.19
   0   4   1 1343.07   82.99
   0  -4  -1 1221.68   86.89
   0  -4  -1 1113.29   87.49
   0  -4  -1 1153.28   84.79
   1   4   1  618.24   46.00
   1   4   1  608.94   49.60
   1   4   1  562.94   45.70
   1   4   1  665.33   42.00
   1   4   1  623.64   46.60
   1   4   1  680.63   44.30
  -1  -4  -1  651.83   43.10
  -1  -4  -1  610.54   48.10
  -1  -4  -1  663.73   47.90
   2   4   1  645.54   44.80
   2   4   1  652.43   47.70
   2   4   1  606.14   46.50
  -2  -4  -1  574.74   42.60
  -2  -4  -1  612.64   46.10
  -2  -4  -1  679.03   48.60
  -2  -4  -1  574.74   48.80
   3   4   1 1332.27   84.19
   3   4   1 1191.18   84.49
   3   4   1 1291.77   86.89
  -3  -4  -1 1049.30   83.39
  -3  -4  -1 1151.48   79.79
  -3  -4  -1 1282.07   86.49
  -3  -4  -1 1070.09   87.59
   4   4   1   81.89   18.50
   4   4   1   44.10   17.50
  -4  -4  -1   60.19   11.90
  -4  -4  -1   34.30   21.00
  -4  -4  -1   60.09   16.10
   5   4   1  385.76   46.60
  -5  -4  -1  404.76   40.40
  -5  -4  -1  344.77   52.99
  -5  -4  -1  345.87   33.00
   6   4   1   61.09   26.20
   6   4   1   10.40   32.70
  -6  -4  -1    7.90   17.00
  -6  -4  -1   38.40   34.20
  -8   4   2  313.27   42.20
  -8   4   2  239.58   41.30
   8  -4  -2  309.07   51.59
  -7   4   2   97.99   21.00
  -7   4   2   88.59   18.50
   7  -4  -2   85.09   13.20
   7  -4  -2   87.99   25.80
   7  -4  -2  113.39   34.40
  -6   4   2  730.53   53.79
  -6   4   2  684.23   51.79
   6  -4  -2  725.13   59.59
   6  -4  -2  696.83   62.89
   6  -4  -2  650.83   45.70
   6  -4  -2  616.54   46.50
  -5   4   2   71.39   15.70
  -5   4   2   61.99   21.10
  -5   4   2   84.19   14.60
  -5   4   2   97.79   15.30
   5  -4  -2   60.09   18.30
   5  -4  -2   96.59   14.90
   5  -4  -2   94.09   18.70
  -4   4   2 1730.53  112.29
  -4   4   2 1540.35  115.89
  -4   4   2 1482.95  113.49
  -4   4   2 1817.92  113.09
   4  -4  -2 1624.14  116.59
   4  -4  -2 1868.31  111.89
   4  -4  -2 1712.83  115.29
  -3   4   2 1238.38   84.99
  -3   4   2 1224.98   86.79
  -3   4   2 1276.17   82.79
  -3   4   2 1226.68   82.99
   3  -4  -2 1222.98   85.19
   3  -4  -2 1261.87   86.79
   3  -4  -2 1227.78   82.39
  -2   4   2 2997.30  203.28
  -2   4   2 3197.18  204.48
  -2   4   2 3294.77  209.08
  -2   4   2 3197.88  207.88
  -2   4   2 3278.67  205.58
   2  -4  -2 3106.09  207.78
   2  -4  -2 3214.68  205.18
  -1   4   2 1179.98   79.09
  -1   4   2 1169.58   78.99
  -1   4   2 1113.09   74.79
  -1   4   2 1191.28   75.29
   1  -4  -2 1099.49   75.79
   1  -4  -2 1132.79   74.99
   1  -4  -2 1096.69   78.69
   0   4   2  183.88   24.00
   0   4   2  209.28   16.40
   0   4   2  219.98   18.30
   0  -4  -2  207.08   24.40
   0  -4  -2  200.38   21.70
   0  -4  -2  203.68   17.00
   0  -4  -2  213.68   16.10
   1   4   2 1466.65   89.09
   1   4   2 1271.67   96.39
   1   4   2 1363.06   92.79
   1   4   2 1447.46   92.09
   1   4   2 1419.16   94.09
  -1  -4  -2 1353.96   94.69
  -1  -4  -2 1293.07   90.49
  -1  -4  -2 1383.36   93.59
   2   4   2    5.30    7.00
   2   4   2   -2.50    7.20
   2   4   2   -1.20    7.80
   2   4   2    4.40   11.00
  -2  -4  -2    3.00    6.10
  -2  -4  -2   -9.40    9.90
  -2  -4  -2    1.20    8.70
   3   4   2 1524.95  113.39
   3   4   2 1942.51  115.59
   3   4   2 1782.72  117.39
  -3  -4  -2 1436.86  113.59
  -3  -4  -2 1545.45  110.19
  -3  -4  -2 1780.72  115.89
  -3  -4  -2 1664.93  118.29
   4   4   2  110.09   23.30
   4   4   2   79.19   22.20
  -4  -4  -2  115.99   29.50
  -4  -4  -2   82.09   17.60
  -4  -4  -2   93.69   15.80
   5   4   2  249.28   40.20
   5   4   2  259.37   39.10
  -5  -4  -2  252.07   33.30
  -5  -4  -2  178.68   35.60
   6   4   2  267.47   46.60
  -6  -4  -2  275.07   38.80
  -6  -4  -2  224.38   46.70
  -8   4   3  344.87   42.60
  -8   4   3  247.18   42.30
   8  -4  -3  372.86   53.19
   8  -4  -3  319.67   51.79
  -7   4   3   22.40   13.00
  -7   4   3   -8.30   16.30
   7  -4  -3  -15.60   27.40
   7  -4  -3    0.40    9.30
   7  -4  -3   34.30   20.70
  -6   4   3  705.53   53.19
  -6   4   3  681.83   53.39
   6  -4  -3  687.93   46.00
   6  -4  -3  727.43   60.49
   6  -4  -3  619.14   46.20
   6  -4  -3  647.64   59.79
  -5   4   3  279.77   24.90
  -5   4   3  241.28   33.60
  -5   4   3  223.98   29.20
  -5   4   3  253.57   24.70
   5  -4  -3  263.77   29.90
   5  -4  -3  277.77   31.50
   5  -4  -3  217.78   22.70
   5  -4  -3  234.38   18.60
  -4   4   3  389.46   35.10
  -4   4   3  464.15   33.30
  -4   4   3  401.56   39.10
  -4   4   3  446.96   33.50
   4  -4  -3  371.86   37.30
   4  -4  -3  468.05   37.60
   4  -4  -3  418.46   32.10
  -3   4   3 1801.22  116.69
  -3   4   3 1901.11  115.89
  -3   4   3 1686.53  113.39
  -3   4   3 1745.03  120.09
  -3   4   3 1761.82  118.99
   3  -4  -3 1747.93  119.89
   3  -4  -3 1716.03  115.89
   3  -4  -3 1752.22  119.29
  -2   4   3  196.58   17.00
  -2   4   3  210.88   21.50
  -2   4   3  186.58   15.10
  -2   4   3  184.98   24.20
  -2   4   3  195.58   16.50
   2  -4  -3  194.88   16.50
   2  -4  -3  192.18   21.40
  -1   4   3 1959.70  135.09
  -1   4   3 2002.10  138.99
  -1   4   3 2140.59  135.39
  -1   4   3 2118.49  139.59
  -1   4   3 2310.17  135.99
   1  -4  -3 1992.70  139.59
   1  -4  -3 2029.30  135.79
   1  -4  -3 2095.09  134.99
   0   4   3   24.30    7.80
   0   4   3   16.40   10.20
   0   4   3   36.90    8.40
   0   4   3   31.10    6.30
   0  -4  -3   21.90    5.00
   0  -4  -3   29.50    6.90
   0  -4  -3   14.20    7.70
   0  -4  -3   21.20   11.20
   1   4   3 1232.08   94.09
   1   4   3 1364.16   89.89
   1   4   3 1517.45   86.69
   1   4   3 1283.67   89.49
   1   4   3 1302.37   91.39
  -1  -4  -3 1309.57   89.99
  -1  -4  -3 1264.17   88.09
  -1  -4  -3 1318.07   91.59
   2   4   3  921.91   64.49
   2   4   3  864.31   61.69
   2   4   3  879.51   68.89
   2   4   3  876.91   62.49
  -2  -4  -3  748.63   59.19
  -2  -4  -3  827.62   64.79
  -2  -4  -3  911.51   62.59
   3   4   3  504.45   43.70
   3   4   3  465.25   41.30
  -3  -4  -3  498.75   40.90
  -3  -4  -3  390.36   35.40
  -3  -4  -3  402.96   44.50
   4   4   3  434.76   47.00
   4   4   3  412.86   45.70
  -4  -4  -3  458.85   51.39
  -4  -4  -3  417.36   40.20
   5   4   3   23.10   21.90
   5   4   3   23.40   30.10
  -5  -4  -3   -7.20   24.50
  -5  -4  -3   10.30   16.00
   6   4   3  255.97   43.00
   6   4   3  327.57   56.39
  -6  -4  -3  323.57   41.80
  -8   4   4  267.17   40.30
  -8   4   4  236.68   35.80
   8  -4  -4  253.17   40.20
   8  -4  -4  278.77   49.50
  -7   4   4  389.46   43.20
  -7   4   4  476.45   41.90
   7  -4  -4  370.96   33.00
   7  -4  -4  417.46   50.19
   7  -4  -4  526.25   58.39
  -6   4   4  116.19   28.50
  -6   4   4  106.59   19.10
  -6   4   4  154.68   25.10
   6  -4  -4  105.59   15.90
   6  -4  -4  143.49   27.20
   6  -4  -4   81.79   22.70
  -5   4   4  590.14   53.29
  -5   4   4  598.54   46.50
  -5   4   4  637.64   46.30
   5  -4  -4  557.04   41.20
   5  -4  -4  644.94   51.79
   5  -4  -4  544.65   44.70
   5  -4  -4  648.74   51.89
  -4   4   4    0.80    9.30
  -4   4   4    9.00    5.90
  -4   4   4    7.90   14.20
  -4   4   4    0.80    7.40
  -4   4   4   -2.10    3.60
   4  -4  -4    2.20    5.60
   4  -4  -4    2.30   11.30
   4  -4  -4    0.00    6.50
   4  -4  -4    1.30    9.70
  -3   4   4 2047.50  130.99
  -3   4   4 1876.71  132.99
  -3   4   4 2070.69  129.19
  -3   4   4 2028.30  134.49
  -3   4   4 1973.90  127.99
   3  -4  -4 1907.81  127.89
   3  -4  -4 1911.71  133.79
   3  -4  -4 2012.60  130.09
  -2   4   4  309.37   29.30
  -2   4   4  315.37   23.20
  -2   4   4  269.77   22.40
  -2   4   4  299.97   23.70
  -2   4   4  299.67   27.90
   2  -4  -4  290.77   28.10
   2  -4  -4  305.27   23.10
   2  -4  -4  278.47   22.60
  -1   4   4  935.01   60.49
  -1   4   4  964.50   61.09
  -1   4   4  832.62   60.29
  -1   4   4  866.71   64.79
   1  -4  -4  846.92   65.59
   1  -4  -4  880.41   59.59
   1  -4  -4  938.41   60.29
   1  -4  -4  836.12   60.69
   0   4   4 2059.29  147.49
   0   4   4 2307.27  142.19
   0   4   4 2107.79  143.09
   0   4   4 2237.58  143.79
   0  -4  -4 2177.78  141.09
   0  -4  -4 2151.88  144.19
   0  -4  -4 2207.48  142.69
   0  -4  -4 2214.78  149.59
   1   4   4  246.88   23.90
   1   4   4  259.57   23.30
   1   4   4  195.38   28.10
   1   4   4  190.98   21.20
   1   4   4  243.18   19.00
  -1  -4  -4  214.18   15.90
  -1  -4  -4  202.58   23.80
  -1  -4  -4  178.48   19.40
  -1  -4  -4  217.38   22.80
   2   4   4 1286.27   97.89
   2   4   4 1577.94  101.99
   2   4   4 1541.65  100.39
   2   4   4 1257.67  104.19
  -2  -4  -4 1497.55  102.39
  -2  -4  -4 1517.35   98.79
  -2  -4  -4 1362.96   96.49
   3   4   4   19.20   15.70
   3   4   4   12.30   14.30
  -3  -4  -4   -5.80   11.40
  -3  -4  -4   -9.10   17.60
   4   4   4  711.93   66.89
   4   4   4  702.23   64.29
  -4  -4  -4  721.13   68.09
  -4  -4  -4  729.73   58.69
   5   4   4   70.09   38.20
   5   4   4   72.69   27.00
  -5  -4  -4   94.39   32.60
  -5  -4  -4   68.49   19.60
  -8   4   5    9.30   24.50
  -8   4   5   29.10   20.50
   8  -4  -5   29.70   36.90
   8  -4  -5   43.00   29.50
  -7   4   5  780.52   66.49
  -7   4   5  829.52   64.69
   7  -4  -5  941.51   75.49
   7  -4  -5  735.43   57.49
   7  -4  -5  782.62   71.89
  -6   4   5  106.69   29.30
  -6   4   5  124.49   22.30
  -6   4   5  121.39   21.00
   6  -4  -5  138.89   27.10
   6  -4  -5  144.89   27.00
   6  -4  -5  117.89   20.20
  -5   4   5  634.54   49.30
  -5   4   5  612.74   55.59
  -5   4   5  656.33   47.90
  -5   4   5  598.04   42.50
   5  -4  -5  604.84   43.60
   5  -4  -5  633.34   53.79
   5  -4  -5  624.74   54.49
  -4   4   5  550.94   36.80
  -4   4   5  452.75   38.40
  -4   4   5  448.46   40.70
  -4   4   5  440.86   43.90
  -4   4   5  504.75   35.10
  -4   4   5  472.85   33.80
   4  -4  -5  453.95   34.30
   4  -4  -5  531.95   43.10
   4  -4  -5  438.26   36.50
  -3   4   5  593.54   48.50
  -3   4   5  654.13   46.40
  -3   4   5  637.74   43.40
  -3   4   5  664.83   43.40
  -3   4   5  595.94   43.80
  -3   4   5  651.93   51.79
   3  -4  -5  608.34   43.40
   3  -4  -5  625.74   45.00
   3  -4  -5  578.74   49.20
  -2   4   5 1029.20   71.89
  -2   4   5 1111.39   77.19
  -2   4   5 1083.19   73.59
  -2   4   5 1008.30   72.49
   2  -4  -5 1067.69   72.19
   2  -4  -5 1151.48   78.39
   2  -4  -5 1083.49   72.59
  -1   4   5  115.59   20.00
  -1   4   5  113.29   14.40
  -1   4   5  109.29   14.10
  -1   4   5  105.79   13.70
   1  -4  -5  106.69   13.00
   1  -4  -5  114.99   12.40
   1  -4  -5  116.79   19.20
   1  -4  -5  108.79   13.70
   0   4   5 1075.49   82.59
   0   4   5 1250.87   79.29
   0   4   5 1133.49   78.19
   0   4   5 1214.28   77.39
   0  -4  -5 1091.69   75.39
   0  -4  -5 1102.09   84.89
   0  -4  -5 1155.78   77.29
   0  -4  -5 1096.09   78.89
   1   4   5   19.20   10.90
   1   4   5   27.20   10.70
   1   4   5   46.20   13.30
   1   4   5   32.10   14.70
   1   4   5   24.00    9.60
  -1  -4  -5   27.20    9.70
  -1  -4  -5   33.20   10.10
  -1  -4  -5   16.60   11.00
  -1  -4  -5   16.40    5.30
   2   4   5  851.91   65.09
   2   4   5  832.62   65.29
  -2  -4  -5  893.01   62.09
  -2  -4  -5  788.92   66.29
   3   4   5  921.11   80.39
   3   4   5 1121.39   81.79
  -3  -4  -5 1016.80   76.39
  -3  -4  -5 1066.19   82.29
   4   4   5  234.88   38.00
   4   4   5  213.58   36.40
  -4  -4  -5  217.98   38.10
  -4  -4  -5  211.38   30.50
   5   4   5  471.35   57.39
   5   4   5  383.46   58.99
  -5  -4  -5  368.96   62.59
  -5  -4  -5  419.76   44.90
  -8   4   6    7.30   26.60
  -8   4   6   58.99   21.40
   8  -4  -6  113.29   34.40
   8  -4  -6   95.09   38.70
  -7   4   6  194.88   27.20
  -7   4   6  133.29   27.00
   7  -4  -6  117.69   25.90
   7  -4  -6  157.68   35.20
   7  -4  -6  181.98   32.50
  -6   4   6  474.95   46.10
  -6   4   6  580.14   43.90
  -6   4   6  421.26   55.69
   6  -4  -6  455.95   38.00
   6  -4  -6  433.36   50.49
   6  -4  -6  582.04   53.59
   6  -4  -6  530.55   51.99
  -5   4   6  215.68   20.00
  -5   4   6  218.88   28.60
  -5   4   6  221.78   33.00
  -5   4   6  224.88   20.70
  -5   4   6  244.38   25.00
   5  -4  -6  271.97   35.40
   5  -4  -6  228.58   21.60
  -4   4   6 1523.75   94.09
  -4   4   6 1539.05   95.39
  -4   4   6 1534.55  102.59
  -4   4   6 1358.36   93.19
  -4   4   6 1424.66   97.59
  -4   4   6 1192.08   98.89
   4  -4  -6 1198.28   95.09
   4  -4  -6 1396.86   93.39
   4  -4  -6 1502.85  102.29
  -3   4   6   23.90   16.10
  -3   4   6   38.30    8.90
  -3   4   6    6.80   11.10
  -3   4   6   15.20    7.10
  -3   4   6   29.60   10.30
  -3   4   6   26.60    7.80
   3  -4  -6   28.20   13.10
   3  -4  -6   16.10    7.70
   3  -4  -6   17.90    8.50
  -2   4   6 2107.19  133.09
  -2   4   6 2067.59  134.19
  -2   4   6 1944.81  136.79
  -2   4   6 1924.11  131.99
   2  -4  -6 2063.39  132.69
   2  -4  -6 1985.90  132.49
   2  -4  -6 1980.00  138.69
  -1   4   6  653.03   54.79
  -1   4   6  716.33   50.49
  -1   4   6  679.43   50.79
  -1   4   6  730.83   51.09
   1  -4  -6  721.43   49.60
   1  -4  -6  672.13   48.60
   1  -4  -6  679.73   50.79
   1  -4  -6  711.63   58.19
   0   4   6  581.64   51.09
   0   4   6  618.44   46.70
   0   4   6  565.54   45.40
   0   4   6  663.03   45.10
   0  -4  -6  572.14   53.59
   0  -4  -6  603.14   46.30
   0  -4  -6  631.04   42.10
   0  -4  -6  541.15   43.90
   1   4   6  398.36   35.30
   1   4   6  327.47   29.70
   1   4   6  419.26   36.10
   1   4   6  318.77   41.90
  -1  -4  -6  366.06   35.80
  -1  -4  -6  349.67   30.20
  -1  -4  -6  363.06   26.30
   2   4   6  598.14   54.79
   2   4   6  612.84   53.89
  -2  -4  -6  650.13   49.40
  -2  -4  -6  632.04   55.29
   3   4   6  813.62   68.79
   3   4   6  712.03   66.09
  -3  -4  -6  794.62   61.69
  -3  -4  -6  796.82   67.79
   4   4   6   -3.40   22.10
   4   4   6   16.00   29.10
  -4  -4  -6    1.20   15.10
  -4  -4  -6   20.40   24.30
   5   4   6  388.86   63.19
   5   4   6  384.26   61.59
  -5  -4  -6  524.05   67.19
  -8   4   7  319.57   42.20
  -8   4   7  225.08   28.90
  -8   4   7  189.28   37.30
   8  -4  -7  260.27   45.70
  -7   4   7   18.60   14.40
  -7   4   7   -4.60   11.80
  -7   4   7   -8.90   21.60
   7  -4  -7  -33.80   25.30
  -6   4   7  616.14   48.30
  -6   4   7  650.63   47.60
  -6   4   7  647.64   56.89
  -6   4   7  738.33   54.69
   6  -4  -7  652.83   49.70
   6  -4  -7  749.62   64.09
  -5   4   7   -0.20   15.10
  -5   4   7   22.20    9.30
  -5   4   7   60.59   25.10
  -5   4   7   19.80   11.40
  -5   4   7   31.50    8.90
   5  -4  -7   48.90   19.20
   5  -4  -7    7.60   10.30
  -4   4   7  293.37   41.90
  -4   4   7  313.67   32.30
  -4   4   7  316.27   27.00
  -4   4   7  346.27   29.00
  -4   4   7  349.96   27.50
   4  -4  -7  297.17   37.20
   4  -4  -7  332.57   28.20
  -3   4   7  844.62   59.49
  -3   4   7  833.02   59.89
  -3   4   7  835.62   68.19
  -3   4   7  769.42   65.39
  -3   4   7  892.41   59.69
  -3   4   7  869.71   63.19
   3  -4  -7  928.81   68.49
   3  -4  -7  847.22   61.29
   3  -4  -7  853.91   60.29
  -2   4   7  282.67   24.90
  -2   4   7  298.27   27.80
  -2   4   7  235.68   31.20
  -2   4   7  251.67   24.90
   2  -4  -7  299.47   24.90
   2  -4  -7  274.57   26.10
   2  -4  -7  263.17   32.90
   2  -4  -7  267.67   24.90
  -1   4   7 1174.68   83.49
  -1   4   7 1159.08   88.19
  -1   4   7 1291.07   84.59
  -1   4   7 1282.87   84.79
   1  -4  -7 1154.18   83.79
   1  -4  -7 1240.08   81.79
   1  -4  -7 1211.18   91.89
   1  -4  -7 1140.99   82.39
   0   4   7   -0.20   16.60
   0   4   7   -0.60   12.10
   0   4   7   10.50   10.60
   0  -4  -7    3.80   17.60
   0  -4  -7    0.70    7.00
   0  -4  -7   -1.90    9.30
   1   4   7  992.50   75.99
   1   4   7 1007.90   76.49
   1   4   7 1016.30   71.29
  -1  -4  -7 1018.50   67.39
  -1  -4  -7  984.50   76.19
   2   4   7  342.77   41.70
   2   4   7  356.06   40.20
  -2  -4  -7  343.17   33.20
  -2  -4  -7  356.76   40.90
   3   4   7  697.33   64.89
   3   4   7  706.73   67.09
  -3  -4  -7  743.13   66.19
  -3  -4  -7  706.53   58.39
   4   4   7  226.28   42.20
   4   4   7  278.87   46.60
  -4  -4  -7  180.98   35.30
  -4  -4  -7  203.98   33.00
  -8   4   8  249.78   40.80
  -8   4   8  273.47   42.30
  -7   4   8  170.78   29.60
  -7   4   8  163.78   23.70
   7  -4  -8  136.19   36.50
  -6   4   8  287.87   28.00
  -6   4   8  310.67   33.70
  -6   4   8  277.97   38.00
   6  -4  -8  353.06   46.80
   6  -4  -8  321.97   31.60
  -5   4   8  757.12   63.69
  -5   4   8  768.62   56.59
  -5   4   8  771.92   56.59
  -5   4   8  757.22   60.39
   5  -4  -8  931.61   71.39
   5  -4  -8  815.12   57.89
  -4   4   8  191.68   21.30
  -4   4   8  162.28   20.80
  -4   4   8  203.48   24.00
  -4   4   8  191.78   33.30
  -4   4   8  172.98   27.30
   4  -4  -8  172.38   30.20
   4  -4  -8  232.88   23.30
  -3   4   8 1067.39   75.59
  -3   4   8 1106.59   79.89
  -3   4   8 1168.08   76.79
  -3   4   8  893.61   82.99
   3  -4  -8 1161.08   85.89
   3  -4  -8 1153.48   76.79
  -2   4   8    4.90   11.20
  -2   4   8   16.60   10.40
  -2   4   8   -3.70   10.40
   2  -4  -8   11.70   15.50
   2  -4  -8   15.80   10.10
   2  -4  -8   29.50   11.30
  -1   4   8  754.62   57.89
  -1   4   8  752.22   57.89
   1  -4  -8  766.22   57.59
   1  -4  -8  707.93   66.69
   1  -4  -8  781.82   54.49
   0   4   8  296.07   32.30
   0   4   8  310.67   35.80
   0  -4  -8  398.06   49.00
   0  -4  -8  331.07   27.20
   0  -4  -8  317.97   35.10
   1   4   8  322.77   32.70
   1   4   8  355.26   39.00
   1   4   8  310.97   38.20
  -1  -4  -8  307.17   26.20
  -1  -4  -8  353.26   38.00
   2   4   8  421.06   50.69
   2   4   8  473.95   49.40
  -2  -4  -8  533.05   49.40
   3   4   8   52.69   29.20
   3   4   8   94.29   25.80
  -3  -4  -8  103.29   26.40
  -7   4   9  320.67   39.30
  -7   4   9  258.67   31.10
  -7   4   9  299.57   42.90
   7  -4  -9  272.77   44.80
  -6   4   9  -10.10   19.30
  -6   4   9   -9.00   11.90
  -6   4   9   10.70   15.10
   6  -4  -9    4.60   14.80
   6  -4  -9   -0.10   25.10
  -5   4   9  430.36   44.30
  -5   4   9  404.76   38.20
  -5   4   9  449.76   37.50
  -5   4   9  473.55   42.60
   5  -4  -9  473.95   53.39
   5  -4  -9  475.75   39.50
  -4   4   9  116.79   17.80
  -4   4   9  121.79   21.70
  -4   4   9  110.39   17.60
  -4   4   9  100.29   21.70
   4  -4  -9  126.09   22.70
   4  -4  -9  175.78   29.20
  -3   4   9 1040.70   80.79
  -3   4   9 1067.89   76.69
   3  -4  -9 1031.10   87.39
   3  -4  -9 1148.69   77.39
  -2   4   9  868.91   72.49
  -2   4   9 1023.40   72.09
   2  -4  -9 1007.10   82.69
   2  -4  -9  970.50   71.09
  -1   4   9  296.67   33.40
  -1   4   9  276.57   33.10
   1  -4  -9  299.07   34.50
   1  -4  -9  327.37   48.00
   1  -4  -9  279.87   27.80
   0   4   9  987.80   76.89
   0   4   9 1011.90   75.59
   0  -4  -9 1005.20   75.79
   0  -4  -9  946.51   88.69
   0  -4  -9 1033.50   69.99
   1   4   9   -4.10   16.40
   1   4   9   14.50   17.00
   1   4   9   -4.40   19.00
  -1  -4  -9   16.20   16.00
   2   4   9  691.53   63.29
   2   4   9  613.04   65.49
  -2  -4  -9  730.13   63.79
   3   4   9  126.69   36.90
   3   4   9   74.09   28.20
  -3  -4  -9  110.39   28.60
  -7   4  10  229.18   36.80
  -7   4  10  150.08   31.30
  -7   4  10  188.28   29.20
   7  -4 -10  208.18   42.00
  -6   4  10  188.38   33.90
  -6   4  10  146.09   26.60
  -6   4  10  225.48   38.20
   6  -4 -10  212.48   40.40
   6  -4 -10  225.58   32.60
  -5   4  10  113.99   19.40
  -5   4  10   82.49   32.20
  -5   4  10  102.79   23.90
   5  -4 -10  139.49   31.20
   5  -4 -10  173.38   27.20
  -4   4  10  375.26   38.00
  -4   4  10  414.66   43.40
   4  -4 -10  420.36   53.49
   4  -4 -10  456.95   40.60
  -3   4  10  165.28   24.10
  -3   4  10  135.89   25.00
   3  -4 -10  171.18   29.60
   3  -4 -10  109.29   29.90
  -2   4  10  782.62   61.89
  -2   4  10  660.13   64.59
   2  -4 -10  897.21   62.99
   2  -4 -10  774.12   73.59
  -1   4  10  160.58   28.70
  -1   4  10  125.89   24.50
   1  -4 -10  215.58   30.90
   1  -4 -10  171.38   37.20
   0   4  10  760.12   62.99
   0   4  10  669.43   62.19
   0   4  10  671.73   62.29
   0  -4 -10  825.92   61.99
   1   4  10  298.97   41.20
   1   4  10  266.77   41.30
   1   4  10  267.87   44.50
  -1  -4 -10  357.66   43.10
   2   4  10  281.47   43.90
   2   4  10  248.38   46.00
  -2  -4 -10  375.06   47.80
  -6   4  11  419.96   54.89
  -6   4  11  463.45   44.30
   6  -4 -11  567.24   68.29
   6  -4 -11  564.24   49.50
  -5   4  11  -15.30   13.90
  -5   4  11   14.70   20.70
   5  -4 -11   -0.10   17.90
   5  -4 -11  -19.20   27.80
  -4   4  11  533.85   49.60
  -4   4  11  558.14   56.19
   4  -4 -11  606.94   51.59
   4  -4 -11  613.14   64.79
  -3   4  11  182.58   27.30
  -3   4  11  144.59   29.50
   3  -4 -11  202.78   32.20
  -2   4  11  466.25   49.50
  -2   4  11  340.77   43.30
   2  -4 -11  487.55   45.10
   2  -4 -11  441.66   60.59
  -1   4  11  391.86   51.79
  -1   4  11  411.16   45.30
   1  -4 -11  420.86   63.19
   1  -4 -11  483.75   45.70
   0   4  11  155.68   29.40
   0   4  11  133.29   27.80
   0   4  11  119.99   30.30
   1   4  11  685.83   65.99
   1   4  11  705.73   69.69
  -1  -4 -11  820.02   68.09
  -5   4  12  271.47   49.10
  -5   4  12  288.77   38.70
   5  -4 -12  342.87   50.29
   5  -4 -12  358.26   42.50
  -4   4  12  174.18   33.70
  -4   4  12   93.29   22.80
   4  -4 -12  139.39   35.80
  -3   4  12  579.44   63.59
  -3   4  12  578.34   56.69
   3  -4 -12  691.73   74.19
   3  -4 -12  674.83   57.69
  -2   4  12   15.60   26.90
  -2   4  12   38.30   21.60
   2  -4 -12   57.39   34.90
   2  -4 -12   69.99   20.70
  -1   4  12  695.83   72.99
  -1   4  12  649.93   65.59
   1  -4 -12  841.22   65.29
   1  -4 -12  668.43   85.39
   0   4  12   24.30   44.50
   0   4  12   34.60   26.10
   0   4  12   19.50   24.80
   0  -4 -12   22.50   22.40
  -4   4  13   29.10   29.20
  -4   4  13  -26.80   20.40
   4  -4 -13   72.99   22.70
   4  -4 -13   19.30   39.00
  -3   4  13  447.46   61.09
  -3   4  13  408.76   49.80
   3  -4 -13  473.85   73.39
  -2   4  13  196.08   35.20
  -2   4  13  165.78   39.30
   2  -4 -13  231.48   49.80
   0   5 -13   38.80   23.70
   0  -5  13  131.39   37.40
   0  -5  13  -45.60   48.50
   0  -5  13   61.29   45.70
   1   5 -13  243.88   37.40
  -1  -5  13  244.58   54.29
  -1  -5  13  373.86   56.19
  -1  -5  13  198.88   58.49
   2   5 -13  196.08   34.40
  -2  -5  13  213.98   52.49
   3   5 -13  -20.40   24.30
  -3  -5  13   50.09   45.70
  -3  -5  13   14.90   46.40
  -2   5 -12  225.38   28.20
   2  -5  12  198.08   45.50
   2  -5  12  263.17   59.69
  -1   5 -12  165.28   30.20
  -1   5 -12  171.68   24.80
   1  -5  12  208.98   42.00
   1  -5  12  126.69   49.50
   0   5 -12  527.55   52.89
   0  -5  12  419.66   74.89
   0  -5  12  542.35   60.49
   1   5 -12    3.60   22.10
  -1  -5  12   10.80   28.30
  -1  -5  12   40.40   47.00
  -1  -5  12   -9.70   35.80
   2   5 -12  571.94   60.19
  -2  -5  12  563.24   79.49
  -2  -5  12  748.33   61.09
   3   5 -12   21.60   23.40
  -3  -5  12   30.90   39.30
  -3  -5  12   52.59   37.90
   4   5 -12  188.58   32.90
   4   5 -12  242.48   36.60
  -4  -5  12  111.39   44.80
  -4  -5  12  207.18   47.00
  -3   5 -11  108.79   25.90
  -3   5 -11   73.59   16.60
   3  -5  11   34.40   37.10
  -2   5 -11  613.74   50.99
  -2   5 -11  660.33   59.09
   2  -5  11  497.55   81.99
   2  -5  11  732.93   72.39
  -1   5 -11   -4.60   18.00
   1  -5  11   25.90   38.30
   1  -5  11   26.10   28.40
   0   5 -11  562.14   49.60
   0  -5  11  402.86   66.29
   0  -5  11  581.14   57.49
   0  -5  11  372.76   70.89
   1   5 -11   30.00   21.30
   1   5 -11    7.00   19.30
  -1  -5  11   -2.70   39.10
  -1  -5  11   -0.50   32.10
  -1  -5  11   48.00   21.90
   2   5 -11  396.26   35.80
   2   5 -11  301.57   41.20
  -2  -5  11  409.56   41.60
  -2  -5  11  266.17   52.49
   3   5 -11  376.36   45.30
   3   5 -11  434.16   41.50
  -3  -5  11  349.37   64.59
   4   5 -11   23.60   23.90
   4   5 -11  -13.30   18.40
  -4  -5  11   -6.00   35.80
  -4  -5  11    5.10   28.60
   5   5 -11  170.58   31.40
  -5  -5  11  113.29   40.60
  -5  -5  11  194.68   47.00
  -4   5 -10  631.14   55.39
  -4   5 -10  761.12   65.09
   4  -5  10  616.84   77.19
  -3   5 -10   87.89   22.50
  -3   5 -10   57.69   14.60
   3  -5  10  129.29   37.00
  -2   5 -10  483.45   47.10
  -2   5 -10  492.05   41.20
   2  -5  10  362.96   61.59
   2  -5  10  514.95   58.49
  -1   5 -10  353.66   38.90
   1  -5  10  328.37   58.89
   1  -5  10  345.17   49.50
   1  -5  10  304.67   61.79
   0   5 -10  117.69   24.00
   0  -5  10  129.49   44.30
   0  -5  10  213.48   31.70
   0  -5  10  125.49   37.40
   1   5 -10 1408.96   96.89
   1   5 -10 1436.06  102.99
   1   5 -10 1469.45   99.29
  -1  -5  10 1416.36  102.39
   2   5 -10   38.40   13.50
   2   5 -10   20.40   17.60
   2   5 -10   29.10   12.30
  -2  -5  10   43.80   29.90
  -2  -5  10   85.69   18.80
  -2  -5  10   32.60   12.20
  -2  -5  10   44.40   32.70
   3   5 -10  331.37   39.10
   3   5 -10  389.76   36.90
  -3  -5  10  239.68   51.29
  -3  -5  10  375.16   34.40
  -3  -5  10  333.27   51.29
   4   5 -10   41.80   21.00
   4   5 -10   57.79   21.10
  -4  -5  10   57.19   30.50
  -4  -5  10   25.40   32.10
   5   5 -10  299.57   48.00
   5   5 -10  221.78   40.40
  -5  -5  10  149.09   40.90
  -5  -5  10  358.36   64.09
   6   5 -10   44.10   27.10
   6   5 -10  127.89   35.40
  -6  -5  10  109.09   46.00
  -6  -5  10   25.40   37.40
  -4   5  -9  441.56   45.00
  -4   5  -9  302.97   33.90
   4  -5   9  403.46   57.69
  -3   5  -9  557.84   47.10
  -3   5  -9  683.83   53.49
   3  -5   9  476.95   61.99
  -2   5  -9   30.60   10.60
  -2   5  -9    7.70   15.60
   2  -5   9   15.90   24.80
   2  -5   9   20.80   33.80
  -1   5  -9  663.63   51.19
   1  -5   9  502.55   66.29
   1  -5   9  471.95   68.29
   1  -5   9  620.94   57.49
   0   5  -9  -14.00   14.20
   0   5  -9    2.70   15.30
   0  -5   9    5.20   26.40
   0  -5   9    2.60   32.40
   0  -5   9   41.90   18.00
   1   5  -9  912.11   61.99
   1   5  -9  882.31   67.49
   1   5  -9  888.01   63.29
  -1  -5   9  863.21   65.79
  -1  -5   9  902.71   58.69
  -1  -5   9  712.13   79.39
   2   5  -9  344.27   28.40
   2   5  -9  334.57   30.70
   2   5  -9  342.97   36.10
  -2  -5   9  297.87   50.99
  -2  -5   9  333.47   32.50
  -2  -5   9  354.26   30.30
   3   5  -9  209.18   29.20
   3   5  -9  139.29   25.40
  -3  -5   9  141.79   33.00
  -3  -5   9  150.08   35.30
  -3  -5   9  215.28   26.10
   4   5  -9  552.64   49.99
   4   5  -9  584.64   48.50
  -4  -5   9  402.26   63.49
  -4  -5   9  463.75   57.49
   5   5  -9   -7.80   22.40
   5   5  -9   45.20   21.30
  -5  -5   9   25.30   25.10
  -5  -5   9  110.19   35.60
   6   5  -9  309.47   53.59
   6   5  -9  308.07   46.40
  -6  -5   9  165.48   43.90
  -6  -5   9  232.38   49.60
  -5   5  -8  666.43   60.59
  -5   5  -8  693.03   57.89
  -5   5  -8  875.31   69.79
   5  -5   8  818.52   83.29
  -4   5  -8   93.19   20.70
  -4   5  -8   37.00   12.30
   4  -5   8   52.99   29.40
  -3   5  -8  967.00   73.19
  -3   5  -8 1081.79   75.89
   3  -5   8  963.90   84.39
  -2   5  -8  292.07   32.20
  -2   5  -8  293.77   28.00
   2  -5   8  330.47   53.09
   2  -5   8  248.88   43.00
  -1   5  -8  441.16   37.70
  -1   5  -8  374.66   41.40
   1  -5   8  353.06   58.29
   1  -5   8  324.57   50.29
   1  -5   8  442.56   43.50
   0   5  -8  547.45   43.90
   0   5  -8  571.54   43.10
   0  -5   8  500.05   45.70
   0  -5   8  403.26   54.99
   1   5  -8  309.07   26.70
   1   5  -8  301.67   27.40
   1   5  -8  312.27   31.40
  -1  -5   8  305.27   22.70
  -1  -5   8  291.67   30.60
  -1  -5   8  259.07   44.90
  -1  -5   8  206.68   44.20
   2   5  -8  865.01   56.99
   2   5  -8  898.61   63.79
   2   5  -8  833.52   59.39
  -2  -5   8  717.83   73.09
  -2  -5   8  809.72   59.69
  -2  -5   8  846.22   58.79
   3   5  -8   26.10   12.60
   3   5  -8    4.80   14.10
  -3  -5   8   47.30   27.80
  -3  -5   8    9.30   20.60
  -3  -5   8   23.90   11.50
   4   5  -8  481.75   42.60
   4   5  -8  466.45   42.70
  -4  -5   8  366.76   50.59
  -4  -5   8  298.67   55.49
   5   5  -8   47.40   19.30
   5   5  -8   58.79   24.10
  -5  -5   8   58.49   27.60
  -5  -5   8  103.39   34.40
   6   5  -8  315.97   53.49
   6   5  -8  297.77   44.10
  -6  -5   8  224.68   45.60
  -6  -5   8  224.68   45.80
  -5   5  -7  635.34   51.59
  -5   5  -7  639.54   53.09
  -5   5  -7  718.73   60.79
   5  -5   7  580.34   74.19
  -4   5  -7  430.86   37.80
  -4   5  -7  355.66   33.70
   4  -5   7  328.67   31.30
   4  -5   7  435.06   51.49
  -3   5  -7  381.26   32.20
  -3   5  -7  332.17   33.60
   3  -5   7  330.67   45.40
  -2   5  -7 1209.88   79.29
  -2   5  -7 1241.88   79.29
   2  -5   7  926.61   90.69
   2  -5   7 1123.69   85.59
   2  -5   7 1029.90   77.39
  -1   5  -7   -2.30   14.10
  -1   5  -7    2.30   11.70
  -1   5  -7   -8.90   21.30
   1  -5   7   -0.30   13.90
   1  -5   7    1.30   19.60
   1  -5   7   14.60   29.80
   1  -5   7   -7.80    9.10
   0   5  -7  632.34   47.00
   0   5  -7  598.94   57.99
   0   5  -7  647.34   47.00
   0  -5   7  619.84   45.50
   0  -5   7  667.43   49.50
   0  -5   7  459.75   64.89
   0  -5   7  480.45   56.59
   1   5  -7   37.30    9.30
   1   5  -7   39.10   11.00
   1   5  -7   24.40   11.50
   1   5  -7   72.89   23.70
  -1  -5   7   27.50   10.40
  -1  -5   7   26.60   23.50
  -1  -5   7   21.30   11.90
  -1  -5   7   21.00    6.10
  -1  -5   7   29.90   19.50
   2   5  -7 1114.39   68.89
   2   5  -7 1149.39   72.49
   2   5  -7 1125.49   75.09
  -2  -5   7 1024.80   70.49
  -2  -5   7  859.21   82.19
  -2  -5   7  856.11   84.19
  -2  -5   7 1062.89   71.59
   3   5  -7  455.65   40.00
   3   5  -7  459.75   37.70
  -3  -5   7  368.56   47.60
  -3  -5   7  413.36   49.40
  -3  -5   7  442.66   36.50
   4   5  -7  161.38   28.60
   4   5  -7  156.38   27.00
  -4  -5   7  114.39   31.40
  -4  -5   7  142.89   31.90
   5   5  -7  369.16   44.60
   5   5  -7  307.97   37.00
  -5  -5   7  263.97   42.80
  -5  -5   7  309.77   56.29
   6   5  -7   39.80   27.70
   6   5  -7   12.90   20.30
  -6  -5   7   40.00   36.60
  -6  -5   7   22.90   27.40
  -6   5  -6  222.68   31.90
  -6   5  -6  238.88   30.90
  -6   5  -6  336.17   44.40
   6  -5   6  201.38   44.70
  -5   5  -6  109.49   17.60
  -5   5  -6  104.59   19.20
  -5   5  -6  185.68   30.00
   5  -5   6   98.49   19.40
   5  -5   6  137.59   36.40
  -4   5  -6 1476.55  100.79
  -4   5  -6 1498.25   99.19
  -4   5  -6 1482.45   98.39
   4  -5   6 1311.77   97.99
   4  -5   6 1454.55  101.39
   4  -5   6 1481.85  111.29
   4  -5   6 1384.26   96.79
  -3   5  -6    5.30    7.70
  -3   5  -6    6.80    9.40
  -3   5  -6    5.30   21.80
   3  -5   6   -2.60    5.90
   3  -5   6    3.50   17.40
   3  -5   6    8.00   10.30
  -2   5  -6  963.80   85.49
  -2   5  -6 1111.79   77.29
  -2   5  -6 1180.08   77.09
  -2   5  -6 1090.99   81.79
   2  -5   6 1058.19   95.29
   2  -5   6 1131.69   75.89
   2  -5   6 1136.29   83.59
  -1   5  -6  323.47   28.50
  -1   5  -6  308.87   31.70
  -1   5  -6  294.27   38.50
   1  -5   6  290.17   49.60
   1  -5   6  290.37   40.80
   1  -5   6  303.67   26.40
   1  -5   6  345.37   34.00
   0   5  -6  699.33   49.80
   0   5  -6  632.44   58.39
   0   5  -6  701.03   50.49
   0  -5   6  692.43   51.69
   0  -5   6  660.63   48.50
   0  -5   6  612.54   67.19
   1   5  -6 1363.46   85.39
   1   5  -6 1277.57   94.79
   1   5  -6 1405.56   87.59
   1   5  -6 1328.27   84.39
  -1  -5   6 1088.69   93.69
  -1  -5   6 1259.27   83.29
  -1  -5   6 1315.57   86.49
  -1  -5   6 1242.38   85.99
  -1  -5   6 1040.00   97.49
   2   5  -6  324.97   29.40
   2   5  -6  329.77   39.70
   2   5  -6  323.87   27.30
  -2  -5   6  310.17   28.50
  -2  -5   6  337.77   27.20
  -2  -5   6  315.87   42.20
   3   5  -6  642.44   54.89
   3   5  -6  589.94   47.00
   3   5  -6  669.93   47.60
  -3  -5   6  491.85   54.89
  -3  -5   6  558.34   45.20
   4   5  -6   15.60   14.00
   4   5  -6   25.30   13.40
   4   5  -6  -21.90   19.90
  -4  -5   6   47.40   23.90
  -4  -5   6   14.40   17.40
   5   5  -6  462.95   41.80
  -5  -5   6  379.66   53.09
  -5  -5   6  391.06   48.80
   6   5  -6   16.00   25.90
   6   5  -6   41.80   19.30
  -6  -5   6   11.40   22.40
  -6  -5   6  -24.10   35.40
  -6   5  -5  557.64   51.59
  -6   5  -5  536.25   44.50
  -6   5  -5  529.05   47.40
   6  -5   5  479.45   73.79
   6  -5   5  539.65   50.89
  -5   5  -5   88.99   17.70
  -5   5  -5  101.29   17.80
  -5   5  -5  117.09   18.00
  -5   5  -5   74.19   13.50
   5  -5   5   43.50   15.10
   5  -5   5   73.79   16.80
   5  -5   5  137.19   31.60
  -4   5  -5 1100.19   74.59
  -4   5  -5 1077.09   76.79
  -4   5  -5 1053.09   72.59
  -4   5  -5 1125.19   74.59
   4  -5   5 1013.50   74.09
   4  -5   5 1052.39   73.69
   4  -5   5 1094.29   87.39
  -3   5  -5  746.83   53.79
  -3   5  -5  791.52   52.59
  -3   5  -5  712.93   48.60
   3  -5   5  767.92   62.49
   3  -5   5  738.23   51.69
   3  -5   5  624.64   49.70
  -2   5  -5  266.77   24.30
  -2   5  -5  283.97   24.60
  -2   5  -5  226.68   34.70
  -2   5  -5  241.08   30.40
   2  -5   5  312.47   32.90
   2  -5   5  248.48   44.80
   2  -5   5  251.87   23.00
  -1   5  -5  579.44   53.99
  -1   5  -5  624.94   49.10
  -1   5  -5  706.03   45.80
   1  -5   5  628.64   49.70
   1  -5   5  590.64   64.59
   1  -5   5  494.65   54.89
   1  -5   5  643.44   44.50
   0   5  -5   -7.80   14.70
   0   5  -5    8.10    9.90
   0   5  -5   -0.30    6.10
   0  -5   5    4.00    6.00
   0  -5   5   -0.60   13.00
   0  -5   5    5.90   23.10
   0  -5   5   14.60    9.50
   1   5  -5 2299.67  156.48
   1   5  -5 2420.86  147.89
   1   5  -5 2394.76  149.79
   1   5  -5 2368.36  148.19
  -1  -5   5 2264.97  148.59
  -1  -5   5 2292.27  149.19
  -1  -5   5 2299.37  146.99
  -1  -5   5 2054.39  159.88
  -1  -5   5 1961.70  155.38
   2   5  -5  157.68   18.30
   2   5  -5  135.39   16.40
  -2  -5   5  128.09   25.10
  -2  -5   5  133.29   16.30
  -2  -5   5  148.49   17.60
  -2  -5   5  114.19   26.80
   3   5  -5  712.73   49.99
   3   5  -5  632.04   48.30
   3   5  -5  713.53   54.19
  -3  -5   5  504.65   54.09
  -3  -5   5  578.84   57.59
  -3  -5   5  617.94   47.60
   4   5  -5  399.16   38.00
   4   5  -5  411.66   35.40
   4   5  -5  345.27   37.90
  -4  -5   5  251.37   40.60
  -4  -5   5  313.67   41.00
   5   5  -5  156.48   27.20
   5   5  -5   62.89   21.00
   5   5  -5  136.69   22.40
  -5  -5   5  103.79   26.50
  -5  -5   5   97.79   28.10
   6   5  -5  522.75   49.60
   6   5  -5  581.24   58.39
  -6  -5   5  341.17   61.09
  -6  -5   5  396.56   53.19
   7   5  -5   11.60   23.50
   7   5  -5   40.00   35.40
  -7  -5   5   32.80   30.10
  -7   5  -4   95.09   24.60
   7  -5   4  154.88   47.50
   7  -5   4  130.39   30.40
  -6   5  -4  108.79   20.80
  -6   5  -4  100.59   20.90
  -6   5  -4  102.89   17.40
   6  -5   4   62.39   34.20
   6  -5   4   96.09   22.10
  -5   5  -4  318.97   55.19
  -5   5  -4  478.05   36.00
  -5   5  -4  403.86   35.40
  -5   5  -4  496.55   37.80
  -5   5  -4  471.45   39.20
   5  -5   4  527.75   56.99
   5  -5   4  456.85   39.10
   5  -5   4  412.26   36.10
  -4   5  -4  276.47   26.40
  -4   5  -4  302.07   24.10
  -4   5  -4  227.98   41.70
  -4   5  -4  296.27   24.50
  -4   5  -4  322.17   25.40
   4  -5   4  280.97   25.30
   4  -5   4  302.07   42.10
   4  -5   4  253.17   24.90
  -3   5  -4 1612.04  101.89
  -3   5  -4 1569.14  104.09
  -3   5  -4 1500.95  100.09
  -3   5  -4 1362.96  108.19
   3  -5   4 1593.74  110.99
   3  -5   4 1517.85  100.89
   3  -5   4 1561.14  101.39
  -2   5  -4   15.60    7.60
  -2   5  -4   17.80   15.90
  -2   5  -4   20.20   13.10
   2  -5   4   11.20   23.10
   2  -5   4   12.90    6.70
   2  -5   4   15.60   12.20
  -1   5  -4 1495.65  115.79
  -1   5  -4 1788.52  108.89
  -1   5  -4 1712.33  112.09
   1  -5   4 1663.13  124.79
   1  -5   4 1678.33  108.39
   1  -5   4 1740.43  112.69
   1  -5   4 1395.66  116.39
   0   5  -4  550.64   35.80
   0   5  -4  540.15   37.80
   0   5  -4  533.35   39.90
   0   5  -4  518.95   34.70
   0   5  -4  499.65   46.00
   0  -5   4  489.65   39.40
   0  -5   4  523.05   37.40
   0  -5   4  429.56   45.60
   0  -5   4  518.25   52.59
   1   5  -4  524.55   46.50
   1   5  -4  557.44   37.80
   1   5  -4  551.84   39.00
   1   5  -4  516.15   37.70
  -1  -5   4  561.64   37.30
  -1  -5   4  467.55   50.39
  -1  -5   4  541.15   39.20
  -1  -5   4  509.55   38.60
  -1  -5   4  442.36   45.60
   2   5  -4  821.52   53.39
   2   5  -4  744.13   53.19
   2   5  -4  801.22   59.89
  -2  -5   4  748.83   52.29
  -2  -5   4  593.54   58.09
  -2  -5   4  668.73   61.89
  -2  -5   4  753.72   52.79
   3   5  -4   68.09   13.20
   3   5  -4   65.99   13.60
   3   5  -4   24.60   22.90
   3   5  -4   71.89   17.10
  -3  -5   4   33.90   16.80
  -3  -5   4   76.59   13.20
  -3  -5   4   74.89   20.90
   4   5  -4  505.35   41.70
   4   5  -4  511.55   41.10
   4   5  -4  522.25   44.20
  -4  -5   4  440.76   47.20
  -4  -5   4  378.06   45.80
   5   5  -4    3.70   17.90
   5   5  -4  -18.60   13.10
   5   5  -4  -25.80   14.20
  -5  -5   4    1.00   17.60
  -5  -5   4   21.10   23.30
   6   5  -4  362.36   43.50
   6   5  -4  475.65   53.99
  -6  -5   4  314.97   45.80
  -6  -5   4  321.77   54.19
   7   5  -4   15.20   31.80
   7   5  -4   74.69   25.40
  -7  -5   4   67.99   33.00
  -7   5  -3  665.73   59.89
  -7   5  -3  649.43   54.99
   7  -5   3  792.82   83.89
   7  -5   3  715.23   64.79
  -6   5  -3   13.50   15.30
  -6   5  -3    7.20   11.30
  -6   5  -3    0.00    9.10
   6  -5   3   56.29   31.00
   6  -5   3    4.10   15.80
  -5   5  -3  854.61   84.99
  -5   5  -3 1052.69   71.89
  -5   5  -3 1150.18   75.79
  -5   5  -3  939.61   72.09
  -5   5  -3 1027.30   71.89
   5  -5   3 1053.59   70.99
   5  -5   3 1060.19   86.89
   5  -5   3 1111.89   74.99
  -4   5  -3  188.48   17.50
  -4   5  -3  187.78   31.90
  -4   5  -3  141.49   17.40
  -4   5  -3  168.38   19.20
  -4   5  -3  223.78   19.10
   4  -5   3  175.38   18.00
   4  -5   3  239.18   33.40
   4  -5   3  192.68   20.10
  -3   5  -3 1078.39   71.79
  -3   5  -3 1021.90   76.99
  -3   5  -3  992.90   68.69
  -3   5  -3 1063.99   68.89
  -3   5  -3 1059.29   70.39
   3  -5   3 1077.89   78.29
   3  -5   3  919.61   68.49
   3  -5   3 1050.49   69.59
  -2   5  -3  894.31   75.69
  -2   5  -3 1017.70   73.39
  -2   5  -3  942.61   66.19
  -2   5  -3 1101.49   68.19
   2  -5   3 1032.80   74.09
   2  -5   3 1019.80   84.19
   2  -5   3 1087.49   67.89
  -1   5  -3  372.56   26.30
  -1   5  -3  326.17   31.50
  -1   5  -3  272.67   34.30
   1  -5   3  374.26   46.70
   1  -5   3  320.67   31.60
   1  -5   3  356.16   25.90
   0   5  -3 1271.37   86.09
   0   5  -3 1294.17   82.69
   0   5  -3 1200.68   91.79
   0   5  -3 1330.97   84.49
   0   5  -3 1302.17   84.29
   0  -5   3 1069.89   91.89
   0  -5   3 1260.27   97.29
   0  -5   3 1261.17   86.09
   0  -5   3 1322.17   84.29
   1   5  -3   84.89   11.30
   1   5  -3   66.39   10.00
   1   5  -3   50.19   15.80
  -1  -5   3   43.70   15.40
  -1  -5   3   71.79   10.80
  -1  -5   3   67.39   11.50
  -1  -5   3   80.29   20.50
  -1  -5   3   92.99   14.10
   2   5  -3 3614.34  230.28
   2   5  -3 3342.47  235.98
   2   5  -3 3698.23  226.58
   2   5  -3 3721.63  231.38
   2   5  -3 3544.05  227.18
   2   5  -3 3590.14  234.18
  -2  -5   3 3300.67  237.18
  -2  -5   3 3496.15  229.98
   3   5  -3  271.87   25.40
   3   5  -3  314.37   29.90
   3   5  -3  289.47   27.90
   3   5  -3  277.57   38.40
  -3  -5   3  179.98   31.10
  -3  -5   3  247.48   33.50
  -3  -5   3  236.48   25.30
   4   5  -3  446.96   40.50
   4   5  -3  390.66   34.50
   4   5  -3  384.06   35.40
  -4  -5   3  359.36   41.80
   5   5  -3  315.97   28.50
   5   5  -3  325.37   41.90
   5   5  -3  315.57   34.30
  -5  -5   3  248.08   40.80
  -5  -5   3  251.87   37.40
   6   5  -3  132.49   31.70
   6   5  -3   67.99   22.30
  -6  -5   3   91.29   26.70
  -7   5  -2  501.85   44.50
  -7   5  -2  490.05   47.90
   7  -5   2  514.25   52.99
   7  -5   2  545.75   73.19
  -6   5  -2  120.09   18.90
  -6   5  -2  106.79   18.70
  -6   5  -2   93.79   17.40
   6  -5   2  150.88   36.10
   6  -5   2  115.99   20.50
  -5   5  -2  327.87   30.10
  -5   5  -2  378.16   28.80
  -5   5  -2  287.97   29.00
  -5   5  -2  322.87   27.70
   5  -5   2  367.16   47.00
   5  -5   2  321.77   26.70
   5  -5   2  355.16   32.30
  -4   5  -2 1850.91  116.89
  -4   5  -2 1647.04  114.69
  -4   5  -2 1710.33  116.89
  -4   5  -2 1809.62  118.59
  -4   5  -2 1624.34  123.49
   4  -5   2 1807.62  125.69
   4  -5   2 1819.62  114.19
   4  -5   2 1788.52  117.89
  -3   5  -2   81.49   17.20
  -3   5  -2   47.10    8.10
  -3   5  -2   56.29   11.00
  -3   5  -2   69.09   10.50
  -3   5  -2   60.39   19.00
  -3   5  -2   78.09   10.80
   3  -5   2   67.59   11.30
   3  -5   2   71.49    8.50
   3  -5   2   82.19   17.80
  -2   5  -2 1892.01  131.99
  -2   5  -2 1913.21  127.09
  -2   5  -2 2260.97  127.29
  -2   5  -2 1632.64  133.89
   2  -5   2 1988.60  127.59
   2  -5   2 1916.61  132.69
   2  -5   2 1982.10  140.39
   2  -5   2 2046.20  126.79
  -1   5  -2   52.19    8.80
  -1   5  -2   51.89   17.70
  -1   5  -2   35.20   12.20
  -1   5  -2   50.89    9.10
   1  -5   2   35.50   12.00
   1  -5   2   71.59   25.70
   1  -5   2   50.29    8.60
   1  -5   2   48.70    8.80
   0   5  -2  962.90   60.89
   0   5  -2  768.52   67.89
   0   5  -2  927.61   62.89
   0   5  -2  836.02   63.09
   0   5  -2  919.21   61.19
   0  -5   2  928.01   63.59
   0  -5   2  955.60   61.39
   0  -5   2  925.11   73.69
   1   5  -2  401.76   29.70
   1   5  -2  396.86   29.70
   1   5  -2  353.76   37.20
   1   5  -2  398.76   37.30
   1   5  -2  412.76   29.80
  -1  -5   2  348.47   39.30
  -1  -5   2  415.96   29.90
  -1  -5   2  323.97   35.70
   2   5  -2  617.34   43.30
   2   5  -2  568.04   39.80
   2   5  -2  548.05   45.30
   2   5  -2  491.35   41.00
   2   5  -2  605.74   39.00
   2   5  -2  542.15   47.80
  -2  -5   2  570.64   49.80
  -2  -5   2  535.25   41.40
   3   5  -2 1344.97   90.49
   3   5  -2 1426.96   93.59
   3   5  -2 1246.08   96.49
   3   5  -2 1454.75   90.99
   3   5  -2 1372.06   87.79
   3   5  -2 1292.67   87.99
  -3  -5   2 1160.48   90.29
  -3  -5   2 1219.88   96.59
   4   5  -2   77.79   14.90
   4   5  -2   96.09   17.50
   4   5  -2   61.49   17.50
   4   5  -2   73.99   13.40
  -4  -5   2   66.89    9.60
  -4  -5   2   56.19   18.00
  -4  -5   2   93.49   21.20
   5   5  -2  626.84   49.20
   5   5  -2  652.93   44.70
   5   5  -2  683.33   53.29
   5   5  -2  715.33   61.09
  -5  -5   2  524.95   42.40
  -5  -5   2  592.94   56.99
   6   5  -2   38.80   27.70
   6   5  -2   68.09   20.50
  -6  -5   2   47.50   22.10
  -7   5  -1  194.98   28.20
  -7   5  -1  157.38   26.20
   7  -5   1  173.88   30.50
   7  -5   1  215.58   45.40
  -6   5  -1  597.94   49.99
  -6   5  -1  668.13   48.40
   6  -5   1  663.73   54.29
   6  -5   1  678.43   66.69
   6  -5   1  576.74   43.70
  -5   5  -1    0.40    7.50
  -5   5  -1   -2.70    8.70
  -5   5  -1    0.90   10.50
  -5   5  -1    1.30    7.70
   5  -5   1   -9.20   18.90
   5  -5   1    5.20   10.70
   5  -5   1   -3.70    5.20
  -4   5  -1 1735.93  111.19
  -4   5  -1 1502.45  116.89
  -4   5  -1 1597.44  111.69
  -4   5  -1 1707.93  112.59
  -4   5  -1 1540.55  108.19
   4  -5   1 1756.62  119.39
   4  -5   1 1789.02  107.59
   4  -5   1 1732.83  112.79
  -3   5  -1  436.86   33.20
  -3   5  -1  433.26   38.60
  -3   5  -1  448.06   29.20
  -3   5  -1  403.06   32.50
  -3   5  -1  477.55   32.70
   3  -5   1  440.56   29.20
   3  -5   1  416.76   33.00
   3  -5   1  444.16   39.20
  -2   5  -1 1104.19   74.69
  -2   5  -1 1135.79   72.79
  -2   5  -1 1125.29   74.69
  -2   5  -1 1096.89   79.19
   2  -5   1 1110.39   86.39
   2  -5   1 1090.89   79.59
   2  -5   1 1140.09   72.59
   2  -5   1 1107.19   75.19
  -1   5  -1  347.57   37.20
  -1   5  -1  385.56   29.70
  -1   5  -1  369.86   32.70
  -1   5  -1  402.46   27.80
  -1   5  -1  368.76   32.10
   1  -5   1  408.66   31.20
   1  -5   1  439.16   44.40
   1  -5   1  398.46   33.10
   0   5  -1  310.87   23.20
   0   5  -1  286.77   22.50
   0   5  -1  311.27   26.70
   0   5  -1  269.57   25.80
   0   5  -1  288.77   28.20
   0  -5   1  280.97   36.60
   0  -5   1  311.37   26.90
   1   5  -1 3772.32  223.08
   1   5  -1 3346.87  224.28
   1   5  -1 3379.96  228.18
   1   5  -1 3596.24  225.08
   1   5  -1 3601.54  225.68
   1   5  -1 3443.16  228.18
  -1  -5   1 3133.19  229.98
   2   5  -1   24.10    9.10
   2   5  -1   35.70   11.50
   2   5  -1   31.80    9.80
   2   5  -1   27.70    7.50
   2   5  -1   20.00   12.70
   2   5  -1   19.10    7.70
  -2  -5   1   22.30    8.40
  -2  -5   1   29.70   14.60
  -2  -5   1   27.10   12.20
   3   5  -1  710.33   60.79
   3   5  -1  806.42   53.39
   3   5  -1  770.82   55.19
   3   5  -1  825.62   58.99
   3   5  -1  779.92   53.79
  -3  -5   1  702.43   55.69
  -3  -5   1  675.63   50.09
  -3  -5   1  758.82   61.49
   4   5  -1   64.39   11.50
   4   5  -1   60.29   14.90
   4   5  -1   82.39   20.40
   4   5  -1   38.00   14.90
  -4  -5   1   73.59   20.00
  -4  -5   1   62.89    9.70
   5   5  -1  302.27   33.90
   5   5  -1  300.17   41.30
   5   5  -1  189.38   34.60
  -5  -5   1  285.87   36.30
  -5  -5   1  237.28   22.50
   6   5  -1  347.77   43.40
   6   5  -1  419.26   55.89
  -6  -5   1  325.97   44.70
  -8   5   0  489.25   51.49
  -8   5   0  550.74   55.19
   8  -5   0  658.13   64.69
   8  -5   0  541.25   75.19
  -7   5   0   77.99   18.60
  -7   5   0   63.49   17.40
   7  -5   0   54.19   23.00
   7  -5   0   59.89   33.50
  -6   5   0  796.82   57.29
  -6   5   0  785.72   59.79
   6  -5   0  675.63   72.29
   6  -5   0  795.32   63.69
  -5   5   0  649.14   53.59
  -5   5   0  737.33   52.19
  -5   5   0  736.93   53.79
   5  -5   0  771.82   55.89
   5  -5   0  689.13   62.39
  -4   5   0  486.85   35.40
  -4   5   0  426.96   42.30
  -4   5   0  462.25   34.20
  -4   5   0  411.96   35.50
   4  -5   0  448.96   36.50
   4  -5   0  449.86   42.70
  -3   5   0 2687.53  173.68
  -3   5   0 2717.83  173.28
  -3   5   0 2629.04  174.18
  -3   5   0 2575.84  177.38
   3  -5   0 2656.93  174.48
   3  -5   0 2707.13  178.48
  -2   5   0  143.19   13.00
  -2   5   0  122.59   12.70
  -2   5   0  112.09   11.50
  -2   5   0  112.89   20.00
  -2   5   0  130.29   15.00
  -2   5   0  127.59   10.30
   2  -5   0  113.79   19.00
   2  -5   0  153.08   15.80
   2  -5   0  157.68   28.10
  -1   5   0 2165.08  133.49
  -1   5   0 2051.39  134.79
  -1   5   0 2033.00  132.39
  -1   5   0 1996.70  135.69
  -1   5   0 2039.80  131.49
   1  -5   0 1977.80  135.59
   1  -5   0 2016.50  141.39
   1  -5   0 1998.60  134.79
   0   5   0  416.76   32.50
   0   5   0  363.26   35.60
   0   5   0  414.06   32.90
   0   5   0  388.06   33.50
   0   5   0  400.26   29.40
   0   5   0  418.16   28.10
   0   5   0  399.36   27.90
   0  -5   0  337.37   33.20
   0  -5   0  356.36   39.40
   1   5   0 1461.05   88.09
   1   5   0 1406.66   92.19
   1   5   0 1487.25   90.99
   1   5   0 1287.37   93.69
   1   5   0 1158.38   91.29
   1   5   0 1378.86   90.59
  -1  -5   0 1276.47   94.29
  -1  -5   0 1191.58   92.69
   2   5   0  859.01   54.89
   2   5   0  872.91   58.69
   2   5   0  798.82   59.19
   2   5   0  766.22   55.89
  -2  -5   0  690.13   60.79
  -2  -5   0  769.62   56.79
  -2  -5   0  768.72   60.89
  -2  -5   0  750.02   52.49
   3   5   0  349.17   29.50
   3   5   0  340.17   32.70
   3   5   0  305.47   23.60
   3   5   0  276.77   34.50
  -3  -5   0  300.87   24.00
  -3  -5   0  267.37   30.40
  -3  -5   0  261.47   38.50
  -3  -5   0  370.46   36.30
   4   5   0  950.30   70.89
   4   5   0  880.91   64.19
  -4  -5   0  761.12   57.59
  -4  -5   0  808.42   67.59
   5   5   0   58.79   22.40
   5   5   0   59.99   17.90
   5   5   0   33.50   23.00
  -5  -5   0   34.80   17.40
  -5  -5   0   29.60   10.70
   6   5   0  496.25   51.19
   6   5   0  557.34   60.69
   6   5   0  530.35   62.49
  -6  -5   0  458.85   53.29
  -8   5   1  120.29   26.20
  -8   5   1  130.69   29.00
   8  -5  -1  105.39   33.00
   8  -5  -1  152.58   47.20
  -7   5   1  349.17   36.20
  -7   5   1  362.96   37.10
   7  -5  -1  355.66   45.30
   7  -5  -1  400.86   60.49
  -6   5   1  144.19   20.20
  -6   5   1  140.39   21.90
   6  -5  -1  172.88   30.60
   6  -5  -1  134.69   33.90
  -5   5   1 1063.19   81.39
  -5   5   1  998.50   86.99
  -5   5   1 1220.78   81.39
  -5   5   1 1229.28   80.09
   5  -5  -1 1202.18   88.79
   5  -5  -1 1103.19   78.69
   5  -5  -1 1243.08   84.19
  -4   5   1   -6.40    4.50
  -4   5   1   -2.90    5.60
  -4   5   1  -11.60   13.30
  -4   5   1    8.10    8.30
   4  -5  -1   12.90   14.80
   4  -5  -1   15.00    8.40
   4  -5  -1    1.10    6.30
  -3   5   1 2505.65  172.48
  -3   5   1 2636.64  168.38
  -3   5   1 2484.05  169.88
  -3   5   1 2663.93  168.48
   3  -5  -1 2514.05  170.18
   3  -5  -1 2660.23  173.28
   3  -5  -1 2617.34  168.08
  -2   5   1 1260.97   81.89
  -2   5   1 1251.57   82.39
  -2   5   1 1252.67   79.89
  -2   5   1 1201.58   80.09
  -2   5   1 1164.98   86.19
  -2   5   1 1247.18   84.79
   2  -5  -1 1241.18   86.49
   2  -5  -1 1288.77   82.29
   2  -5  -1 1222.78   84.59
  -1   5   1  872.01   60.29
  -1   5   1  870.81   59.99
  -1   5   1  972.50   65.09
  -1   5   1  908.71   63.99
   1  -5  -1  887.01   63.89
   1  -5  -1  884.81   68.89
   1  -5  -1  888.31   62.39
   0   5   1 1607.04  103.39
   0   5   1 1592.34   99.09
   0   5   1 1638.44   99.99
   0   5   1 1522.65  101.39
   0   5   1 1477.55  104.49
   0  -5  -1 1432.96  102.69
   0  -5  -1 1554.44  104.99
   0  -5  -1 1311.97  105.89
   1   5   1  203.68   20.40
   1   5   1  178.48   14.90
   1   5   1  211.28   17.30
   1   5   1  213.58   20.00
   1   5   1  181.48   25.20
   1   5   1  161.48   20.50
  -1  -5  -1  190.88   22.60
  -1  -5  -1  201.88   24.50
  -1  -5  -1  198.48   16.10
   2   5   1 1702.23  123.99
   2   5   1 1672.93  119.19
   2   5   1 1919.21  121.19
   2   5   1 1760.72  115.79
   2   5   1 2019.90  117.99
   2   5   1 1690.53  113.09
  -2  -5  -1 1535.05  121.59
  -2  -5  -1 1842.42  122.29
  -2  -5  -1 1688.93  114.89
   3   5   1   15.10   11.30
   3   5   1   14.80   11.20
  -3  -5  -1    7.40   13.40
  -3  -5  -1   43.10   19.10
  -3  -5  -1    8.40    7.70
   4   5   1  621.24   50.19
   4   5   1  643.44   53.79
  -4  -5  -1  475.15   57.09
  -4  -5  -1  580.64   50.29
  -4  -5  -1  473.95   40.70
   5   5   1  178.58   32.90
   5   5   1  142.89   31.90
  -5  -5  -1  142.69   29.30
  -5  -5  -1  123.79   37.10
   6   5   1  263.27   47.40
   6   5   1  367.16   55.69
   6   5   1  311.47   42.50
  -6  -5  -1  246.98   41.10
  -8   5   2   26.30   20.80
  -8   5   2   -5.60   18.50
   8  -5  -2   25.80   42.20
   8  -5  -2  -12.90   27.20
  -7   5   2  531.95   49.50
  -7   5   2  600.94   50.39
   7  -5  -2  599.54   67.79
   7  -5  -2  619.44   58.89
  -6   5   2  121.59   19.40
  -6   5   2  119.79   22.20
   6  -5  -2  112.59   28.80
   6  -5  -2  126.09   24.70
  -5   5   2  839.62   74.59
  -5   5   2 1047.30   68.29
  -5   5   2  876.71   70.29
  -5   5   2 1020.40   68.89
   5  -5  -2 1000.00   72.29
   5  -5  -2  942.41   75.09
   5  -5  -2  937.31   66.89
  -4   5   2  449.95   39.90
  -4   5   2  552.84   38.60
  -4   5   2  477.15   45.40
  -4   5   2  505.45   38.50
   4  -5  -2  529.15   41.90
   4  -5  -2  544.85   45.30
   4  -5  -2  492.55   37.40
  -3   5   2  501.65   33.70
  -3   5   2  434.36   36.50
  -3   5   2  393.66   38.70
  -3   5   2  476.25   34.40
   3  -5  -2  484.35   39.70
   3  -5  -2  459.25   37.00
   3  -5  -2  446.66   33.50
  -2   5   2 2444.76  160.68
  -2   5   2 2587.44  162.08
  -2   5   2 2312.67  159.78
  -2   5   2 2615.34  166.48
  -2   5   2 2537.55  165.08
   2  -5  -2 2542.95  166.28
   2  -5  -2 2386.36  164.78
   2  -5  -2 2447.06  160.98
   2  -5  -2 2542.45  161.68
  -1   5   2  143.99   20.80
  -1   5   2  166.08   20.10
  -1   5   2  150.38   13.80
  -1   5   2  144.79   13.20
  -1   5   2  143.09   14.00
   1  -5  -2  139.49   25.10
   1  -5  -2  132.89   13.10
   1  -5  -2  117.69   16.40
   1  -5  -2  146.49   20.10
   0   5   2 2230.68  148.09
   0   5   2 2251.47  150.88
   0   5   2 2152.48  152.08
   0   5   2 2199.38  146.09
   0   5   2 2279.37  147.59
   0  -5  -2 2504.35  153.98
   0  -5  -2 2226.68  149.99
   1   5   2  413.66   39.10
   1   5   2  455.95   32.70
   1   5   2  465.25   33.90
   1   5   2  430.26   34.90
   1   5   2  362.86   32.80
  -1  -5  -2  395.46   37.20
  -1  -5  -2  448.26   37.30
  -1  -5  -2  421.86   30.80
   2   5   2  688.43   61.59
   2   5   2  846.72   54.39
   2   5   2  660.83   53.79
   2   5   2  761.82   56.49
  -2  -5  -2  664.93   58.19
  -2  -5  -2  796.92   57.59
  -2  -5  -2  678.93   50.49
   3   5   2  751.72   58.59
   3   5   2  746.83   55.09
  -3  -5  -2  695.93   61.99
  -3  -5  -2  603.34   49.20
  -3  -5  -2  715.33   57.39
   4   5   2  224.88   35.70
   4   5   2  271.47   35.00
  -4  -5  -2  131.69   29.20
  -4  -5  -2  164.48   24.00
  -4  -5  -2  235.18   30.30
   5   5   2  341.77   59.29
   5   5   2  446.46   52.89
  -5  -5  -2  379.96   59.69
  -5  -5  -2  373.96   41.90
   6   5   2  -28.40   31.00
  -6  -5  -2   12.50   21.30
  -6  -5  -2   20.70   41.10
  -8   5   3  192.28   30.90
  -8   5   3  204.48   35.70
   8  -5  -3  198.58   38.90
   8  -5  -3  158.68   45.50
  -7   5   3  238.38   33.40
  -7   5   3  269.57   31.50
   7  -5  -3  306.07   46.10
   7  -5  -3  255.47   37.80
  -6   5   3  701.73   55.39
  -6   5   3  672.93   55.79
   6  -5  -3  812.02   63.79
   6  -5  -3  698.73   64.79
  -5   5   3   57.69   21.90
  -5   5   3   23.60   13.50
  -5   5   3   50.19   10.80
  -5   5   3   47.10   12.10
   5  -5  -3   37.70   14.00
   5  -5  -3   90.39   21.90
  -4   5   3 1792.82  123.79
  -4   5   3 2030.50  123.89
  -4   5   3 1721.33  128.09
  -4   5   3 1803.62  126.29
   4  -5  -3 1873.51  123.09
   4  -5  -3 1930.81  128.89
   4  -5  -3 1846.92  127.29
  -3   5   3  339.87   35.70
  -3   5   3  356.46   32.10
  -3   5   3  343.27   25.20
  -3   5   3  403.36   27.80
  -3   5   3  386.96   29.10
   3  -5  -3  378.36   32.80
   3  -5  -3  371.26   34.70
   3  -5  -3  376.86   28.40
  -2   5   3 1284.37   82.49
  -2   5   3 1219.18   86.09
  -2   5   3 1242.08   80.59
  -2   5   3 1261.87   81.89
  -2   5   3 1160.08   80.39
  -2   5   3 1243.48   87.19
   2  -5  -3 1184.78   86.19
   2  -5  -3 1238.98   81.89
   2  -5  -3 1236.58   81.49
  -1   5   3  141.19   13.50
  -1   5   3  110.59   19.00
  -1   5   3  126.79   12.10
  -1   5   3  114.89   19.80
  -1   5   3  110.79   12.70
   1  -5  -3  114.59   19.70
   1  -5  -3  115.59   14.40
   1  -5  -3  126.39   12.10
   1  -5  -3   89.59   19.10
   0   5   3 1202.78   80.59
   0   5   3 1287.27   78.89
   0   5   3 1262.87   80.89
   0   5   3 1212.68   85.89
   0  -5  -3 1154.38   79.39
   0  -5  -3 1177.18   86.79
   0  -5  -3 1083.49   78.19
   0  -5  -3 1162.58   82.29
   1   5   3 2466.75  150.88
   1   5   3 2100.99  153.18
   1   5   3 2328.57  148.19
   1   5   3 2185.48  147.99
  -1  -5  -3 2400.06  151.48
  -1  -5  -3 2049.79  145.79
  -1  -5  -3 2137.89  149.19
   2   5   3    9.10   10.90
   2   5   3   12.60   17.70
   2   5   3   13.20   11.80
   2   5   3   12.90    9.90
  -2  -5  -3   14.70   14.30
  -2  -5  -3   11.80   12.70
  -2  -5  -3    8.00    8.30
   3   5   3  869.71   61.49
   3   5   3  709.73   62.69
  -3  -5  -3  842.62   61.49
  -3  -5  -3  677.83   54.69
  -3  -5  -3  677.43   67.09
   4   5   3   39.70   23.70
   4   5   3   25.70   18.30
  -4  -5  -3   43.00   26.50
  -4  -5  -3   43.40   17.30
   5   5   3  400.76   50.89
   5   5   3  370.16   61.99
  -5  -5  -3  337.97   59.09
  -5  -5  -3  291.57   39.80
  -8   5   4  395.16   50.19
  -8   5   4  446.96   49.20
   8  -5  -4  539.85   73.49
   8  -5  -4  486.75   61.59
  -7   5   4    7.00   11.60
  -7   5   4   14.00   18.10
   7  -5  -4   26.60   21.90
   7  -5  -4   19.60   29.50
  -6   5   4 1125.99   80.29
  -6   5   4 1070.79   79.39
   6  -5  -4 1101.89   87.29
   6  -5  -4 1088.99   85.89
  -5   5   4  354.16   29.10
  -5   5   4  302.07   42.20
  -5   5   4  315.97   30.60
   5  -5  -4  278.07   37.50
   5  -5  -4  342.27   35.90
  -4   5   4  826.62   57.99
  -4   5   4  856.51   56.59
  -4   5   4  735.43   60.69
  -4   5   4  817.72   52.39
  -4   5   4  768.42   63.19
   4  -5  -4  856.21   62.49
   4  -5  -4  724.23   56.09
  -3   5   4 1179.48   77.49
  -3   5   4 1118.39   75.69
  -3   5   4 1204.38   75.19
  -3   5   4 1068.49   73.89
  -3   5   4 1097.59   80.29
  -3   5   4 1158.68   82.59
   3  -5  -4 1107.79   81.09
   3  -5  -4 1092.79   76.09
   3  -5  -4 1112.09   74.39
  -2   5   4  327.27   25.70
  -2   5   4  340.37   32.00
  -2   5   4  347.57   24.40
  -2   5   4  355.66   27.30
  -2   5   4  368.66   34.30
  -2   5   4  340.27   26.80
   2  -5  -4  343.87   26.30
   2  -5  -4  326.27   32.20
   2  -5  -4  357.06   26.50
  -1   5   4 1540.45   99.99
  -1   5   4 1553.94  104.89
  -1   5   4 1392.16  103.59
  -1   5   4 1475.45   99.19
  -1   5   4 1557.64   99.19
   1  -5  -4 1493.65  105.69
   1  -5  -4 1475.35  100.09
   1  -5  -4 1473.85   98.39
   0   5   4   13.40    8.00
   0   5   4   30.60    6.90
   0   5   4   19.50    8.40
   0   5   4   18.80   11.90
   0  -5  -4   22.00    5.90
   0  -5  -4   13.70   13.60
   0  -5  -4   12.80    9.00
   0  -5  -4   11.00    6.60
   1   5   4 2173.98  150.98
   1   5   4 2116.59  154.58
   1   5   4 2139.59  148.39
   1   5   4 2496.85  145.69
   1   5   4 2271.97  149.39
  -1  -5  -4 2255.77  146.99
  -1  -5  -4 2284.17  151.58
  -1  -5  -4 2138.69  148.89
   2   5   4  320.77   31.00
   2   5   4  295.87   32.20
  -2  -5  -4  283.97   32.00
  -2  -5  -4  285.37   35.60
  -2  -5  -4  245.88   26.20
   3   5   4  501.25   47.90
   3   5   4  522.45   48.90
  -3  -5  -4  491.75   44.90
  -3  -5  -4  423.96   51.19
   4   5   4  459.85   54.19
   4   5   4  432.86   49.50
  -4  -5  -4  450.45   44.10
  -4  -5  -4  370.56   56.29
   5   5   4  110.89   31.30
   5   5   4  133.89   42.80
  -5  -5  -4  118.89   26.30
  -5  -5  -4   98.79   36.30
  -8   5   5  275.77   41.80
  -8   5   5  347.47   42.90
   8  -5  -5  386.96   65.89
   8  -5  -5  369.36   57.39
  -7   5   5  179.38   26.70
  -7   5   5  174.08   28.90
   7  -5  -5  145.59   30.70
   7  -5  -5  203.78   39.40
  -6   5   5  175.08   27.30
  -6   5   5  159.88   22.00
   6  -5  -5  162.98   31.60
   6  -5  -5  194.08   31.20
  -5   5   5 1001.80   73.89
  -5   5   5  931.41   81.19
  -5   5   5  963.60   66.69
  -5   5   5 1124.19   72.79
   5  -5  -5 1088.89   79.99
   5  -5  -5 1118.39   80.19
   5  -5  -5  940.41   67.39
  -4   5   5    5.00    6.50
  -4   5   5   13.70   10.50
  -4   5   5    8.70   18.80
  -4   5   5   12.40    6.90
  -4   5   5    1.70   12.50
  -4   5   5   16.30    5.90
   4  -5  -5    3.60    8.60
   4  -5  -5   22.60   13.40
   4  -5  -5   12.20    6.90
  -3   5   5 1832.42  117.59
  -3   5   5 1670.13  114.29
  -3   5   5 1643.94  121.59
  -3   5   5 1873.71  114.49
  -3   5   5 1786.22  115.79
   3  -5  -5 1753.02  116.19
   3  -5  -5 1740.13  121.59
   3  -5  -5 1680.93  114.49
  -2   5   5   91.89   14.50
  -2   5   5  128.19   21.70
  -2   5   5  117.59   15.00
  -2   5   5  115.49   19.40
  -2   5   5  130.19   15.40
   2  -5  -5  120.29   13.70
   2  -5  -5  106.49   14.80
   2  -5  -5  149.59   23.50
  -1   5   5  936.51   72.99
  -1   5   5  952.20   67.99
  -1   5   5 1078.49   67.49
  -1   5   5  930.91   67.09
   1  -5  -5  998.90   65.99
   1  -5  -5  921.11   74.59
   1  -5  -5  987.60   68.29
   0   5   5  683.23   46.70
   0   5   5  630.44   54.99
   0   5   5  624.94   48.90
   0   5   5  649.34   48.30
   0  -5  -5  647.54   56.79
   0  -5  -5  658.53   45.00
   0  -5  -5  638.64   47.10
   0  -5  -5  678.63   50.59
   1   5   5  485.95   36.40
   1   5   5  521.75   41.90
   1   5   5  508.65   43.10
  -1  -5  -5  530.75   44.70
  -1  -5  -5  498.25   41.10
  -1  -5  -5  451.15   38.10
  -1  -5  -5  464.45   33.60
   2   5   5 1065.19   79.29
   2   5   5 1114.09   81.29
  -2  -5  -5 1055.79   77.39
  -2  -5  -5  988.40   82.19
   3   5   5   22.50   18.40
   3   5   5  -28.80   18.50
  -3  -5  -5   34.30   19.60
  -3  -5  -5   -3.60   15.40
   4   5   5  571.24   63.69
   4   5   5  614.44   60.89
  -4  -5  -5  573.74   65.09
  -4  -5  -5  573.24   53.79
   5   5   5   47.30   42.10
   5   5   5   88.49   32.00
  -5  -5  -5  -17.60   33.50
  -5  -5  -5   33.70   22.50
  -8   5   6   23.60   26.80
  -8   5   6   69.19   22.50
   8  -5  -6   92.09   41.30
   8  -5  -6   80.59   35.00
  -7   5   6  459.85   48.40
  -7   5   6  486.85   44.00
   7  -5  -6  475.95   56.79
   7  -5  -6  418.16   60.79
  -6   5   6   24.30   15.90
  -6   5   6   33.40   11.90
   6  -5  -6   44.80   21.90
   6  -5  -6   27.50   26.70
   6  -5  -6   28.70    9.30
   6  -5  -6   -3.90   16.60
  -5   5   6 1447.26   97.09
  -5   5   6 1382.86   98.89
  -5   5   6 1482.15  103.89
  -5   5   6 1585.84  101.79
   5  -5  -6 1430.26   97.29
   5  -5  -6 1563.34  110.19
  -4   5   6  230.38   21.20
  -4   5   6  187.18   31.30
  -4   5   6  208.78   19.90
  -4   5   6  198.78   25.00
  -4   5   6  252.67   21.20
   4  -5  -6  209.38   19.80
   4  -5  -6  242.08   31.80
  -3   5   6  217.58   21.40
  -3   5   6  249.38   20.20
  -3   5   6  210.18   29.80
  -3   5   6  300.37   35.30
  -3   5   6  248.18   24.50
  -3   5   6  233.98   22.50
   3  -5  -6  244.08   22.30
   3  -5  -6  241.78   31.40
   3  -5  -6  254.57   22.80
  -2   5   6  831.82   61.79
  -2   5   6  888.81   68.59
  -2   5   6  830.22   68.39
  -2   5   6  924.31   62.89
  -2   5   6  920.01   63.59
   2  -5  -6  902.51   61.79
   2  -5  -6  920.51   70.09
   2  -5  -6  896.61   62.69
  -1   5   6  128.19   16.70
  -1   5   6  116.49   16.80
  -1   5   6  123.59   21.50
  -1   5   6  128.59   16.80
   1  -5  -6  104.49   18.40
   1  -5  -6   97.99   16.20
   1  -5  -6  104.39   14.00
   1  -5  -6  156.48   26.90
   0   5   6  999.80   77.89
   0   5   6 1135.89   79.69
   0   5   6 1221.68   77.29
   0  -5  -6 1110.99   79.99
   0  -5  -6 1119.89   74.49
   0  -5  -6 1077.79   87.59
   1   5   6    6.60   12.00
   1   5   6    2.20    8.60
   1   5   6    6.50   13.90
  -1  -5  -6   12.10    6.40
  -1  -5  -6   -7.00   12.50
   2   5   6 1042.50   81.69
   2   5   6 1117.89   82.99
  -2  -5  -6 1082.29   83.29
  -2  -5  -6 1019.10   77.39
   3   5   6  261.17   41.90
   3   5   6  230.88   38.80
  -3  -5  -6  220.58   35.20
  -3  -5  -6  167.18   32.60
   4   5   6  180.98   40.60
   4   5   6  153.68   32.00
  -4  -5  -6  163.48   35.00
  -4  -5  -6  154.48   31.80
  -8   5   7   -1.80   27.40
  -8   5   7   46.40   21.20
  -8   5   7   49.30   17.40
   8  -5  -7   30.40   33.80
  -7   5   7  177.68   32.30
  -7   5   7  180.28   24.50
  -7   5   7  252.57   31.20
   7  -5  -7  293.17   48.00
  -6   5   7  275.87   29.70
  -6   5   7  234.68   34.20
  -6   5   7  274.47   27.00
   6  -5  -7  273.87   25.50
   6  -5  -7  320.87   42.10
  -5   5   7  427.86   42.10
  -5   5   7  493.05   38.90
  -5   5   7  446.46   34.80
  -5   5   7  481.85   36.80
   5  -5  -7  425.56   49.00
   5  -5  -7  464.65   35.70
  -4   5   7 2208.08  147.59
  -4   5   7 2195.58  151.18
  -4   5   7 2328.87  147.49
  -4   5   7 2157.58  146.49
   4  -5  -7 2310.17  156.98
   4  -5  -7 2210.98  146.59
  -3   5   7   24.70   10.30
  -3   5   7   31.80   19.20
  -3   5   7   10.60   11.10
  -3   5   7   15.70    8.70
   3  -5  -7   25.60   16.50
   3  -5  -7    3.50   11.10
   3  -5  -7   41.00   10.00
  -2   5   7 1232.08   86.59
  -2   5   7 1127.39   84.39
  -2   5   7 1323.57   86.19
   2  -5  -7 1265.57   94.09
   2  -5  -7 1257.37   85.79
   2  -5  -7 1227.18   84.29
  -1   5   7  114.99   18.20
  -1   5   7  145.09   19.70
  -1   5   7  137.59   21.60
   1  -5  -7  129.49   21.20
   1  -5  -7  151.58   16.60
   1  -5  -7  175.98   29.40
   0   5   7  743.83   57.89
   0   5   7  804.12   61.69
   0  -5  -7  778.92   54.79
   0  -5  -7  774.62   72.09
   0  -5  -7  853.91   62.39
   1   5   7  623.94   50.09
   1   5   7  735.33   58.59
   1   5   7  638.24   56.49
  -1  -5  -7  698.63   46.90
  -1  -5  -7  698.93   57.49
   2   5   7   94.49   24.20
   2   5   7  108.69   25.20
  -2  -5  -7  125.99   25.50
   3   5   7  643.74   68.09
   3   5   7  697.63   65.69
  -3  -5  -7  650.33   67.29
   4   5   7   64.39   35.90
   4   5   7    0.10   27.00
  -4  -5  -7   50.59   33.50
  -7   5   8   14.50   16.00
  -7   5   8  -29.30   21.10
  -7   5   8    2.30   13.10
   7  -5  -8   17.90   27.00
  -6   5   8  387.16   37.90
  -6   5   8  393.56   34.60
  -6   5   8  365.86   42.60
   6  -5  -8  398.46   34.60
   6  -5  -8  398.46   51.09
  -5   5   8   40.00   14.00
  -5   5   8   23.20   16.10
  -5   5   8   20.60   10.10
  -5   5   8   30.50   12.60
   5  -5  -8   20.70   21.30
   5  -5  -8   58.29   13.00
  -4   5   8  689.43   49.70
  -4   5   8  650.63   54.89
  -4   5   8  653.53   48.90
  -4   5   8  605.34   49.70
   4  -5  -8  746.93   62.89
   4  -5  -8  660.33   49.60
  -3   5   8  206.98   25.50
  -3   5   8  264.77   30.70
  -3   5   8  288.97   28.00
   3  -5  -8  297.47   41.90
   3  -5  -8  307.97   27.70
  -2   5   8  336.97   36.30
  -2   5   8  445.96   37.80
  -2   5   8  444.26   38.40
   2  -5  -8  451.85   37.80
   2  -5  -8  477.75   50.39
   2  -5  -8  436.56   35.90
  -1   5   8  878.01   68.29
  -1   5   8  920.91   67.29
   1  -5  -8  909.71   67.79
   1  -5  -8  902.91   79.19
   1  -5  -8  902.21   63.59
   0   5   8   85.89   18.30
   0   5   8   72.19   20.10
   0  -5  -8   67.19   17.40
   0  -5  -8   71.89   30.30
   0  -5  -8   83.99   15.30
   1   5   8 1285.67   99.09
   1   5   8 1511.65  101.69
   1   5   8 1250.77   93.89
  -1  -5  -8 1361.26   99.29
   2   5   8  120.79   25.00
   2   5   8   74.09   27.10
  -2  -5  -8  115.89   26.00
   3   5   8  347.87   48.50
   3   5   8  290.37   49.40
  -3  -5  -8  342.97   53.29
  -7   5   9   10.30   24.00
  -7   5   9   30.30   15.80
  -7   5   9   24.80   20.70
   7  -5  -9   28.80   31.00
  -6   5   9  258.57   33.50
  -6   5   9  270.27   29.00
  -6   5   9  200.08   38.70
   6  -5  -9  297.17   31.60
   6  -5  -9  319.37   51.29
  -5   5   9  539.85   44.10
  -5   5   9  570.44   47.30
  -5   5   9  469.65   49.50
  -5   5   9  494.75   43.50
   5  -5  -9  594.14   44.90
   5  -5  -9  590.44   59.09
  -4   5   9  201.88   25.60
  -4   5   9  213.18   30.60
  -4   5   9  153.08   25.30
   4  -5  -9  199.18   35.50
   4  -5  -9  186.98   24.70
  -3   5   9  953.40   71.39
  -3   5   9  943.91   74.99
   3  -5  -9  991.50   83.19
   3  -5  -9 1048.60   72.29
  -2   5   9    7.20   14.60
  -2   5   9    6.00   12.90
   2  -5  -9   15.40   14.80
   2  -5  -9   -6.60   21.00
  -1   5   9  494.35   46.90
  -1   5   9  519.25   47.20
   1  -5  -9  527.05   42.40
   1  -5  -9  566.04   62.49
   1  -5  -9  560.24   48.30
   0   5   9  191.18   32.30
   0   5   9  188.78   29.30
   0   5   9  122.39   25.20
   0  -5  -9  229.28   35.30
   0  -5  -9  160.48   20.30
   1   5   9  571.14   57.99
   1   5   9  558.54   56.49
   1   5   9  590.54   51.29
  -1  -5  -9  625.54   56.19
   2   5   9  365.06   54.79
   2   5   9  477.35   53.09
  -2  -5  -9  506.45   54.89
  -7   5  10  312.57   41.50
  -7   5  10  241.98   46.60
  -7   5  10  293.27   35.10
   7  -5 -10  344.87   53.39
  -6   5  10   24.60   15.30
  -6   5  10   -8.60   24.60
  -6   5  10  -31.00   21.00
   6  -5 -10  -24.70   29.50
   6  -5 -10   16.20   18.40
  -5   5  10  502.85   52.49
  -5   5  10  486.85   45.40
   5  -5 -10  630.74   64.99
   5  -5 -10  609.64   48.50
  -4   5  10   84.19   18.30
  -4   5  10   79.69   20.70
   4  -5 -10   70.99   26.60
   4  -5 -10  102.19   20.20
  -3   5  10  783.82   63.39
  -3   5  10  796.92   66.39
   3  -5 -10  889.61   64.99
   3  -5 -10  766.42   75.29
  -2   5  10  369.76   40.50
  -2   5  10  383.76   45.20
   2  -5 -10  481.75   57.89
   2  -5 -10  454.65   43.30
  -1   5  10  229.88   36.60
  -1   5  10  226.18   31.90
   1  -5 -10  238.58   42.20
   1  -5 -10  212.08   34.20
   0   5  10  882.21   70.79
   0   5  10  812.82   69.09
   0   5  10  750.52   66.99
   0  -5 -10  850.41   69.79
   1   5  10  -21.90   20.70
   1   5  10   19.40   26.10
  -1  -5 -10   36.20   19.90
   2   5  10  749.42   68.99
   2   5  10  571.84   70.79
  -2  -5 -10  662.33   72.89
  -6   5  11   80.89   26.70
  -6   5  11   70.19   19.10
   6  -5 -11   97.99   28.50
   6  -5 -11   54.19   34.40
  -5   5  11  318.17   46.20
  -5   5  11  348.47   36.20
   5  -5 -11  401.76   42.00
   5  -5 -11  289.27   46.90
  -4   5  11  516.85   48.70
  -4   5  11  468.35   53.39
   4  -5 -11  620.64   51.09
   4  -5 -11  594.24   66.39
  -3   5  11   38.00   19.20
  -3   5  11   32.70   21.20
   3  -5 -11   23.00   29.40
   3  -5 -11   64.69   19.30
  -2   5  11  415.46   46.50
  -2   5  11  458.95   51.69
   2  -5 -11  388.36   63.09
   2  -5 -11  504.55   48.20
  -1   5  11   13.60   19.50
  -1   5  11    4.60   25.20
   1  -5 -11   62.79   20.50
   1  -5 -11  -17.40   34.10
   0   5  11  624.14   65.09
   0   5  11  674.73   65.49
   0   5  11  699.73   64.59
   0  -5 -11  761.62   65.09
   1   5  11   83.79   31.40
   1   5  11  100.59   27.90
  -5   5  12   24.00   26.20
  -5   5  12   12.60   19.80
   5  -5 -12   29.30   21.40
   5  -5 -12   28.90   35.70
  -4   5  12  518.45   58.89
  -4   5  12  559.24   52.09
   4  -5 -12  538.05   70.99
  -3   5  12   85.69   25.20
  -3   5  12  129.69   32.80
   3  -5 -12  161.68   28.00
   3  -5 -12  153.78   42.50
  -2   5  12  357.96   48.20
  -2   5  12  409.36   55.69
   2  -5 -12  465.55   69.89
   2  -5 -12  564.24   53.79
  -1   5  12  219.58   38.40
  -1   5  12  163.58   31.40
   1  -5 -12  207.38   49.50
   0   6 -13   46.00   28.10
   0  -6  13  102.59   51.09
   0  -6  13  159.88   44.20
   0  -6  13  112.59   60.69
   1   6 -13  247.08   39.20
  -1  -6  13  301.77   61.69
  -1  -6  13  364.86   63.69
  -2  -6  13  -33.40   48.80
  -2  -6  13   91.09   51.29
  -1   6 -12  789.52   63.39
  -1   6 -12  827.12   71.09
   1  -6  12  988.30   83.99
   1  -6  12  616.14   96.79
   0   6 -12   76.69   25.80
   0  -6  12  110.39   34.40
   0  -6  12  113.89   45.90
   0  -6  12   46.00   48.60
   1   6 -12  289.67   46.30
  -1  -6  12  408.36   72.59
  -1  -6  12  239.98   59.29
   2   6 -12  108.09   28.30
  -2  -6  12  127.39   47.70
  -2  -6  12   37.10   42.00
   3   6 -12   64.39   25.80
  -3  -6  12   59.19   42.50
  -3  -6  12   31.60   42.30
   4   6 -12   93.89   29.60
  -4  -6  12  208.48   53.79
  -4  -6  12  101.79   49.30
  -3   6 -11  545.95   57.19
   3  -6  11  432.46   73.19
  -2   6 -11  222.68   39.10
  -2   6 -11  160.78   24.20
   2  -6  11  196.68   41.20
  -1   6 -11  225.58   38.70
   1  -6  11  217.68   55.79
   1  -6  11  262.47   52.49
   1  -6  11  309.77   51.49
   0   6 -11  454.35   47.70
   0  -6  11  316.57   63.69
   0  -6  11  470.15   56.59
   0  -6  11  430.86   64.39
   1   6 -11   75.49   22.80
  -1  -6  11   73.39   41.70
  -1  -6  11  105.59   37.70
  -1  -6  11  147.29   29.40
   2   6 -11  652.93   58.99
  -2  -6  11  579.44   78.99
   3   6 -11    7.80   17.70
   3   6 -11  -19.00   20.20
  -3  -6  11   -9.80   32.30
  -3  -6  11   27.30   35.10
   4   6 -11  270.37   45.70
   4   6 -11  288.97   42.90
  -4  -6  11  253.87   52.89
   5   6 -11   83.09   28.70
   5   6 -11  104.99   31.20
  -5  -6  11  100.59   48.60
  -5  -6  11   68.09   48.50
  -3   6 -10  209.38   27.40
  -3   6 -10  302.17   40.90
   3  -6  10  244.98   44.90
  -2   6 -10  453.35   40.50
  -2   6 -10  436.76   46.70
   2  -6  10  505.95   60.79
  -1   6 -10    9.10   17.90
   1  -6  10   22.50   40.10
   1  -6  10   65.89   27.70
   1  -6  10   31.90   34.00
   0   6 -10  776.22   61.59
   0  -6  10  663.33   77.59
   0  -6  10  858.61   66.09
   0  -6  10  562.24   80.79
   1   6 -10  150.38   21.60
   1   6 -10  103.09   23.60
  -1  -6  10  161.88   39.80
  -1  -6  10  160.28   26.00
   2   6 -10  378.96   43.40
   2   6 -10  469.65   38.00
  -2  -6  10  477.85   43.50
  -2  -6  10  444.56   62.29
   3   6 -10  112.59   22.90
  -3  -6  10   91.19   35.30
  -3  -6  10  150.18   40.30
   4   6 -10   75.29   24.10
   4   6 -10   83.79   22.40
  -4  -6  10   81.29   32.80
  -4  -6  10   34.30   37.80
   5   6 -10  413.46   50.69
   5   6 -10  503.45   58.09
  -5  -6  10  475.15   77.79
  -5  -6  10  368.46   66.89
  -4   6  -9  881.81   70.99
  -4   6  -9  796.42   66.49
   4  -6   9  938.31   86.69
  -3   6  -9   44.10   20.20
  -3   6  -9   22.70   11.90
   3  -6   9   78.29   31.00
  -2   6  -9  633.34   55.09
  -2   6  -9  658.43   52.29
   2  -6   9  660.43   65.99
  -1   6  -9  364.46   39.10
   1  -6   9  366.16   57.59
   1  -6   9  413.96   48.60
   1  -6   9  241.38   53.79
   0   6  -9  538.35   46.50
   0   6  -9  559.74   47.60
   0  -6   9  449.36   62.89
   0  -6   9  550.94   50.09
   0  -6   9  385.46   67.09
   1   6  -9  606.44   48.50
   1   6  -9  590.94   44.20
  -1  -6   9  419.26   62.39
  -1  -6   9  505.85   47.90
   2   6  -9   51.99   11.70
   2   6  -9   28.00   11.80
   2   6  -9   27.30   15.10
  -2  -6   9   26.10   28.30
  -2  -6   9   26.10   26.60
  -2  -6   9   40.40   15.50
  -2  -6   9   46.40   11.60
   3   6  -9  516.35   40.70
   3   6  -9  454.95   43.20
  -3  -6   9  437.06   38.50
  -3  -6   9  358.06   55.29
  -3  -6   9  319.27   59.89
   4   6  -9    8.80   17.70
   4   6  -9    8.50   19.00
  -4  -6   9   20.80   33.20
  -4  -6   9   -1.30   25.70
   5   6  -9  402.76   50.09
   5   6  -9  443.86   54.89
  -5  -6   9  523.25   75.59
  -5   6  -8  167.38   29.70
  -5   6  -8  192.78   31.00
   5  -6   8  174.68   45.50
  -4   6  -8  578.14   49.70
  -4   6  -8  466.85   44.00
   4  -6   8  531.95   64.29
  -3   6  -8  286.27   29.50
  -3   6  -8  295.17   35.80
   3  -6   8  292.37   48.30
  -2   6  -8  119.79   21.50
  -2   6  -8  102.99   18.90
   2  -6   8  102.79   39.00
   2  -6   8  133.99   31.80
  -1   6  -8 1216.68   81.29
   1  -6   8 1349.47   87.59
   1  -6   8  905.61   95.19
   1  -6   8  908.11   99.29
   0   6  -8    2.10   13.60
   0   6  -8    6.90   13.30
   0  -6   8   16.40   16.20
   0  -6   8    5.30   26.80
   0  -6   8   11.40   34.00
   1   6  -8  816.52   62.69
   1   6  -8  805.82   56.79
   1   6  -8  830.82   59.29
  -1  -6   8  832.02   61.59
  -1  -6   8  804.52   54.59
   2   6  -8   86.39   14.70
   2   6  -8  111.69   19.60
   2   6  -8  121.59   17.60
  -2  -6   8   99.89   17.70
  -2  -6   8  116.99   34.60
  -2  -6   8  126.79   18.40
  -2  -6   8   78.09   29.70
   3   6  -8  458.75   41.50
   3   6  -8  439.46   37.40
  -3  -6   8  389.46   36.20
  -3  -6   8  347.27   53.59
  -3  -6   8  326.07   51.09
   4   6  -8  242.78   33.10
   4   6  -8  233.18   34.80
  -4  -6   8  190.88   41.50
  -4  -6   8  137.69   33.00
   5   6  -8   66.99   27.10
   5   6  -8  131.19   25.30
  -5  -6   8   85.59   33.20
  -5  -6   8   55.49   37.10
   6   6  -8  360.96   60.29
   6   6  -8  438.96   49.40
  -6  -6   8  302.87   57.59
  -5   6  -7  666.13   60.49
  -5   6  -7  607.04   54.29
  -5   6  -7  689.33   53.29
   5  -6   7  713.83   75.99
  -4   6  -7   63.79   15.70
  -4   6  -7   37.70   12.70
   4  -6   7   26.00   25.80
  -3   6  -7 1388.06   94.59
  -3   6  -7 1296.37   95.09
   3  -6   7 1385.96  105.29
  -2   6  -7  100.59   17.80
  -2   6  -7  100.39   17.40
   2  -6   7  123.79   27.90
   2  -6   7   82.89   36.30
   2  -6   7   99.89   16.30
  -1   6  -7  685.13   53.69
  -1   6  -7  665.13   50.19
   1  -6   7  580.04   70.99
   1  -6   7  486.25   63.19
   1  -6   7  652.73   48.70
   1  -6   7  725.73   55.49
   0   6  -7  758.92   52.49
   0   6  -7  720.33   51.69
   0  -6   7  625.64   53.29
   0  -6   7  560.74   63.59
   0  -6   7  639.14   49.99
   1   6  -7  379.26   32.70
   1   6  -7  332.27   29.80
   1   6  -7  348.57   26.80
  -1  -6   7  237.18   46.40
  -1  -6   7  304.47   31.30
  -1  -6   7  249.97   45.50
  -1  -6   7  368.16   25.20
   2   6  -7  703.53   52.99
   2   6  -7  826.72   57.69
   2   6  -7  766.62   49.80
  -2  -6   7  575.04   65.89
  -2  -6   7  744.33   52.59
   3   6  -7   48.50   15.50
   3   6  -7   34.80   12.50
  -3  -6   7   27.30   12.00
  -3  -6   7   16.60   20.40
  -3  -6   7    9.50   27.90
   4   6  -7  707.13   54.29
   4   6  -7  590.94   50.69
  -4  -6   7  508.85   60.19
  -4  -6   7  449.76   68.89
   5   6  -7   39.40   18.90
   5   6  -7   70.69   26.10
  -5  -6   7   72.79   36.90
  -5  -6   7   36.60   24.80
  -6  -6   7  211.38   49.60
  -6  -6   7  201.78   47.00
  -6   6  -6    3.30   15.10
  -6   6  -6   -3.30   15.70
   6  -6   6   50.09   39.80
  -5   6  -6  676.53   55.39
  -5   6  -6  716.43   55.79
  -5   6  -6  733.63   53.89
   5  -6   6  599.64   56.19
   5  -6   6  720.53   75.59
  -4   6  -6  318.27   30.90
  -4   6  -6  367.26   32.00
  -4   6  -6  348.17   31.20
   4  -6   6  269.87   30.50
   4  -6   6  349.87   48.70
   4  -6   6  319.17   28.10
   4  -6   6  312.07   35.70
  -3   6  -6  685.63   50.29
  -3   6  -6  704.33   51.59
   3  -6   6  601.74   49.10
   3  -6   6  662.53   63.29
  -2   6  -6  477.75   48.50
  -2   6  -6  501.75   39.50
   2  -6   6  430.86   60.89
   2  -6   6  469.95   37.90
   2  -6   6  537.95   48.10
  -1   6  -6  287.77   32.30
  -1   6  -6  328.07   28.30
   1  -6   6  259.47   47.70
   1  -6   6  230.58   42.90
   1  -6   6  309.87   34.20
   1  -6   6  277.47   26.10
   0   6  -6 1257.07  101.19
   0   6  -6 1447.16   91.79
   0   6  -6 1487.25   92.89
   0  -6   6 1116.49  105.99
   0  -6   6 1319.27   90.39
   0  -6   6 1191.78  101.39
   0  -6   6 1432.76   93.59
   1   6  -6  129.69   19.60
   1   6  -6  137.89   18.60
   1   6  -6  125.49   14.50
   1   6  -6  174.98   33.00
  -1  -6   6  125.29   30.70
  -1  -6   6  124.69   18.10
  -1  -6   6  125.89   17.20
  -1  -6   6  124.19   13.80
  -1  -6   6  107.79   28.50
   2   6  -6  772.52   67.29
   2   6  -6  859.41   54.69
   2   6  -6  757.02   56.49
  -2  -6   6  754.72   53.39
  -2  -6   6  654.93   65.29
  -2  -6   6  617.34   66.79
   3   6  -6   84.89   16.30
   3   6  -6   43.10   24.80
   3   6  -6   97.99   18.50
  -3  -6   6   58.69   23.60
  -3  -6   6   85.89   15.90
  -3  -6   6  129.39   28.40
   4   6  -6  222.28   29.20
   4   6  -6  239.68   33.10
  -4  -6   6  176.18   36.60
  -4  -6   6  190.08   37.50
   5   6  -6  454.65   49.10
   5   6  -6  357.96   39.40
  -5  -6   6  272.97   47.60
  -5  -6   6  319.87   48.80
   6   6  -6  103.19   25.00
   6   6  -6   96.39   32.00
  -6  -6   6   53.49   30.50
  -6  -6   6   99.69   44.70
  -6   6  -5  401.16   41.70
  -6   6  -5  455.95   39.10
   6  -6   5  471.35   67.79
   6  -6   5  335.57   55.79
  -5   6  -5   92.69   17.90
  -5   6  -5   81.29   16.80
   5  -6   5  124.69   31.20
   5  -6   5   98.59   17.70
  -4   6  -5 1195.18   83.89
  -4   6  -5 1239.58   80.89
  -4   6  -5 1257.77   82.39
  -4   6  -5 1079.59   77.99
   4  -6   5 1165.98   80.59
   4  -6   5 1209.08   94.69
   4  -6   5 1100.79   79.49
  -3   6  -5   31.70    9.40
  -3   6  -5   18.30   26.50
  -3   6  -5   26.30    9.70
   3  -6   5   39.60   19.80
   3  -6   5   36.30   10.70
  -2   6  -5 1010.40   66.29
  -2   6  -5  921.11   71.99
   2  -6   5  952.70   73.09
   2  -6   5  806.22   84.69
   2  -6   5  963.80   64.99
  -1   6  -5  168.78   25.40
  -1   6  -5  193.38   19.50
  -1   6  -5  131.29   26.60
   1  -6   5  186.08   18.30
   1  -6   5  167.58   25.80
   1  -6   5  172.08   40.90
   1  -6   5  200.28   34.30
   0   6  -5 1828.02  119.19
   0   6  -5 1754.62  131.59
   0   6  -5 1910.21  123.39
   0   6  -5 1943.21  124.89
   0  -6   5 1923.71  122.89
   0  -6   5 1624.04  137.89
   0  -6   5 1927.41  125.19
   1   6  -5 1093.89   71.19
   1   6  -5 1043.10   68.49
   1   6  -5 1073.29   69.79
   1   6  -5  984.70   79.09
  -1  -6   5  822.82   77.89
  -1  -6   5 1030.50   70.39
  -1  -6   5 1054.29   68.09
  -1  -6   5 1014.40   70.19
  -1  -6   5  895.01   83.49
   2   6  -5  334.77   26.70
   2   6  -5  296.97   28.00
   2   6  -5  304.47   40.10
  -2  -6   5  264.97   28.10
  -2  -6   5  216.38   37.30
  -2  -6   5  285.87   40.10
  -2  -6   5  304.07   26.00
   3   6  -5  458.55   46.60
   3   6  -5  494.05   38.90
   3   6  -5  461.15   38.90
  -3  -6   5  419.06   36.90
  -3  -6   5  349.57   47.00
   4   6  -5    6.60   15.10
   4   6  -5   -1.80   12.00
   4   6  -5  -21.10   20.10
  -4  -6   5   17.10   22.50
  -4  -6   5    1.60   18.00
   5   6  -5  449.46   42.90
   5   6  -5  491.15   52.29
  -5  -6   5  386.86   56.99
  -5  -6   5  379.36   49.30
   6   6  -5  -11.30   27.60
   6   6  -5    4.90   20.20
  -6  -6   5   42.90   27.20
  -6  -6   5   60.49   39.50
  -7   6  -4  162.28   30.90
  -7   6  -4  116.29   23.20
   7  -6   4  120.09   45.30
  -6   6  -4  695.23   58.59
  -6   6  -4  767.62   55.89
  -6   6  -4  709.23   57.59
   6  -6   4  726.43   60.49
   6  -6   4  750.82   79.69
  -5   6  -4  114.79   19.90
  -5   6  -4  102.49   18.40
  -5   6  -4  116.99   19.30
  -5   6  -4   93.09   17.40
   5  -6   4  178.08   37.30
   5  -6   4   99.79   17.50
   5  -6   4  103.09   15.30
  -4   6  -4  636.14   46.40
  -4   6  -4  695.83   49.30
  -4   6  -4  664.13   50.79
  -4   6  -4  679.33   47.00
   4  -6   4  595.74   62.69
   4  -6   4  675.43   47.50
   4  -6   4  643.44   48.00
  -3   6  -4  278.97   21.90
  -3   6  -4  334.87   25.80
  -3   6  -4  234.58   41.50
  -3   6  -4  240.28   38.70
  -3   6  -4  318.57   27.40
   3  -6   4  315.87   38.90
   3  -6   4  335.17   25.70
   3  -6   4  297.57   24.40
  -2   6  -4  299.37   41.30
  -2   6  -4  411.76   38.30
  -2   6  -4  405.86   30.60
   2  -6   4  377.36   38.20
   2  -6   4  418.96   53.79
   2  -6   4  396.66   29.80
  -1   6  -4 1179.78   83.99
  -1   6  -4 1250.87   80.29
  -1   6  -4 1050.19   88.49
   1  -6   4 1196.18   84.49
   1  -6   4 1226.38   79.89
   0   6  -4   23.90   11.90
   0   6  -4   45.40    8.80
   0   6  -4   38.80    8.80
   0   6  -4   40.60   18.50
   0   6  -4   49.40    8.30
   0  -6   4   37.50   11.60
   0  -6   4   45.90   25.70
   0  -6   4   37.80    8.80
   0  -6   4   25.20   17.20
   1   6  -4 1577.14  110.19
   1   6  -4 1596.64  102.09
   1   6  -4 1550.24  100.99
   1   6  -4 1602.14  100.69
  -1  -6   4 1497.15  101.49
  -1  -6   4 1577.84  100.39
  -1  -6   4 1569.94  101.49
  -1  -6   4 1255.47  108.29
  -1  -6   4 1329.57  112.89
   2   6  -4  175.18   30.30
   2   6  -4  105.29   26.10
   2   6  -4  139.59   18.00
   2   6  -4  143.39   18.10
   2   6  -4  139.39   11.90
   2   6  -4  148.79   14.20
  -2  -6   4  136.99   17.60
  -2  -6   4  104.39   24.20
  -2  -6   4  129.59   27.90
   3   6  -4 1072.59   73.09
   3   6  -4  978.70   71.19
   3   6  -4 1092.69   75.99
  -3  -6   4  919.71   70.49
  -3  -6   4  886.71   80.29
   4   6  -4  172.58   30.70
   4   6  -4  221.88   27.80
   4   6  -4  251.97   33.40
  -4  -6   4  161.88   30.80
  -4  -6   4  196.98   35.00
   5   6  -4  330.47   41.70
   5   6  -4  196.68   34.50
   5   6  -4  309.07   35.10
  -5  -6   4  273.97   41.40
  -5  -6   4  202.08   37.90
   6   6  -4  305.57   43.40
   6   6  -4  385.06   56.39
  -6  -6   4  269.27   51.49
  -7   6  -3  182.38   30.60
  -7   6  -3  162.28   33.30
   7  -6   3  186.28   32.90
   7  -6   3  233.08   45.20
  -6   6  -3  534.45   44.90
  -6   6  -3  580.34   47.50
  -6   6  -3  534.75   45.00
   6  -6   3  541.85   67.59
   6  -6   3  576.34   50.19
  -5   6  -3  617.84   47.80
  -5   6  -3  635.54   49.70
  -5   6  -3  648.24   45.80
  -5   6  -3  567.54   46.60
   5  -6   3  670.83   49.80
   5  -6   3  648.74   45.20
   5  -6   3  634.74   64.49
  -4   6  -3  572.84   41.40
  -4   6  -3  658.53   44.90
  -4   6  -3  470.75   59.09
  -4   6  -3  632.94   46.10
  -4   6  -3  572.24   42.80
   4  -6   3  610.24   44.40
   4  -6   3  577.94   56.69
   4  -6   3  604.24   42.10
  -3   6  -3 1447.96   85.39
  -3   6  -3 1357.16   82.79
  -3   6  -3 1338.77   86.29
  -3   6  -3 1198.38   82.29
  -3   6  -3 1031.10   92.99
  -3   6  -3 1154.88   90.49
   3  -6   3 1095.99   82.09
   3  -6   3 1272.47   83.49
   3  -6   3 1271.67   92.59
  -2   6  -3   22.60    6.80
  -2   6  -3   11.60    3.90
  -2   6  -3  -10.30   14.50
  -2   6  -3   13.60   12.40
   2  -6   3   -5.40   23.60
   2  -6   3   15.50    5.70
   2  -6   3   10.90   11.70
   2  -6   3   13.00    6.30
  -1   6  -3 1465.75   92.99
  -1   6  -3 1374.66   98.39
  -1   6  -3 1470.25   94.99
  -1   6  -3 1494.25   93.79
   1  -6   3 1300.37  111.19
   1  -6   3 1466.05   94.89
   1  -6   3 1414.46   98.99
   0   6  -3  160.68   15.40
   0   6  -3  141.49   17.00
   0   6  -3  153.38   14.50
   0   6  -3  146.29   19.20
   0   6  -3  146.29   26.80
   0  -6   3  144.79   30.90
   0  -6   3  162.78   15.90
   0  -6   3  150.58   19.60
   0  -6   3  155.28   27.90
   1   6  -3  962.70   74.69
   1   6  -3 1011.70   67.09
   1   6  -3 1047.80   67.19
   1   6  -3  983.20   67.29
   1   6  -3  943.71   74.79
  -1  -6   3  855.11   77.69
   2   6  -3  445.96   30.50
   2   6  -3  453.05   42.10
   2   6  -3  489.05   35.70
   2   6  -3  397.46   45.30
   2   6  -3  406.36   31.60
   2   6  -3  431.86   34.50
  -2  -6   3  391.66   44.60
  -2  -6   3  445.96   34.30
  -2  -6   3  344.57   41.80
   3   6  -3  114.09   20.30
   3   6  -3  112.59   20.20
   3   6  -3   86.59   14.20
   3   6  -3  112.69   13.60
   3   6  -3   86.49   15.30
  -3  -6   3   92.29   22.40
  -3  -6   3  104.99   19.50
  -3  -6   3  105.39   23.50
   4   6  -3  699.43   54.69
   4   6  -3  748.43   53.69
   4   6  -3  711.53   60.59
  -4  -6   3  564.64   59.89
   5   6  -3    8.20   19.00
   5   6  -3   -1.90   15.00
  -5  -6   3  -22.90   16.80
  -5  -6   3   -8.40   25.80
   6   6  -3  402.66   47.10
   6   6  -3  427.16   60.19
  -6  -6   3  364.86   55.09
  -7   6  -2  478.45   44.30
  -7   6  -2  498.85   48.20
   7  -6   2  637.84   77.39
   7  -6   2  503.15   54.39
  -6   6  -2   54.99   15.50
  -6   6  -2   58.19   14.30
  -6   6  -2   39.10   13.50
   6  -6   2   43.50   28.80
   6  -6   2   83.79   19.70
  -5   6  -2  691.13   53.29
  -5   6  -2  753.12   55.49
  -5   6  -2  772.22   53.79
  -5   6  -2  631.24   51.09
   5  -6   2  764.72   55.89
   5  -6   2  756.12   68.89
   5  -6   2  747.43   49.20
  -4   6  -2  986.60   62.89
  -4   6  -2  874.01   59.39
  -4   6  -2  872.81   61.99
  -4   6  -2  883.61   63.79
  -4   6  -2  771.82   74.49
   4  -6   2  901.31   58.79
   4  -6   2  907.51   72.99
   4  -6   2  881.11   63.09
  -3   6  -2  817.22   72.79
  -3   6  -2  874.61   69.59
  -3   6  -2  990.00   64.89
  -3   6  -2  808.12   60.69
  -3   6  -2  991.20   63.79
  -3   6  -2  851.91   62.29
   3  -6   2  979.90   71.49
   3  -6   2  960.30   63.29
   3  -6   2  958.10   60.59
  -2   6  -2  539.95   39.10
  -2   6  -2  593.44   39.10
  -2   6  -2  545.95   45.40
  -2   6  -2  477.25   49.40
   2  -6   2  570.14   58.99
   2  -6   2  576.34   40.90
   2  -6   2  595.64   38.80
   2  -6   2  554.04   46.20
  -1   6  -2  632.04   58.29
  -1   6  -2  739.63   54.29
  -1   6  -2  785.92   50.99
  -1   6  -2  701.73   49.50
   1  -6   2  746.43   49.90
   1  -6   2  725.13   54.29
   1  -6   2  744.13   68.39
   0   6  -2 1283.87   84.59
   0   6  -2 1289.07   86.89
   0   6  -2 1327.47   84.49
   0   6  -2 1311.37   87.19
   0   6  -2 1283.27   90.09
   0   6  -2 1067.89   90.69
   0  -6   2 1335.97   87.09
   0  -6   2 1209.58   97.49
   1   6  -2   91.39   12.70
   1   6  -2  127.09   20.80
   1   6  -2   97.89   19.20
   1   6  -2   99.19   10.40
   1   6  -2  104.09   15.30
   1   6  -2   71.39   19.00
   1   6  -2   75.29   12.90
  -1  -6   2   75.49   22.70
   2   6  -2 1633.24  119.89
   2   6  -2 1789.42  115.19
   2   6  -2 1683.63  116.29
   2   6  -2 1877.21  118.39
   2   6  -2 1954.00  113.89
   2   6  -2 1630.44  121.79
  -2  -6   2 1727.93  116.79
  -2  -6   2 1547.85  123.59
   3   6  -2   24.90   11.10
   3   6  -2   43.10   13.30
   3   6  -2   48.60   13.90
   3   6  -2   39.30   14.60
   3   6  -2   36.70   11.20
  -3  -6   2   54.09   18.90
  -3  -6   2   26.60   17.60
  -3  -6   2   29.80   13.00
   4   6  -2  455.35   36.70
   4   6  -2  449.16   37.00
   4   6  -2  464.65   36.70
   4   6  -2  459.25   40.30
   4   6  -2  475.25   46.10
  -4  -6   2  328.67   43.60
  -4  -6   2  408.26   46.10
   5   6  -2  171.98   30.00
   5   6  -2  168.68   28.10
   5   6  -2  193.18   33.60
  -5  -6   2  123.09   26.80
   6   6  -2  151.38   35.00
   6   6  -2  110.59   25.30
  -6  -6   2  100.79   31.80
  -7   6  -1  517.45   46.80
  -7   6  -1  430.66   43.30
   7  -6   1  618.74   53.69
   7  -6   1  451.15   73.49
  -6   6  -1   69.79   15.30
  -6   6  -1   75.89   15.80
   6  -6   1   82.59   19.50
   6  -6   1  109.49   31.10
  -5   6  -1 1190.18   84.89
  -5   6  -1 1075.59   83.39
  -5   6  -1 1240.88   83.39
   5  -6   1 1240.68   85.89
   5  -6   1 1318.07   97.39
  -4   6  -1  922.71   62.59
  -4   6  -1  889.41   62.79
  -4   6  -1  857.91   71.39
  -4   6  -1  891.51   63.39
   4  -6   1  909.01   71.99
   4  -6   1  869.71   63.69
  -3   6  -1   50.39    9.60
  -3   6  -1   56.59   10.00
  -3   6  -1   57.89    7.10
  -3   6  -1   66.69   17.50
  -3   6  -1   64.39   11.30
   3  -6   1   45.20   16.10
   3  -6   1   85.39   13.30
  -2   6  -1 1322.27   84.79
  -2   6  -1 1226.48   84.89
  -2   6  -1 1262.97   89.09
  -2   6  -1 1234.68   82.69
   2  -6   1 1289.77   98.79
   2  -6   1 1229.98   85.39
   2  -6   1 1295.57   89.69
  -1   6  -1  221.58   20.70
  -1   6  -1  197.48   16.50
  -1   6  -1  239.78   23.80
  -1   6  -1  168.98   21.70
  -1   6  -1  211.08   28.10
   1  -6   1  213.68   22.70
   1  -6   1  203.08   21.00
   1  -6   1  170.88   36.50
   0   6  -1  990.40   71.39
   0   6  -1  969.20   71.59
   0   6  -1 1016.10   68.19
   0   6  -1  998.80   67.59
   0   6  -1 1022.70   70.69
   0  -6   1 1041.10   70.89
   0  -6   1  968.90   79.49
   1   6  -1  744.73   50.39
   1   6  -1  696.33   48.50
   1   6  -1  713.13   49.40
   1   6  -1  654.13   52.89
   1   6  -1  606.54   53.29
   1   6  -1  619.04   52.69
   1   6  -1  735.83   46.70
  -1  -6   1  604.84   57.39
   2   6  -1  713.83   49.20
   2   6  -1  579.14   51.59
   2   6  -1  605.44   54.09
   2   6  -1  618.24   48.30
   2   6  -1  681.03   50.59
   2   6  -1  732.73   46.60
  -2  -6   1  638.74   49.10
   3   6  -1  430.86   38.90
   3   6  -1  465.95   34.10
   3   6  -1  332.47   31.90
   3   6  -1  393.46   34.90
  -3  -6   1  365.16   41.10
   4   6  -1   89.29   20.70
   4   6  -1   99.89   18.30
   4   6  -1   91.39   12.50
   4   6  -1   89.19   17.50
  -4  -6   1   76.59   11.10
  -4  -6   1   85.99   22.60
   5   6  -1  656.13   53.99
   5   6  -1  678.73   62.99
   5   6  -1  575.44   54.89
  -5  -6   1  544.25   57.59
   6   6  -1   23.50   30.80
   6   6  -1    7.40   21.60
  -6  -6   1   -8.80   25.10
  -8   6   0  197.18   37.00
  -8   6   0  196.48   35.00
   8  -6   0  177.78   36.20
   8  -6   0  252.27   57.09
  -7   6   0  140.29   24.40
  -7   6   0  136.99   22.50
   7  -6   0  177.58   29.80
   7  -6   0  187.28   42.70
  -6   6   0  926.11   66.89
  -6   6   0  793.32   64.59
   6  -6   0  856.61   80.89
   6  -6   0  944.61   70.29
  -5   6   0    8.70   10.10
  -5   6   0    0.70    7.20
  -5   6   0    4.30    8.70
   5  -6   0  -31.10   19.60
   5  -6   0   12.90   12.00
  -4   6   0 1224.48  100.29
  -4   6   0 1468.55   95.59
  -4   6   0 1470.25   94.79
  -4   6   0 1306.17   95.29
   4  -6   0 1480.65   96.89
   4  -6   0 1433.56  102.49
  -3   6   0   51.59   15.10
  -3   6   0   30.40    7.80
  -3   6   0   28.30    8.50
  -3   6   0   21.60    6.80
   3  -6   0   17.70   12.50
   3  -6   0   24.90    8.90
  -2   6   0 2531.55  163.58
  -2   6   0 2567.54  162.28
  -2   6   0 2525.05  165.28
  -2   6   0 2478.75  161.28
  -2   6   0 2357.36  167.28
   2  -6   0 2522.65  173.88
   2  -6   0 2535.05  165.38
   2  -6   0 2559.84  168.08
  -1   6   0  856.71   57.09
  -1   6   0  815.62   59.79
  -1   6   0  798.12   54.49
  -1   6   0  771.12   58.49
  -1   6   0  851.41   55.49
   1  -6   0  865.71   59.99
   1  -6   0  793.72   58.69
   1  -6   0  730.23   68.19
   0   6   0  411.16   30.70
   0   6   0  451.25   33.00
   0   6   0  455.25   37.50
   0   6   0  430.86   35.10
   0   6   0  476.45   31.30
   0   6   0  416.16   31.50
   0   6   0  463.15   36.40
   0   6   0  340.27   37.10
   0  -6   0  440.76   46.50
   1   6   0 1841.92  114.09
   1   6   0 1678.63  116.99
   1   6   0 1720.53  113.39
   1   6   0 1496.55  114.99
   1   6   0 1898.11  110.99
   1   6   0 1724.13  114.89
  -1  -6   0 1497.65  115.89
  -1  -6   0 1550.94  118.39
   2   6   0   16.30   13.90
   2   6   0    9.10    7.80
   2   6   0   -0.10   12.70
   2   6   0    7.60    8.60
   2   6   0    6.70   12.20
  -2  -6   0    0.30   14.30
  -2  -6   0   11.50   15.90
   3   6   0  661.63   52.59
   3   6   0  646.54   43.20
   3   6   0  649.93   47.70
   3   6   0  581.24   41.00
  -3  -6   0  586.94   53.59
  -3  -6   0  584.94   42.40
  -3  -6   0  512.35   58.19
   4   6   0   86.99   20.50
   4   6   0  101.19   22.60
  -4  -6   0   68.79   11.90
  -4  -6   0   92.19   22.30
  -4  -6   0   60.69   27.30
   5   6   0  450.55   45.20
   5   6   0  394.96   49.50
   5   6   0  474.65   54.19
  -5  -6   0  426.96   48.50
   6   6   0  210.08   41.40
   6   6   0  160.08   27.70
  -6  -6   0  100.59   31.20
  -8   6   1  210.58   36.90
  -8   6   1  194.18   31.60
   8  -6  -1  209.08   53.09
   8  -6  -1  216.18   37.60
  -7   6   1   64.49   19.50
  -7   6   1   55.69   17.70
   7  -6  -1   65.19   34.60
   7  -6  -1   32.70   23.80
  -6   6   1  536.15   45.20
  -6   6   1  588.74   46.40
   6  -6  -1  577.34   62.39
   6  -6  -1  542.75   52.19
  -5   6   1  280.87   25.30
  -5   6   1  266.77   25.40
  -5   6   1  224.48   28.60
   5  -6  -1  253.07   30.00
   5  -6  -1  246.48   39.50
  -4   6   1  742.23   60.09
  -4   6   1  885.41   59.09
  -4   6   1  888.91   59.09
  -4   6   1  705.63   64.99
   4  -6  -1  910.51   67.19
   4  -6  -1  861.01   61.69
   4  -6  -1  801.82   58.09
  -3   6   1  977.90   65.09
  -3   6   1  998.90   65.49
  -3   6   1  928.71   67.39
  -3   6   1  931.61   70.79
   3  -6  -1  907.31   67.49
   3  -6  -1  935.71   71.09
  -2   6   1    9.20    3.80
  -2   6   1    6.60    8.50
  -2   6   1    5.70    3.90
  -2   6   1   -7.00   11.20
  -2   6   1    2.60    5.20
   2  -6  -1    7.50    7.60
   2  -6  -1   18.70   17.60
   2  -6  -1    5.50   11.00
  -1   6   1 2242.18  144.49
  -1   6   1 2275.67  149.09
  -1   6   1 2272.37  144.99
  -1   6   1 2183.58  148.59
   1  -6  -1 2240.68  148.79
   1  -6  -1 2090.69  153.48
   1  -6  -1 2057.29  146.49
   1  -6  -1 2386.46  149.49
   0   6   1    5.70    5.80
   0   6   1   -9.20    9.50
   0   6   1    4.80    5.20
   0   6   1   11.70    4.30
   0   6   1   -4.60   10.30
   0   6   1    9.00    7.10
   0  -6  -1   10.10   17.70
   0  -6  -1    2.40    8.90
   1   6   1 1109.19   69.09
   1   6   1  969.10   75.29
   1   6   1  998.40   66.49
   1   6   1 1016.10   71.49
   1   6   1 1032.30   72.89
   1   6   1 1051.39   71.59
  -1  -6  -1  938.31   75.59
  -1  -6  -1  905.41   73.89
   2   6   1  226.28   26.00
   2   6   1  251.47   19.90
   2   6   1  301.67   26.10
   2   6   1  307.97   29.60
   2   6   1  304.27   30.60
   2   6   1  276.17   38.20
  -2  -6  -1  244.88   35.10
  -2  -6  -1  264.57   22.10
  -2  -6  -1  287.67   34.60
   3   6   1  444.76   37.50
   3   6   1  438.16   42.90
  -3  -6  -1  410.56   42.20
  -3  -6  -1  362.56   49.70
  -3  -6  -1  377.36   31.20
   4   6   1  547.75   51.79
   4   6   1  507.55   47.40
  -4  -6  -1  491.45   48.70
  -4  -6  -1  417.06   37.20
  -4  -6  -1  509.75   60.29
   5   6   1   28.80   23.70
   5   6   1   19.30   27.90
  -5  -6  -1   27.70   34.70
  -5  -6  -1   28.40   18.70
  -8   6   2  339.27   43.60
  -8   6   2  318.47   41.50
   8  -6  -2  304.67   55.79
   8  -6  -2  293.97   53.69
  -7   6   2  362.46   36.50
  -7   6   2  386.96   38.30
   7  -6  -2  348.67   58.79
   7  -6  -2  314.27   46.60
  -6   6   2  170.28   21.50
  -6   6   2  146.69   24.50
   6  -6  -2  177.08   34.90
   6  -6  -2  135.39   27.00
  -5   6   2 1024.30   72.89
  -5   6   2 1059.39   73.29
  -5   6   2  943.01   75.79
   5  -6  -2 1071.29   81.89
   5  -6  -2 1060.69   77.19
  -4   6   2   35.40   18.20
  -4   6   2   36.80   12.10
  -4   6   2   36.30    9.70
  -4   6   2   20.80    7.70
   4  -6  -2   33.90   16.90
   4  -6  -2   31.50    9.10
   4  -6  -2   30.20   11.50
  -3   6   2 1271.87   83.09
  -3   6   2 1317.37   84.39
  -3   6   2 1206.28   86.79
  -3   6   2 1105.39   88.49
   3  -6  -2 1242.08   89.49
   3  -6  -2 1276.67   83.49
   3  -6  -2 1235.68   87.09
  -2   6   2  304.07   29.80
  -2   6   2  310.17   32.50
  -2   6   2  310.47   25.20
  -2   6   2  329.17   23.20
  -2   6   2  303.77   23.80
   2  -6  -2  342.87   25.30
   2  -6  -2  337.07   27.40
   2  -6  -2  327.17   31.70
   2  -6  -2  329.87   30.10
  -1   6   2 1197.58   81.09
  -1   6   2 1240.88   80.89
  -1   6   2 1362.06   81.69
  -1   6   2 1130.89   85.59
  -1   6   2 1212.58   86.29
   1  -6  -2 1142.49   89.09
   1  -6  -2 1211.48   86.49
   1  -6  -2 1194.08   83.29
   0   6   2 1082.09   80.79
   0   6   2 1216.28   79.79
   0   6   2 1134.79   74.89
   0   6   2 1135.79   73.29
   0   6   2 1079.59   75.49
   0  -6  -2 1041.30   78.09
   0  -6  -2 1008.80   82.49
   0  -6  -2 1124.49   81.69
   1   6   2  562.34   40.90
   1   6   2  480.45   33.90
   1   6   2  406.56   39.00
   1   6   2  488.15   38.70
   1   6   2  543.65   38.00
   1   6   2  457.05   45.00
  -1  -6  -2  467.45   44.40
  -1  -6  -2  495.75   35.60
  -1  -6  -2  501.55   43.30
   2   6   2 1277.97   80.59
   2   6   2 1171.08   83.29
   2   6   2 1261.57   73.89
   2   6   2  981.30   76.19
  -2  -6  -2 1094.29   84.39
  -2  -6  -2 1068.89   76.19
  -2  -6  -2 1059.29   86.09
   3   6   2    5.50   13.70
   3   6   2   -6.20   14.00
  -3  -6  -2   -0.50    9.90
  -3  -6  -2    5.70   22.40
  -3  -6  -2    2.60   14.90
   4   6   2  516.65   51.89
   4   6   2  532.75   52.49
  -4  -6  -2  466.95   48.60
  -4  -6  -2  394.96   57.39
   5   6   2   93.79   35.10
   5   6   2   89.99   29.50
  -5  -6  -2   49.10   34.40
  -5  -6  -2   76.79   24.00
  -8   6   3  -16.30   20.90
  -8   6   3    5.40   16.50
   8  -6  -3    0.10   30.30
   8  -6  -3  -15.40   38.90
  -7   6   3  561.44   51.69
  -7   6   3  593.94   50.49
   7  -6  -3  622.74   69.59
   7  -6  -3  596.14   59.89
  -6   6   3   39.20   15.00
  -6   6   3   30.70   11.00
   6  -6  -3   67.29   28.60
   6  -6  -3   36.50   19.40
  -5   6   3 1064.19   78.39
  -5   6   3 1142.59   78.09
   5  -6  -3 1098.99   82.79
   5  -6  -3 1139.69   86.39
  -4   6   3  396.46   36.90
  -4   6   3  394.76   33.00
  -4   6   3  416.76   32.00
  -4   6   3  392.06   42.10
   4  -6  -3  434.16   38.30
   4  -6  -3  480.25   42.10
   4  -6  -3  347.47   31.80
  -3   6   3  521.05   38.70
  -3   6   3  488.45   42.50
  -3   6   3  488.75   45.90
  -3   6   3  467.05   34.50
  -3   6   3  536.25   36.80
   3  -6  -3  540.55   36.40
   3  -6  -3  523.35   46.20
   3  -6  -3  512.85   37.80
   3  -6  -3  525.35   43.00
  -2   6   3 1187.78   78.89
  -2   6   3 1130.99   84.99
  -2   6   3 1219.18   80.79
  -2   6   3 1157.08   86.09
  -2   6   3 1188.78   78.69
  -2   6   3 1216.68   80.39
   2  -6  -3 1204.58   80.19
   2  -6  -3 1232.58   85.69
   2  -6  -3 1216.48   80.79
  -1   6   3  123.89   13.60
  -1   6   3  123.99   12.70
  -1   6   3  111.39   13.90
  -1   6   3   90.69   16.70
  -1   6   3  122.49   20.30
   1  -6  -3  102.49   12.00
   1  -6  -3  106.29   20.60
   1  -6  -3  139.39   17.70
   1  -6  -3  128.29   22.20
   0   6   3 1210.68   86.89
   0   6   3 1329.97   82.69
   0   6   3 1226.48   79.99
   0   6   3 1212.98   88.19
   0   6   3 1159.78   82.09
   0  -6  -3 1202.08   85.19
   0  -6  -3 1275.57   90.49
   0  -6  -3 1020.60   88.09
   1   6   3  251.77   18.90
   1   6   3  221.88   25.50
   1   6   3  230.68   33.90
   1   6   3  241.28   24.30
   1   6   3  257.67   24.50
  -1  -6  -3  218.58   20.70
  -1  -6  -3  191.98   29.00
  -1  -6  -3  211.68   30.90
   2   6   3 1190.38   81.89
   2   6   3 1184.88   78.89
  -2  -6  -3 1003.00   74.19
  -2  -6  -3 1050.09   81.29
  -2  -6  -3 1000.80   83.89
   3   6   3  381.46   42.40
   3   6   3  423.06   41.50
  -3  -6  -3  319.67   48.90
  -3  -6  -3  360.16   40.70
   4   6   3  272.07   42.30
   4   6   3  282.47   42.30
  -4  -6  -3  245.68   37.10
   5   6   3  438.06   67.79
   5   6   3  364.56   57.29
  -5  -6  -3  381.36   48.40
  -5  -6  -3  364.76   67.09
  -8   6   4    2.70   23.60
  -8   6   4   27.00   20.50
   8  -6  -4    9.70   30.80
   8  -6  -4   60.59   43.60
  -7   6   4  374.16   41.10
  -7   6   4  390.16   37.60
   7  -6  -4  365.56   60.59
   7  -6  -4  408.16   51.39
  -6   6   4  849.61   67.39
  -6   6   4  923.31   66.79
   6  -6  -4  898.91   74.29
   6  -6  -4  908.21   78.89
  -5   6   4   57.99   12.20
  -5   6   4   85.29   17.10
   5  -6  -4   42.20   21.20
   5  -6  -4   60.49   18.30
  -4   6   4 1077.99   73.19
  -4   6   4  966.20   79.69
  -4   6   4  943.81   76.69
  -4   6   4 1103.89   71.09
   4  -6  -4  984.10   76.89
   4  -6  -4 1065.89   79.39
  -3   6   4   72.79   13.00
  -3   6   4   71.79   11.50
  -3   6   4   60.69    9.30
  -3   6   4   61.99    8.70
  -3   6   4   53.49   18.40
  -3   6   4   58.39   15.70
   3  -6  -4   79.79   17.20
   3  -6  -4   52.39   10.00
   3  -6  -4   58.79   10.00
  -2   6   4 1248.78   81.39
  -2   6   4 1230.98   78.29
  -2   6   4 1174.88   79.59
  -2   6   4 1161.58   87.09
  -2   6   4 1132.09   80.79
  -2   6   4 1193.68   86.49
   2  -6  -4 1220.58   87.29
   2  -6  -4 1155.18   80.89
   2  -6  -4 1222.38   80.49
  -1   6   4  159.58   16.00
  -1   6   4  153.38   26.70
  -1   6   4  142.69   25.50
  -1   6   4  145.09   17.20
  -1   6   4  151.78   17.50
   1  -6  -4  133.89   19.60
   1  -6  -4  162.18   27.30
   1  -6  -4  175.18   15.60
   0   6   4 1210.48   78.29
   0   6   4 1063.19   77.09
   0   6   4 1196.78   75.49
   0   6   4 1058.69   84.19
   0  -6  -4 1115.39   74.59
   0  -6  -4 1023.00   75.79
   0  -6  -4 1158.08   86.19
   0  -6  -4 1141.89   80.49
   1   6   4  666.93   53.09
   1   6   4  691.13   46.20
   1   6   4  729.03   51.89
  -1  -6  -4  583.64   47.80
  -1  -6  -4  686.93   55.69
  -1  -6  -4  622.24   54.69
   2   6   4  301.97   33.20
   2   6   4  308.87   36.60
  -2  -6  -4  260.97   35.50
  -2  -6  -4  308.57   41.80
   3   6   4  459.15   46.70
   3   6   4  388.36   47.80
  -3  -6  -4  420.16   44.60
  -3  -6  -4  399.76   51.89
   4   6   4   52.09   22.50
   4   6   4   30.50   29.10
  -4  -6  -4   55.99   30.60
  -4  -6  -4   47.10   20.70
   5   6   4  454.55   77.09
   5   6   4  463.25   64.69
  -5  -6  -4  412.86   50.89
  -8   6   5  231.88   38.70
  -8   6   5  290.97   40.00
   8  -6  -5  349.27   57.49
   8  -6  -5  324.07   54.79
  -7   6   5   46.50   14.30
  -7   6   5   47.20   21.20
   7  -6  -5   21.50   33.10
   7  -6  -5   -0.20   25.00
  -6   6   5  520.35   47.50
  -6   6   5  586.44   45.40
   6  -6  -5  493.35   60.49
   6  -6  -5  573.54   55.49
  -5   6   5  160.38   25.00
  -5   6   5  192.78   20.80
   5  -6  -5  206.78   33.60
   5  -6  -5  173.98   29.90
  -4   6   5 1226.28   84.99
  -4   6   5 1295.17   82.29
  -4   6   5 1151.78   81.99
  -4   6   5 1137.79   79.59
   4  -6  -5 1217.58   80.29
   4  -6  -5 1238.28   90.39
  -3   6   5  777.22   69.39
  -3   6   5  922.61   58.79
  -3   6   5  928.21   61.19
  -3   6   5  880.21   68.09
  -3   6   5  824.22   59.09
  -3   6   5  911.41   62.59
   3  -6  -5  800.72   60.69
   3  -6  -5  931.51   69.09
   3  -6  -5  850.51   59.79
  -2   6   5  175.78   19.10
  -2   6   5  175.88   18.20
  -2   6   5  200.88   19.50
  -2   6   5  189.68   28.40
   2  -6  -5  181.88   17.40
   2  -6  -5  120.19   23.50
   2  -6  -5  167.28   19.80
  -1   6   5 1503.65  104.89
  -1   6   5 1669.03  105.19
  -1   6   5 1682.93  106.49
  -1   6   5 1383.66  111.09
   1  -6  -5 1546.15  103.69
   1  -6  -5 1621.14  114.09
   1  -6  -5 1559.84  106.89
   0   6   5   -1.10    7.00
   0   6   5    6.60   10.20
   0   6   5   14.30   10.40
   0  -6  -5    5.40    6.20
   0  -6  -5   -2.30   11.70
   0  -6  -5  -26.60   15.50
   0  -6  -5   -2.60    7.80
   1   6   5  964.40   72.49
   1   6   5  999.10   70.59
   1   6   5  944.31   64.19
  -1  -6  -5  813.72   69.89
  -1  -6  -5  990.00   73.89
   2   6   5    7.40   16.10
   2   6   5   -0.70   14.50
  -2  -6  -5    1.00   17.60
  -2  -6  -5    6.90   17.70
   3   6   5  939.31   76.19
   3   6   5  893.91   75.09
  -3  -6  -5  843.52   77.89
  -3  -6  -5  860.01   72.39
   4   6   5  290.97   45.80
   4   6   5  157.28   34.00
  -4  -6  -5  207.68   38.20
  -4  -6  -5  227.88   41.60
  -8   6   6  309.57   51.79
  -8   6   6  515.65   49.00
   8  -6  -6  383.06   61.59
   8  -6  -6  417.26   63.79
  -7   6   6  118.19   24.80
  -7   6   6  136.29   26.10
   7  -6  -6  111.89   31.00
   7  -6  -6  112.79   38.50
  -6   6   6  218.58   32.00
  -6   6   6  290.87   28.10
   6  -6  -6  248.58   41.50
  -5   6   6  691.53   53.69
  -5   6   6  748.93   58.29
  -5   6   6  734.33   50.49
  -5   6   6  819.82   55.39
   5  -6  -6  696.23   51.29
   5  -6  -6  794.52   65.49
  -4   6   6  659.03   45.50
  -4   6   6  608.94   44.60
  -4   6   6  632.34   46.70
  -4   6   6  656.93   50.49
   4  -6  -6  613.54   44.90
   4  -6  -6  611.84   57.19
  -3   6   6  596.94   45.10
  -3   6   6  631.84   43.60
  -3   6   6  575.84   39.60
  -3   6   6  541.05   41.40
   3  -6  -6  579.04   42.30
   3  -6  -6  487.85   42.40
   3  -6  -6  589.34   52.59
  -2   6   6   29.90   10.50
  -2   6   6   45.30   11.10
  -2   6   6   41.60   11.50
   2  -6  -6   43.00   12.00
   2  -6  -6   46.90   10.50
   2  -6  -6   68.79   19.50
  -1   6   6 1039.90   78.19
  -1   6   6 1193.38   78.79
  -1   6   6 1151.88   79.79
   1  -6  -6 1161.08   80.79
   1  -6  -6 1126.49   76.59
   1  -6  -6 1111.69   89.19
   0   6   6  573.44   42.50
   0   6   6  574.54   47.00
   0  -6  -6  548.75   47.60
   0  -6  -6  570.14   58.59
   0  -6  -6  533.15   39.70
   1   6   6  381.66   40.20
   1   6   6  430.36   41.00
   1   6   6  367.16   31.40
  -1  -6  -6  406.96   44.00
   2   6   6  510.85   50.59
   2   6   6  515.95   50.99
  -2  -6  -6  525.65   53.59
   3   6   6    1.60   21.00
   3   6   6   66.59   28.90
  -3  -6  -6   34.60   23.90
  -3  -6  -6   17.30   21.80
   4   6   6  460.95   64.39
   4   6   6  653.73   70.69
  -4  -6  -6  498.85   58.29
  -4  -6  -6  475.75   69.19
  -7   6   7  291.47   43.70
  -7   6   7  339.97   33.60
  -7   6   7  410.96   39.70
   7  -6  -7  436.36   56.39
  -6   6   7   -4.20   16.20
  -6   6   7   -7.90   10.70
  -6   6   7   -7.50   10.60
   6  -6  -7   -2.70   21.10
  -5   6   7  955.30   74.39
  -5   6   7 1090.49   71.29
  -5   6   7  908.51   67.19
  -5   6   7 1004.60   70.29
   5  -6  -7 1047.50   81.79
   5  -6  -7  952.60   67.79
  -4   6   7  274.57   28.30
  -4   6   7  353.16   26.50
  -4   6   7  275.87   32.80
  -4   6   7  291.97   25.90
   4  -6  -7  335.47   42.00
   4  -6  -7  280.67   27.20
  -3   6   7 1101.39   80.59
  -3   6   7 1156.58   82.59
  -3   6   7 1184.48   84.49
   3  -6  -7 1230.58   82.39
   3  -6  -7 1296.27   94.39
  -2   6   7  448.06   36.50
  -2   6   7  451.65   36.70
  -2   6   7  339.97   34.40
   2  -6  -7  412.06   33.40
   2  -6  -7  413.36   35.80
   2  -6  -7  429.86   48.70
  -1   6   7  408.56   35.10
  -1   6   7  337.57   35.80
   1  -6  -7  389.76   31.80
   1  -6  -7  383.76   51.49
   1  -6  -7  452.05   39.00
   0   6   7  898.01   61.99
   0   6   7  842.22   66.09
   0  -6  -7  821.02   58.39
   0  -6  -7  827.62   67.39
   0  -6  -7  828.32   77.59
   1   6   7   34.20   16.60
   1   6   7   26.60   18.60
   1   6   7   43.00   12.30
  -1  -6  -7   30.50    8.00
  -1  -6  -7   45.90   19.30
   2   6   7  774.12   67.59
   2   6   7  724.23   67.89
  -2  -6  -7  796.42   70.49
   3   6   7   57.09   26.40
   3   6   7   65.29   31.70
  -3  -6  -7   49.99   26.50
  -7   6   8  398.86   40.50
  -7   6   8  337.27   46.30
  -7   6   8  350.26   35.30
   7  -6  -8  437.96   60.19
  -6   6   8  166.88   31.50
  -6   6   8  172.08   24.80
  -6   6   8  199.38   27.50
   6  -6  -8  234.48   24.30
   6  -6  -8  144.59   33.10
  -5   6   8  137.99   20.90
  -5   6   8  155.18   24.30
  -5   6   8  179.78   27.50
  -5   6   8  183.78   23.20
   5  -6  -8  143.19   28.90
  -4   6   8  545.75   43.40
  -4   6   8  458.35   40.60
  -4   6   8  501.95   46.80
   4  -6  -8  569.44   43.20
   4  -6  -8  630.24   57.29
  -3   6   8  103.09   17.30
  -3   6   8  102.69   21.30
  -3   6   8   91.39   16.00
   3  -6  -8  114.99   26.70
  -2   6   8 1020.30   73.89
  -2   6   8  998.50   74.39
   2  -6  -8 1032.20   74.29
   2  -6  -8  985.40   85.29
  -1   6   8  135.39   23.30
  -1   6   8  161.78   26.70
   1  -6  -8  125.09   19.10
   1  -6  -8  150.48   31.70
   1  -6  -8  140.29   24.10
   0   6   8  936.71   67.99
   0   6   8  895.41   72.59
   0   6   8  895.81   71.69
   0  -6  -8  934.81   72.39
   0  -6  -8  892.81   63.19
   1   6   8  468.15   40.20
   1   6   8  423.86   47.20
   1   6   8  435.96   47.70
  -1  -6  -8  443.86   48.60
   2   6   8  222.18   38.30
  -2  -6  -8  236.08   37.40
   3   6   8  317.57   55.09
   3   6   8  349.47   51.39
  -7   6   9  140.99   21.70
  -7   6   9  114.39   24.10
  -7   6   9   83.99   29.10
   7  -6  -9   73.59   34.10
  -6   6   9  378.36   37.20
  -6   6   9  461.35   42.20
  -6   6   9  376.86   47.40
   6  -6  -9  424.86   59.19
  -5   6   9   27.80   14.80
   5  -6  -9   20.80   25.50
   5  -6  -9   37.80   14.20
  -4   6   9  731.83   55.09
  -4   6   9  676.13   58.79
  -4   6   9  588.54   52.99
   4  -6  -9  794.32   68.99
   4  -6  -9  774.02   55.59
  -3   6   9   52.49   18.80
  -3   6   9   36.00   14.00
   3  -6  -9   49.99   16.40
   3  -6  -9   76.49   26.20
  -2   6   9  751.92   59.49
  -2   6   9  690.63   57.59
   2  -6  -9  681.83   71.59
   2  -6  -9  715.33   59.19
  -1   6   9  455.35   43.50
  -1   6   9  402.06   43.70
   1  -6  -9  525.65   47.90
   1  -6  -9  505.35   60.69
   0   6   9   47.70   21.20
   0   6   9   64.79   18.40
   0   6   9   62.49   20.70
   0  -6  -9   77.59   20.90
   1   6   9  885.51   77.79
   1   6   9  932.21   77.89
  -1  -6  -9  928.71   77.19
   2   6   9   10.60   28.00
   2   6   9   30.50   24.40
  -2  -6  -9    5.70   26.10
  -6   6  10  363.76   35.00
  -6   6  10  255.97   44.40
  -5   6  10  406.56   38.50
  -5   6  10  321.87   44.90
   5  -6 -10  396.96   58.29
  -4   6  10  283.37   31.20
  -4   6  10  248.28   36.90
   4  -6 -10  302.37   50.89
  -3   6  10  512.75   52.09
  -3   6  10  567.74   49.80
   3  -6 -10  638.14   64.99
   3  -6 -10  597.14   52.09
  -2   6  10   30.50   18.10
  -2   6  10   51.99   20.60
   2  -6 -10   84.89   20.30
   2  -6 -10   35.90   30.60
  -1   6  10  835.82   68.69
  -1   6  10  703.43   66.59
   1  -6 -10  876.11   70.19
   1  -6 -10  795.62   82.99
   0   6  10   37.90   21.30
   0   6  10   21.90   20.80
   0   6  10   64.29   23.50
   0  -6 -10   79.99   23.00
   1   6  10  473.65   55.79
   1   6  10  475.25   58.09
  -6   6  11   31.50   25.70
  -6   6  11   34.10   18.70
   6  -6 -11   41.40   38.10
  -5   6  11  503.65   53.49
  -5   6  11  482.85   46.10
   5  -6 -11  532.95   68.69
  -4   6  11   37.70   22.70
  -4   6  11   38.20   18.70
   4  -6 -11   50.69   21.00
   4  -6 -11   84.49   35.10
  -3   6  11  653.13   61.29
  -3   6  11  569.74   57.19
   3  -6 -11  756.22   59.79
   3  -6 -11  675.13   75.79
  -2   6  11  157.58   31.90
  -2   6  11  144.79   28.00
   2  -6 -11  185.98   43.30
  -1   6  11  287.47   41.90
  -1   6  11  326.07   47.30
   1  -6 -11  272.77   52.79
   1  -6 -11  380.26   47.90
   0   6  11  408.06   54.19
   0   6  11  375.36   53.49
   0  -6 -11  493.05   54.39
  -4   6  12  313.17   48.80
  -4   6  12  287.47   42.80
   4  -6 -12  366.56   63.69
  -3   6  12   99.99   25.80
  -3   6  12  122.99   32.00
   3  -6 -12   86.49   38.20
  -2   6  12  468.75   60.89
  -2   6  12  424.16   50.69
   2  -6 -12  523.75   77.89
  -1   7 -12  224.98   29.80
  -1   7 -12  237.98   35.30
   1  -7  12  155.08   55.09
   1  -7  12  235.78   44.10
   1  -7  12  103.99   62.59
   0   7 -12  198.98   35.30
   0  -7  12  191.38   54.59
   0  -7  12  261.27   45.70
   0  -7  12  153.98   59.09
   1   7 -12  308.87   46.30
  -1  -7  12  219.78   62.39
  -1  -7  12  316.57   59.39
   2   7 -12  -41.40   23.70
  -2  -7  12   13.30   45.50
  -2  -7  12  -61.39   42.00
   3   7 -12  198.98   35.50
  -3  -7  12  231.08   55.29
  -3  -7  12  101.09   55.59
  -2   7 -11   47.70   15.00
  -2   7 -11   31.80   23.30
   2  -7  11   83.79   37.40
  -1   7 -11  453.35   50.39
   1  -7  11  565.64   64.99
   1  -7  11  459.35   70.09
   0  -7  11  -23.50   43.40
   0  -7  11  -26.40   38.50
   0  -7  11    8.20   30.80
   1   7 -11  313.37   43.60
  -1  -7  11  405.56   70.59
  -2  -7  11  132.79   45.20
  -2  -7  11  184.78   45.80
   3   7 -11  138.79   29.10
  -3  -7  11  188.18   49.20
   4   7 -11  146.59   28.00
  -4  -7  11   92.59   45.60
  -4  -7  11  237.48   52.29
  -3   7 -10  394.36   41.80
  -3   7 -10  475.15   49.90
   3  -7  10  498.85   71.09
  -2   7 -10   38.80   15.10
  -2   7 -10   48.20   20.90
   2  -7  10   56.29   32.50
  -1   7 -10  301.07   40.40
   1  -7  10  354.86   52.59
   1  -7  10  314.07   58.39
   0   7 -10  207.68   34.90
   0  -7  10  200.88   52.99
   0  -7  10  315.07   52.89
   1   7 -10  373.36   42.30
  -1  -7  10  362.26   59.09
  -1  -7  10  398.46   46.10
   2   7 -10  300.47   41.00
   2   7 -10  381.36   32.90
  -2  -7  10  347.87   39.10
  -2  -7  10  350.86   64.79
   3   7 -10   -8.70   15.90
   3   7 -10   14.10   20.20
  -3  -7  10  -15.30   37.70
  -3  -7  10   -8.20   30.50
   4   7 -10  229.98   40.40
  -4  -7  10  174.18   48.90
  -4  -7  10  178.58   47.70
   5   7 -10    3.10   28.20
   5   7 -10   31.00   27.90
  -5  -7  10  145.59   50.59
  -5  -7  10   20.70   39.60
  -4   7  -9  300.77   38.50
  -4   7  -9  417.16   45.80
   4  -7   9  397.56   65.79
  -3   7  -9  347.27   35.30
  -3   7  -9  342.87   41.80
   3  -7   9  407.56   52.79
  -2   7  -9  621.14   53.89
  -2   7  -9  655.13   50.79
   2  -7   9  438.86   76.49
   2  -7   9  631.84   67.29
  -1   7  -9   -3.20   16.60
   1  -7   9   -8.40   37.80
   1  -7   9   -1.20   25.50
   1  -7   9  -10.90   30.00
   0   7  -9  803.22   61.59
   0   7  -9  807.72   62.19
   0  -7   9  866.01   65.69
   0  -7   9  579.44   82.49
   0  -7   9  647.04   77.59
   1   7  -9   10.10   14.80
   1   7  -9   13.30   17.00
  -1  -7   9   47.80   31.00
  -1  -7   9   49.40   20.10
  -1  -7   9   63.69   30.90
   2   7  -9  423.76   33.70
   2   7  -9  342.27   40.30
  -2  -7   9  384.46   37.10
   3   7  -9  158.68   27.20
   3   7  -9  139.79   23.60
  -3  -7   9  204.08   41.90
  -3  -7   9   75.59   34.20
   4   7  -9  219.08   38.20
  -4  -7   9  154.78   41.10
  -4  -7   9  157.08   46.30
   5   7  -9  240.68   36.80
   5   7  -9  359.66   50.89
  -5  -7   9  263.57   54.99
  -5   7  -8  140.49   25.40
  -5   7  -8   98.79   24.30
   5  -7   8  165.88   43.00
  -4   7  -8  681.73   59.59
  -4   7  -8  835.22   63.49
   4  -7   8  772.12   79.19
  -3   7  -8    4.40   17.00
  -3   7  -8   -4.40    9.30
   3  -7   8   16.00   25.60
  -2   7  -8  615.64   51.29
  -2   7  -8  643.54   49.99
   2  -7   8  671.23   64.29
   2  -7   8  438.26   75.19
  -1   7  -8  225.78   31.70
   1  -7   8  279.37   39.10
   1  -7   8  233.88   43.10
   1  -7   8  170.38   46.70
   0   7  -8  639.24   54.09
   0   7  -8  657.63   53.59
   0  -7   8  697.53   57.19
   1   7  -8  374.86   33.40
   1   7  -8  372.66   28.90
   1   7  -8  395.46   37.80
  -1  -7   8  267.77   50.69
  -1  -7   8  287.77   53.39
  -1  -7   8  412.36   37.20
   2   7  -8   89.49   15.30
   2   7  -8   94.29   14.30
   2   7  -8   91.99   20.20
  -2  -7   8   89.29   18.10
  -2  -7   8   75.09   31.40
  -2  -7   8  110.29   34.90
  -2  -7   8  135.89   18.60
   3   7  -8  446.46   43.30
   3   7  -8  485.05   40.00
  -3  -7   8  326.37   54.69
  -3  -7   8  437.36   64.39
  -3  -7   8  411.36   37.90
   4   7  -8   17.60   20.80
   4   7  -8   -1.50   18.30
  -4  -7   8   36.90   34.40
  -4  -7   8   20.60   26.40
   5   7  -8  460.35   55.09
   5   7  -8  442.46   47.70
  -5  -7   8  284.17   56.19
  -5   7  -7   12.70   15.50
  -5   7  -7    5.80   15.50
  -5   7  -7   66.19   20.10
  -4   7  -7  681.63   51.09
  -4   7  -7  600.74   50.89
   4  -7   7  522.55   65.69
  -3   7  -7  641.24   49.00
  -3   7  -7  557.74   47.90
   3  -7   7  584.14   63.09
  -2   7  -7  356.86   35.10
   2  -7   7  477.25   49.60
   2  -7   7  309.57   59.69
   2  -7   7  341.57   33.90
  -1   7  -7  767.72   56.89
   1  -7   7  598.54   49.80
   1  -7   7  540.95   70.99
   1  -7   7  719.33   58.69
   0   7  -7   37.90   14.50
   0   7  -7   29.80   12.20
   0  -7   7   18.80   25.20
   0  -7   7   32.60   34.60
   0  -7   7   12.70   16.10
   1   7  -7 1018.80   67.79
   1   7  -7  961.20   70.49
   1   7  -7  955.90   64.69
  -1  -7   7  771.72   82.39
  -1  -7   7  995.80   69.39
   2   7  -7   60.89   11.80
   2   7  -7   76.19   18.90
   2   7  -7   64.69   10.10
  -2  -7   7   39.40   12.00
  -2  -7   7   34.70   30.10
  -2  -7   7   40.50   27.10
   3   7  -7  466.65   42.90
   3   7  -7  520.25   42.00
  -3  -7   7  335.27   61.59
  -3  -7   7  400.86   55.89
  -3  -7   7  483.05   40.50
   4   7  -7  167.58   29.70
   4   7  -7  132.79   23.20
  -4  -7   7  180.58   42.50
  -4  -7   7  102.89   34.20
   5   7  -7  125.39   25.50
   5   7  -7  182.28   32.90
  -5  -7   7  164.88   45.10
  -5  -7   7   81.69   34.20
  -6   7  -6  359.76   37.30
  -6   7  -6  310.47   40.70
   6  -7   6  337.37   57.39
  -5   7  -6  676.33   47.90
  -5   7  -6  483.35   47.60
  -5   7  -6  557.24   47.60
   5  -7   6  545.15   68.89
  -4   7  -6   70.99   15.80
  -4   7  -6   85.69   15.30
  -4   7  -6   55.99   15.70
   4  -7   6   63.19   14.80
   4  -7   6  137.69   31.20
  -3   7  -6  855.91   64.89
  -3   7  -6  898.51   63.29
   3  -7   6  798.72   61.69
   3  -7   6  968.00   77.69
  -2   7  -6   -8.50   11.40
   2  -7   6   -4.20   10.10
   2  -7   6   -3.10   18.40
   2  -7   6   33.40   31.70
  -1   7  -6  796.42   56.19
  -1   7  -6  801.52   60.79
   1  -7   6  811.12   61.79
   1  -7   6  758.52   54.99
   1  -7   6  622.44   77.79
   1  -7   6  681.13   70.99
   0   7  -6  185.58   22.40
   0   7  -6  190.38   26.20
   0  -7   6  139.49   35.70
   0  -7   6  174.18   21.10
   0  -7   6  149.59   34.80
   0  -7   6  221.28   27.70
   1   7  -6  573.94   43.70
   1   7  -6  592.54   42.40
   1   7  -6  559.24   38.80
  -1  -7   6  542.45   43.00
  -1  -7   6  408.86   57.89
  -1  -7   6  437.56   55.09
   2   7  -6  675.63   48.90
   2   7  -6  658.03   51.59
  -2  -7   6  581.44   63.69
  -2  -7   6  688.23   48.10
  -2  -7   6  548.35   63.59
   3   7  -6   14.70   13.00
   3   7  -6   14.00   13.00
  -3  -7   6   13.60   27.30
  -3  -7   6   12.80   12.60
  -3  -7   6   16.60   23.20
   4   7  -6  426.36   45.30
   4   7  -6  409.96   39.10
  -4  -7   6  298.07   48.70
  -4  -7   6  294.17   47.90
   5   7  -6   19.00   17.30
   5   7  -6  -15.20   22.10
  -5  -7   6    1.70   25.20
  -5  -7   6   29.90   40.20
   6   7  -6  314.67   45.20
   6   7  -6  202.88   33.10
  -6  -7   6  233.68   50.69
  -6   7  -5   23.00   15.70
  -6   7  -5   10.50   15.00
   6  -7   5   23.50   37.10
  -5   7  -5  766.22   51.49
  -5   7  -5  665.73   52.99
  -5   7  -5  658.93   54.49
   5  -7   5  621.74   51.79
   5  -7   5  632.64   72.19
  -4   7  -5   69.49   11.50
  -4   7  -5  102.89   17.50
  -4   7  -5   91.29   17.40
   4  -7   5   88.09   14.20
   4  -7   5   98.89   14.90
   4  -7   5   98.29   27.00
  -3   7  -5 1081.09   76.09
  -3   7  -5 1069.89   72.99
   3  -7   5 1060.49   84.99
   3  -7   5  998.50   72.19
  -2   7  -5  441.26   48.10
  -2   7  -5  552.44   40.00
   2  -7   5  512.45   38.40
   2  -7   5  544.65   49.30
   2  -7   5  412.26   63.19
  -1   7  -5  235.08   32.00
  -1   7  -5  228.18   44.30
  -1   7  -5  315.67   27.40
   1  -7   5  303.77   52.69
   1  -7   5  353.66   35.40
   1  -7   5  300.57   26.30
   0   7  -5 1724.93  116.29
   0   7  -5 1645.84  124.99
   0   7  -5 1820.82  114.89
   0   7  -5 1940.41  112.19
   0   7  -5 1679.13  110.69
   0  -7   5 1463.45  124.69
   0  -7   5 1732.93  114.19
   0  -7   5 1492.05  130.09
   0  -7   5 1727.23  116.59
   1   7  -5   35.40   10.30
   1   7  -5   25.90   12.30
   1   7  -5   36.70   24.30
   1   7  -5   34.00    8.30
  -1  -7   5   44.40   25.50
  -1  -7   5   42.00   13.00
  -1  -7   5    2.20   20.50
  -1  -7   5   24.50   10.30
   2   7  -5  707.23   66.79
   2   7  -5  746.13   55.39
   2   7  -5  800.12   54.39
   2   7  -5  710.13   48.40
   2   7  -5  691.33   49.80
  -2  -7   5  702.13   52.99
   3   7  -5   33.50   14.80
   3   7  -5   25.10   24.90
   3   7  -5   31.90   13.20
  -3  -7   5   13.50   17.50
  -3  -7   5   13.70   12.20
  -3  -7   5   24.60   24.30
   4   7  -5  421.36   38.40
  -4  -7   5  339.27   48.60
  -4  -7   5  320.47   53.49
   5   7  -5  265.27   47.30
   5   7  -5  231.98   35.40
  -5  -7   5  208.88   44.40
  -5  -7   5  209.58   42.00
   6   7  -5   63.59   24.20
   6   7  -5  102.39   34.90
  -6  -7   5   95.59   38.20
  -6   7  -4  372.16   38.50
  -6   7  -4  401.96   37.40
   6  -7   4  452.25   66.09
   6  -7   4  375.56   43.00
  -5   7  -4  253.67   27.40
  -5   7  -4  249.78   27.60
  -5   7  -4  249.48   28.20
  -5   7  -4  300.97   25.60
   5  -7   4  216.38   38.10
   5  -7   4  251.67   29.60
  -4   7  -4  673.33   54.29
  -4   7  -4  704.33   49.50
  -4   7  -4  768.02   50.39
  -4   7  -4  737.63   53.79
   4  -7   4  681.83   51.39
   4  -7   4  709.33   67.49
   4  -7   4  707.33   50.89
  -3   7  -4   73.79   13.80
  -3   7  -4   79.39    9.30
  -3   7  -4   79.89   15.30
   3  -7   4  117.89   25.60
   3  -7   4   94.19   14.70
  -2   7  -4  927.21   62.29
  -2   7  -4  857.51   68.49
   2  -7   4  885.71   61.49
   2  -7   4  945.11   70.49
   2  -7   4  820.72   86.19
  -1   7  -4    8.90    7.10
  -1   7  -4   11.30   13.80
  -1   7  -4    3.10   19.50
  -1   7  -4   12.40    4.20
   1  -7   4    5.00   13.50
   1  -7   4   -3.50   26.60
   1  -7   4   11.70    7.60
   0   7  -4 1429.36   98.29
   0   7  -4 1520.25   96.69
   0   7  -4 1647.44   96.49
   0   7  -4 1268.67  105.19
   0   7  -4 1549.24   94.49
   0  -7   4 1427.46   98.79
   0  -7   4 1197.98  111.39
   0  -7   4 1463.85   96.39
   0  -7   4 1229.08  106.19
   1   7  -4  435.36   34.50
   1   7  -4  403.76   48.10
   1   7  -4  450.75   34.50
   1   7  -4  433.66   32.70
   1   7  -4  422.56   46.50
   1   7  -4  458.35   37.50
  -1  -7   4  340.57   49.90
  -1  -7   4  409.96   35.40
  -1  -7   4  365.66   45.60
   2   7  -4  309.57   29.00
   2   7  -4  318.07   25.30
   2   7  -4  262.27   23.20
   2   7  -4  341.37   28.70
   2   7  -4  354.36   40.80
  -2  -7   4  310.77   28.70
  -2  -7   4  258.17   41.40
  -2  -7   4  244.78   41.80
   3   7  -4  946.21   71.49
   3   7  -4  948.11   66.49
   3   7  -4 1013.20   68.29
  -3  -7   4  776.82   75.59
  -3  -7   4  726.43   73.09
  -3  -7   4  843.02   65.69
   4   7  -4   63.09   18.80
   4   7  -4   94.29   23.20
  -4  -7   4   96.69   28.40
  -4  -7   4   54.99   26.30
   5   7  -4  497.85   48.00
   5   7  -4  564.74   56.29
  -5  -7   4  319.37   60.69
  -5  -7   4  438.06   56.49
   6   7  -4   -2.20   21.90
   6   7  -4   -8.30   30.10
  -6  -7   4   22.40   32.20
  -7   7  -3   65.19   19.70
  -7   7  -3  101.79   21.10
   7  -7   3   37.00   42.60
   7  -7   3   63.99   28.00
  -6   7  -3  806.12   59.69
  -6   7  -3  743.73   61.49
   6  -7   3  772.62   63.49
   6  -7   3  810.32   82.59
  -5   7  -3   67.09   14.40
  -5   7  -3  100.39   15.10
  -5   7  -3   72.19   15.80
  -5   7  -3   78.79   12.70
   5  -7   3   74.59   11.10
   5  -7   3   67.89   16.00
   5  -7   3   82.99   27.00
  -4   7  -3 1088.29   74.09
  -4   7  -3 1026.60   69.89
  -4   7  -3  973.00   71.29
  -4   7  -3 1023.20   74.99
   4  -7   3 1039.70   73.09
   4  -7   3 1129.19   70.49
   4  -7   3 1090.99   86.79
  -3   7  -3  471.35   37.70
  -3   7  -3  488.05   36.70
  -3   7  -3  332.17   51.89
  -3   7  -3  479.75   34.20
  -3   7  -3  433.06   33.10
  -3   7  -3  444.16   47.60
   3  -7   3  503.45   46.80
   3  -7   3  494.55   34.20
   3  -7   3  465.35   35.50
  -2   7  -3  660.73   44.40
  -2   7  -3  501.25   55.49
  -2   7  -3  598.34   51.09
  -2   7  -3  636.94   42.80
   2  -7   3  672.93   44.30
   2  -7   3  563.64   67.09
   2  -7   3  709.33   53.59
   2  -7   3  591.84   44.70
  -1   7  -3  819.02   55.59
  -1   7  -3  641.54   65.29
  -1   7  -3  885.71   55.39
  -1   7  -3  762.72   60.29
  -1   7  -3  860.81   54.09
   1  -7   3  835.22   55.69
   1  -7   3  816.82   61.29
   1  -7   3  655.43   76.29
   0   7  -3  186.58   32.90
   0   7  -3  183.58   33.10
   0   7  -3  211.48   24.90
   0   7  -3  228.28   23.50
   0   7  -3  207.38   20.00
   0   7  -3  230.78   18.60
   0  -7   3  181.18   36.70
   0  -7   3  208.78   25.20
   1   7  -3  776.72   63.49
   1   7  -3  770.72   53.29
   1   7  -3  736.73   53.49
   1   7  -3  800.22   50.39
   1   7  -3  706.53   62.89
   1   7  -3  744.43   57.29
   1   7  -3  751.22   54.49
  -1  -7   3  590.84   66.29
   2   7  -3   95.49   17.30
   2   7  -3   72.59   12.40
   2   7  -3   40.70   22.70
   2   7  -3   87.99   15.80
   2   7  -3  113.09   17.10
   2   7  -3  114.19   22.90
  -2  -7   3  100.99   17.90
  -2  -7   3   63.49   23.90
  -2  -7   3   98.89   26.40
   3   7  -3  473.25   44.90
   3   7  -3  468.95   35.80
   3   7  -3  413.96   40.50
   3   7  -3  481.95   36.50
   3   7  -3  550.94   43.60
  -3  -7   3  414.76   49.80
   4   7  -3  122.99   22.40
   4   7  -3  185.08   28.50
   4   7  -3  158.78   23.90
  -4  -7   3  139.79   30.10
  -4  -7   3  139.49   30.50
   5   7  -3  378.66   41.60
   5   7  -3  394.66   50.49
  -5  -7   3  314.87   48.90
   6   7  -3  201.98   31.90
  -6  -7   3  223.28   49.80
  -7   7  -2   47.80   18.50
  -7   7  -2   64.59   18.50
   7  -7   2   79.69   42.50
   7  -7   2   72.39   26.10
  -6   7  -2  884.01   67.09
  -6   7  -2  889.41   69.39
   6  -7   2  943.31   71.69
   6  -7   2  984.00   88.49
  -5   7  -2  311.57   30.30
  -5   7  -2  313.17   30.00
   5  -7   2  327.67   50.69
   5  -7   2  325.37   32.40
  -4   7  -2  350.06   30.50
  -4   7  -2  345.57   25.80
  -4   7  -2  390.76   31.60
  -4   7  -2  358.66   29.70
   4  -7   2  362.96   25.80
   4  -7   2  380.36   31.90
   4  -7   2  385.66   45.60
  -3   7  -2 1504.25  102.09
  -3   7  -2 1400.16  106.99
  -3   7  -2 1615.74  101.49
  -3   7  -2 1375.46   99.59
  -3   7  -2 1537.95   98.19
   3  -7   2 1481.45  108.29
   3  -7   2 1579.54   97.89
   3  -7   2 1483.25  100.69
  -2   7  -2   89.69   12.90
  -2   7  -2   97.99   13.60
  -2   7  -2   85.19   11.40
  -2   7  -2   89.09   25.40
  -2   7  -2   77.89   18.00
   2  -7   2   93.89   18.10
   2  -7   2   72.79   11.90
   2  -7   2   93.79   31.90
  -1   7  -2 1867.11  122.89
  -1   7  -2 1891.41  122.49
  -1   7  -2 1868.31  127.59
  -1   7  -2 1902.11  127.99
  -1   7  -2 1969.00  124.79
   1  -7   2 1909.81  127.99
   1  -7   2 1671.13  140.69
   0   7  -2  112.79   19.80
   0   7  -2   76.19   11.70
   0   7  -2   97.39   16.70
   0   7  -2  107.79   19.20
   0   7  -2  106.69   23.20
   0   7  -2   79.59   12.70
   0  -7   2  132.19   20.90
   0  -7   2   82.69   27.20
   1   7  -2  964.20   69.29
   1   7  -2  897.91   76.19
   1   7  -2 1080.89   67.19
   1   7  -2 1013.50   76.29
   1   7  -2 1028.90   70.79
   1   7  -2 1063.29   70.39
   1   7  -2 1033.40   74.29
  -1  -7   2  872.91   80.69
   2   7  -2  856.91   70.69
   2   7  -2  940.91   65.09
   2   7  -2  929.81   66.19
   2   7  -2  950.60   61.59
   2   7  -2  904.61   64.49
  -2  -7   2  796.12   74.29
   3   7  -2  307.07   27.40
   3   7  -2  309.27   33.70
   3   7  -2  317.67   30.00
   3   7  -2  386.16   36.20
   3   7  -2  255.17   31.70
  -3  -7   2  300.47   40.70
   4   7  -2  371.66   34.20
   4   7  -2  418.66   44.20
   4   7  -2  364.76   37.60
   4   7  -2  390.66   35.60
   4   7  -2  335.97   34.60
  -4  -7   2  320.87   45.90
   5   7  -2   67.89   24.60
   5   7  -2   75.69   21.50
  -5  -7   2   22.60   21.90
   6   7  -2  329.77   46.20
   6   7  -2  416.76   62.19
  -6  -7   2  227.08   51.89
  -7   7  -1  392.56   41.90
  -7   7  -1  401.26   39.20
   7  -7   1  431.56   72.89
   7  -7   1  382.86   48.80
  -6   7  -1  146.79   23.20
  -6   7  -1  121.89   20.10
   6  -7   1  123.29   22.90
   6  -7   1  112.49   33.80
  -5   7  -1 1160.98   90.49
  -5   7  -1 1311.77   92.29
  -5   7  -1 1415.46   91.69
   5  -7   1 1344.17  104.49
   5  -7   1 1358.46   93.39
  -4   7  -1    7.60    8.10
  -4   7  -1    0.70    7.10
  -4   7  -1    9.00    6.60
   4  -7   1    7.10   10.30
   4  -7   1    0.60   18.20
  -3   7  -1  895.51   73.99
  -3   7  -1  973.10   67.59
  -3   7  -1  912.51   67.59
  -3   7  -1  953.70   63.89
  -3   7  -1  968.90   68.19
  -3   7  -1 1087.29   65.49
   3  -7   1  969.50   68.59
   3  -7   1 1027.90   75.59
  -2   7  -1  401.36   33.20
  -2   7  -1  471.25   33.70
  -2   7  -1  435.56   32.20
  -2   7  -1  404.16   30.00
  -2   7  -1  412.46   38.70
   2  -7   1  397.46   39.20
   2  -7   1  364.96   53.09
   2  -7   1  417.76   34.10
  -1   7  -1 1219.28   82.49
  -1   7  -1 1166.68   78.79
  -1   7  -1 1222.18   82.99
  -1   7  -1 1152.48   79.69
  -1   7  -1 1170.78   84.09
   1  -7   1 1205.48   84.39
   1  -7   1 1237.28   83.09
   1  -7   1 1081.89   96.69
   0   7  -1 1481.15   97.69
   0   7  -1 1449.55  100.79
   0   7  -1 1590.14   96.79
   0   7  -1 1470.05  102.09
   0   7  -1 1450.35  101.79
   0   7  -1 1502.95   98.39
   0  -7   1 1256.97  110.69
   1   7  -1  142.19   14.20
   1   7  -1  132.19   17.00
   1   7  -1  124.89   21.30
   1   7  -1   99.29   15.90
   1   7  -1  155.18   22.80
   1   7  -1  113.49   23.40
   1   7  -1  140.89   24.70
  -1  -7   1  116.59   26.80
   2   7  -1  741.63   63.49
   2   7  -1  800.92   59.39
   2   7  -1  770.92   58.99
   2   7  -1  864.21   61.69
   2   7  -1  831.72   67.39
   2   7  -1  912.11   57.39
  -2  -7   1  704.23   67.99
   3   7  -1   -0.20   13.50
   3   7  -1  -27.50   13.10
   3   7  -1   -0.10   14.30
   3   7  -1   -5.00   10.20
   3   7  -1   -7.00   11.40
  -3  -7   1    2.50   16.60
   4   7  -1  601.84   54.59
   4   7  -1  534.15   46.90
   4   7  -1  552.84   47.80
   4   7  -1  568.34   48.00
  -4  -7   1  465.15   53.39
   5   7  -1  255.17   41.30
   5   7  -1  261.17   37.10
  -5  -7   1  206.08   41.50
  -7   7   0  447.16   43.20
  -7   7   0  465.55   43.80
   7  -7   0  486.55   52.59
   7  -7   0  483.05   70.79
  -6   7   0  102.79   19.40
  -6   7   0  128.99   22.20
   6  -7   0  115.29   34.90
   6  -7   0  111.19   22.90
  -5   7   0  947.51   66.69
  -5   7   0  922.61   67.09
  -5   7   0  837.52   67.39
   5  -7   0  996.60   69.79
   5  -7   0  923.41   80.29
  -4   7   0  472.65   38.00
  -4   7   0  514.25   38.40
  -4   7   0  453.95   39.20
   4  -7   0  487.35   49.00
   4  -7   0  522.25   41.30
  -3   7   0  361.66   31.10
  -3   7   0  369.86   29.10
  -3   7   0  337.67   37.90
   3  -7   0  347.27   31.50
   3  -7   0  377.46   38.00
  -2   7   0 1211.38   92.49
  -2   7   0 1240.58   85.29
  -2   7   0 1328.57   90.19
  -2   7   0 1314.47   87.69
  -2   7   0 1363.76   86.99
   2  -7   0 1265.67  102.09
   2  -7   0 1273.77   90.29
   2  -7   0 1433.26   93.79
  -1   7   0   48.80    8.30
  -1   7   0   71.79   15.40
  -1   7   0   50.29    9.60
  -1   7   0   52.09   11.40
  -1   7   0   66.89   13.60
   1  -7   0   57.69   16.00
   1  -7   0   51.59   28.00
   1  -7   0   62.89   14.30
   0   7   0 2327.97  138.39
   0   7   0 2151.08  138.69
   0   7   0 2215.38  141.89
   0   7   0 2210.68  142.59
   0   7   0 2115.09  137.89
   0   7   0 2236.18  140.29
   0   7   0 2046.20  143.49
   0   7   0 1755.22  143.69
   0  -7   0 1891.61  149.79
   1   7   0  269.27   26.30
   1   7   0  281.57   23.80
   1   7   0  302.47   30.90
   1   7   0  250.77   33.50
   1   7   0  326.87   30.20
   1   7   0  284.87   25.00
   1   7   0  278.37   33.10
   1   7   0  291.37   22.00
  -1  -7   0  199.28   38.20
   2   7   0  322.47   45.60
   2   7   0  451.15   33.60
   2   7   0  386.16   38.70
   2   7   0  432.96   37.40
   2   7   0  452.35   37.60
   2   7   0  356.16   28.20
  -2  -7   0  366.66   44.30
  -2  -7   0  371.96   45.60
   3   7   0  274.67   21.60
   3   7   0  315.87   30.40
   3   7   0  298.67   37.40
   3   7   0  285.97   26.90
   3   7   0  299.77   31.50
  -3  -7   0  255.07   38.20
   4   7   0  248.98   32.00
   4   7   0  222.48   38.80
   4   7   0  220.68   34.30
  -4  -7   0  188.78   20.40
  -4  -7   0  222.58   37.10
   5   7   0  407.96   51.49
   5   7   0  374.26   44.80
   5   7   0  500.95   55.89
  -5  -7   0  361.96   48.90
  -8   7   1  235.08   36.80
  -8   7   1  193.48   37.00
   8  -7  -1  196.08   37.70
   8  -7  -1  226.98   53.49
  -7   7   1  180.18   28.20
  -7   7   1  150.18   25.30
   7  -7  -1  135.79   39.80
   7  -7  -1  155.08   29.90
  -6   7   1  858.21   63.69
  -6   7   1  832.32   63.09
   6  -7  -1  806.12   68.79
   6  -7  -1  844.22   78.19
  -5   7   1  104.19   18.80
  -5   7   1   79.09   17.30
  -5   7   1  112.69   16.70
   5  -7  -1  182.78   33.40
   5  -7  -1  107.79   19.30
  -4   7   1 1224.78   92.99
  -4   7   1 1385.16   91.89
  -4   7   1 1376.86   91.69
   4  -7  -1 1355.26   94.69
   4  -7  -1 1362.06  100.19
  -3   7   1    1.30    5.90
  -3   7   1    2.90   15.10
  -3   7   1    6.30    9.50
  -3   7   1    4.20    5.30
   3  -7  -1    8.50   10.10
   3  -7  -1   -2.80   12.60
  -2   7   1 1035.70   69.79
  -2   7   1  938.61   74.79
  -2   7   1  987.60   73.39
  -2   7   1 1025.20   67.49
  -2   7   1 1012.50   68.09
   2  -7  -1 1034.50   73.99
   2  -7  -1  998.80   82.79
   2  -7  -1 1122.99   76.49
  -1   7   1 1022.70   68.89
  -1   7   1 1064.29   69.99
  -1   7   1 1076.59   69.09
  -1   7   1 1027.90   74.39
  -1   7   1 1042.80   74.99
   1  -7  -1  917.21   72.39
   1  -7  -1  974.90   74.29
   1  -7  -1  978.80   83.09
   0   7   1 1069.69   74.29
   0   7   1 1029.20   70.79
   0   7   1 1093.39   69.19
   0   7   1  999.50   67.69
   0   7   1 1003.80   75.19
   0   7   1 1036.00   71.19
   0  -7  -1  921.91   81.29
   0  -7  -1  874.21   73.69
   1   7   1  962.50   75.89
   1   7   1  992.70   65.29
   1   7   1 1044.60   70.99
   1   7   1  952.80   70.89
   1   7   1  837.42   71.79
   1   7   1 1076.09   72.69
   1   7   1 1113.69   68.39
  -1  -7  -1  853.61   73.99
  -1  -7  -1  909.51   77.39
   2   7   1   22.50   12.90
   2   7   1    6.40   14.30
   2   7   1   12.40   10.80
   2   7   1   14.70    5.20
   2   7   1   19.70   15.20
  -2  -7  -1   24.20   18.60
  -2  -7  -1   15.00   18.90
   3   7   1  664.93   55.69
   3   7   1  666.23   50.99
  -3  -7  -1  578.04   55.59
  -3  -7  -1  559.44   43.70
  -3  -7  -1  551.84   62.29
   4   7   1   70.19   24.00
   4   7   1   16.70   21.30
  -4  -7  -1   97.99   31.60
  -4  -7  -1   23.10   11.40
  -4  -7  -1   28.80   20.50
   5   7   1  525.25   61.69
   5   7   1  512.25   51.19
   5   7   1  499.35   63.59
  -5  -7  -1  435.76   54.09
  -8   7   2  297.37   41.70
  -8   7   2  265.07   41.90
   8  -7  -2  334.57   58.79
   8  -7  -2  298.37   54.29
  -7   7   2   -3.10   16.20
  -7   7   2  -12.30   10.00
   7  -7  -2   40.30   34.30
   7  -7  -2   -5.50   21.90
  -6   7   2 1148.59   81.59
  -6   7   2 1132.09   81.29
   6  -7  -2 1194.58   88.69
   6  -7  -2  995.30   92.49
  -5   7   2  255.67   24.30
  -5   7   2  253.57   26.80
   5  -7  -2  248.58   31.70
   5  -7  -2  210.08   34.60
  -4   7   2  712.53   51.69
  -4   7   2  698.03   50.39
  -4   7   2  631.24   54.39
   4  -7  -2  702.13   60.59
   4  -7  -2  732.03   55.39
  -3   7   2  605.54   55.79
  -3   7   2  661.83   44.60
  -3   7   2  618.14   52.49
  -3   7   2  660.93   44.60
  -3   7   2  711.73   48.10
  -3   7   2  712.53   49.30
   3  -7  -2  693.43   53.79
   3  -7  -2  752.62   57.39
   3  -7  -2  682.93   48.70
  -2   7   2  190.18   27.10
  -2   7   2  172.18   16.70
  -2   7   2  148.59   23.30
  -2   7   2  144.49   14.50
   2  -7  -2  174.48   28.60
   2  -7  -2  122.49   20.20
   2  -7  -2  166.38   23.90
  -1   7   2 1660.63  107.29
  -1   7   2 1467.85  106.19
  -1   7   2 1508.75  100.79
  -1   7   2 1565.84  100.39
  -1   7   2 1576.64  100.99
   1  -7  -2 1359.16  103.29
   1  -7  -2 1564.74  107.39
   1  -7  -2 1379.16  110.69
   0   7   2   99.09   19.10
   0   7   2  128.19   22.00
   0   7   2  102.49   12.20
   0   7   2  129.09   17.60
   0   7   2  126.59   17.60
   0   7   2  131.99   15.80
   0  -7  -2  125.99   21.10
   0  -7  -2  138.49   29.90
   1   7   2 1793.02  112.79
   1   7   2 1747.33  114.29
   1   7   2 1546.55  117.99
   1   7   2 1596.74  110.79
   1   7   2 1714.73  105.89
   1   7   2 1350.16  110.59
   1   7   2 1801.72  109.79
  -1  -7  -2 1457.75  116.29
  -1  -7  -2 1518.85  114.69
   2   7   2  353.66   35.90
   2   7   2  335.47   31.00
   2   7   2  306.57   22.80
   2   7   2  290.67   29.50
  -2  -7  -2  284.07   42.30
  -2  -7  -2  285.27   26.10
  -2  -7  -2  256.37   39.50
   3   7   2  346.87   41.30
   3   7   2  340.87   38.90
  -3  -7  -2  288.37   48.60
  -3  -7  -2  309.57   40.60
   4   7   2  316.47   45.50
   4   7   2  318.97   42.50
  -4  -7  -2  179.38   41.90
  -4  -7  -2  206.98   37.00
   5   7   2   83.19   37.00
   5   7   2  136.09   35.50
  -5  -7  -2   -7.40   38.50
  -5  -7  -2   81.49   25.60
  -8   7   3  267.37   41.70
  -8   7   3  268.07   40.70
   8  -7  -3  251.47   54.49
   8  -7  -3  365.36   55.69
  -7   7   3  177.88   27.70
  -7   7   3  163.78   24.70
   7  -7  -3  221.38   43.30
   7  -7  -3  175.38   32.50
  -6   7   3  341.57   32.30
  -6   7   3  327.47   34.60
   6  -7  -3  370.16   43.70
   6  -7  -3  362.26   52.99
  -5   7   3 1569.04  105.09
  -5   7   3 1539.65  106.19
   5  -7  -3 1544.85  110.79
   5  -7  -3 1477.25  114.99
  -4   7   3   14.60    9.90
  -4   7   3   20.20    7.90
  -4   7   3   32.50   15.90
   4  -7  -3   15.50   18.80
   4  -7  -3   25.50   14.20
  -3   7   3  830.52   69.59
  -3   7   3  946.21   62.49
  -3   7   3  933.71   60.19
  -3   7   3  799.12   57.79
  -3   7   3  881.41   66.69
   3  -7  -3  844.32   61.09
   3  -7  -3  892.31   66.99
  -2   7   3  102.39   13.50
  -2   7   3   93.99   10.90
  -2   7   3  111.89   14.20
  -2   7   3  129.69   21.20
  -2   7   3  103.09   12.30
  -2   7   3   89.19   19.80
   2  -7  -3   98.49   19.50
   2  -7  -3   98.19   16.90
   2  -7  -3   90.69   13.10
  -1   7   3 1016.00   76.99
  -1   7   3 1023.70   77.19
  -1   7   3 1066.49   70.89
  -1   7   3 1063.59   69.79
  -1   7   3 1033.50   69.99
   1  -7  -3 1032.70   77.89
   1  -7  -3  963.80   73.19
   1  -7  -3  960.00   78.79
   0   7   3  495.55   34.90
   0   7   3  484.65   37.80
   0   7   3  428.16   44.30
   0   7   3  515.95   39.90
   0   7   3  483.65   37.80
   0   7   3  448.06   46.40
   0  -7  -3  421.76   50.79
   0  -7  -3  497.65   42.80
   1   7   3  334.97   24.00
   1   7   3  351.46   30.90
   1   7   3  312.97   32.30
  -1  -7  -3  291.37   37.40
  -1  -7  -3  305.17   27.00
  -1  -7  -3  260.17   41.50
   2   7   3  823.72   63.69
   2   7   3  894.41   66.49
  -2  -7  -3  807.32   71.69
  -2  -7  -3  728.83   68.49
   3   7   3   55.09   19.90
   3   7   3   34.50   22.70
  -3  -7  -3  100.79   29.10
  -3  -7  -3   29.10   20.60
   4   7   3  549.25   58.19
   4   7   3  467.45   62.99
  -4  -7  -3  420.16   67.49
  -4  -7  -3  500.75   53.29
  -8   7   4   68.69   21.60
  -8   7   4   32.10   24.60
   8  -7  -4   48.20   32.40
   8  -7  -4   47.20   43.70
  -7   7   4  460.75   48.40
  -7   7   4  535.45   45.40
   7  -7  -4  528.55   58.79
   7  -7  -4  483.85   67.89
  -6   7   4    4.50    9.20
  -6   7   4    7.30   13.40
   6  -7  -4   -2.70   20.10
   6  -7  -4    7.20   25.70
  -5   7   4 1183.08   78.39
  -5   7   4 1074.49   79.79
   5  -7  -4 1230.98   87.79
   5  -7  -4  925.01   88.49
  -4   7   4  412.16   35.50
  -4   7   4  444.76   32.90
   4  -7  -4  380.36   41.20
  -3   7   4  323.67   39.40
  -3   7   4  398.76   32.00
  -3   7   4  409.66   28.30
  -3   7   4  389.26   30.50
  -3   7   4  325.27   42.10
   3  -7  -4  379.76   39.00
   3  -7  -4  380.46   30.80
   3  -7  -4  337.27   30.60
  -2   7   4  707.23   48.60
  -2   7   4  661.03   46.80
  -2   7   4  641.94   48.10
  -2   7   4  609.74   55.29
  -2   7   4  607.64   57.59
  -2   7   4  679.73   45.00
   2  -7  -4  630.94   47.20
   2  -7  -4  723.73   56.79
   2  -7  -4  680.33   49.80
  -1   7   4  173.38   18.10
  -1   7   4  128.99   26.30
  -1   7   4  155.38   19.10
  -1   7   4  117.29   22.10
  -1   7   4  166.88   16.80
   1  -7  -4  143.99   23.50
   1  -7  -4  140.19   15.70
   1  -7  -4  144.19   24.90
   1  -7  -4  143.59   24.60
   0   7   4 1759.22  116.49
   0   7   4 1808.82  114.49
   0   7   4 1570.54  113.19
   0   7   4 1773.52  111.29
   0  -7  -4 1390.36  118.59
   0  -7  -4 1773.02  118.19
   1   7   4   28.10   15.30
   1   7   4   24.30    7.60
   1   7   4   48.50   15.00
  -1  -7  -4   15.50   21.60
  -1  -7  -4    4.70   17.40
   2   7   4  445.76   44.70
   2   7   4  492.35   45.50
  -2  -7  -4  383.56   48.80
  -2  -7  -4  415.96   50.19
   3   7   4   71.39   23.10
   3   7   4   81.29   27.40
  -3  -7  -4   71.39   28.70
  -3  -7  -4   81.99   24.50
   4   7   4  156.98   39.60
   4   7   4  147.19   32.30
  -4  -7  -4  130.39   30.10
  -4  -7  -4  144.49   38.60
  -8   7   5   42.10   22.90
  -8   7   5   40.50   25.40
   8  -7  -5   44.70   45.70
  -7   7   5  363.16   42.80
  -7   7   5  425.16   38.90
   7  -7  -5  371.86   53.29
   7  -7  -5  421.36   64.99
  -6   7   5  385.66   38.70
  -6   7   5  403.26   35.20
   6  -7  -5  437.26   48.60
   6  -7  -5  305.47   54.79
  -5   7   5  262.57   29.40
  -5   7   5  283.77   25.60
   5  -7  -5  189.48   36.90
   5  -7  -5  292.67   43.50
  -4   7   5 1596.14  109.59
  -4   7   5 1774.42  112.29
  -4   7   5 1698.83  115.49
  -4   7   5 1615.14  112.69
   4  -7  -5 1667.93  111.09
   4  -7  -5 1757.52  121.89
  -3   7   5  153.38   13.30
  -3   7   5  119.49   18.30
  -3   7   5  122.39   17.50
  -3   7   5   96.19   15.40
   3  -7  -5  119.19   23.90
   3  -7  -5  119.99   17.70
  -2   7   5  718.93   51.69
  -2   7   5  727.13   51.49
  -2   7   5  673.93   46.70
  -2   7   5  674.83   49.70
   2  -7  -5  722.53   61.29
   2  -7  -5  690.43   50.09
   2  -7  -5  701.53   52.49
  -1   7   5  264.57   24.40
  -1   7   5  290.97   25.90
  -1   7   5  274.17   27.50
   1  -7  -5  268.27   30.40
   1  -7  -5  254.27   38.90
   1  -7  -5  277.27   23.40
   0   7   5 1167.98   78.19
   0   7   5 1099.29   73.79
   0   7   5 1100.69   79.69
   0  -7  -5 1047.00   80.29
   0  -7  -5  975.90   72.09
   1   7   5  531.45   45.20
   1   7   5  481.75   35.70
   1   7   5  478.25   44.80
  -1  -7  -5  475.85   49.90
  -1  -7  -5  368.06   48.70
   2   7   5  194.18   30.20
   2   7   5  188.68   32.60
  -2  -7  -5  136.19   31.50
  -2  -7  -5  178.18   31.70
   3   7   5  637.14   63.39
   3   7   5  730.73   63.79
  -3  -7  -5  566.44   59.09
  -3  -7  -5  481.35   66.09
   4   7   5   11.90   35.80
   4   7   5   83.29   31.50
  -4  -7  -5   46.60   25.20
  -4  -7  -5  -15.20   34.90
  -7   7   6   50.29   22.40
  -7   7   6   49.70   15.10
   7  -7  -6   79.69   28.40
   7  -7  -6  -22.50   35.50
  -6   7   6  527.95   42.20
  -6   7   6  431.36   46.10
  -6   7   6  570.54   43.50
   6  -7  -6  518.15   56.49
  -5   7   6   22.30   10.10
  -5   7   6   20.40   10.80
  -5   7   6   19.60    6.20
  -5   7   6   23.90   14.60
   5  -7  -6   21.30   10.60
   5  -7  -6   13.50   21.40
  -4   7   6 1291.77   83.19
  -4   7   6 1180.48   82.19
  -4   7   6 1228.88   87.99
   4  -7  -6 1264.77   95.79
   4  -7  -6 1192.68   83.09
  -3   7   6  458.05   38.60
  -3   7   6  444.06   37.20
  -3   7   6  461.95   32.00
  -3   7   6  401.56   34.40
   3  -7  -6  469.05   49.10
   3  -7  -6  459.15   36.70
  -2   7   6  207.28   21.40
  -2   7   6  196.98   22.40
  -2   7   6  185.48   23.40
   2  -7  -6  159.88   20.20
   2  -7  -6  237.28   38.40
   2  -7  -6  216.08   24.80
  -1   7   6  930.11   66.09
  -1   7   6  883.71   67.79
  -1   7   6  847.22   66.29
   1  -7  -6  923.51   64.19
   1  -7  -6  982.50   70.09
   1  -7  -6 1024.80   81.89
   0   7   6   98.49   18.10
   0   7   6  135.19   22.40
   0   7   6  120.39   21.40
   0  -7  -6  101.29   15.20
   0  -7  -6  131.29   25.80
   1   7   6  935.11   73.39
   1   7   6  920.01   72.59
   1   7   6  908.51   63.89
  -1  -7  -6  895.31   75.59
   2   7   6   -4.80   19.80
   2   7   6    5.90   18.00
  -2  -7  -6   26.30   23.10
   3   7   6  316.87   53.99
   3   7   6  272.47   48.20
  -3  -7  -6  285.67   46.30
  -7   7   7   53.99   17.10
  -7   7   7   71.69   23.50
  -7   7   7   52.69   15.80
   7  -7  -7   38.60   29.90
  -6   7   7  291.47   29.90
  -6   7   7  288.27   37.10
  -6   7   7  298.07   30.70
   6  -7  -7  277.97   48.20
  -5   7   7  331.57   32.30
  -5   7   7  345.17   36.90
  -5   7   7  343.47   31.50
   5  -7  -7  376.36   30.70
   5  -7  -7  348.97   45.90
  -4   7   7  120.39   18.70
  -4   7   7  175.48   25.90
  -4   7   7  170.68   21.70
   4  -7  -7  157.48   27.70
  -3   7   7  645.84   49.90
  -3   7   7  531.55   47.00
  -3   7   7  664.33   52.09
   3  -7  -7  689.03   62.19
   3  -7  -7  719.93   50.39
  -2   7   7    1.00   12.60
  -2   7   7   18.60   12.50
  -2   7   7   33.10   14.60
   2  -7  -7   23.30   13.40
   2  -7  -7   50.19   23.50
  -1   7   7  968.50   69.19
  -1   7   7  925.01   66.69
   1  -7  -7  935.41   81.49
   1  -7  -7  820.22   63.29
   1  -7  -7  932.31   70.89
   0   7   7  235.98   34.00
   0   7   7  246.68   26.70
   0   7   7  234.28   32.40
   0  -7  -7  277.27   38.60
   0  -7  -7  233.68   22.20
   1   7   7  462.85   38.80
   1   7   7  458.15   48.30
   1   7   7  479.55   48.10
  -1  -7  -7  505.85   52.39
   2   7   7  462.45   50.39
   2   7   7  362.36   51.09
  -2  -7  -7  364.56   54.69
   3   7   7   51.49   34.50
   3   7   7   57.49   28.90
  -3  -7  -7    1.30   33.20
  -7   7   8  439.86   54.69
  -7   7   8  515.95   45.80
  -7   7   8  563.14   49.70
   7  -7  -8  612.34   68.29
  -6   7   8   60.09   16.50
  -6   7   8   96.19   18.70
  -6   7   8   61.99   23.70
   6  -7  -8   77.19   30.20
  -5   7   8  809.92   67.19
  -5   7   8  806.02   62.29
   5  -7  -8  885.21   61.09
   5  -7  -8  825.72   75.19
  -4   7   8  161.08   23.80
  -4   7   8  136.09   18.50
  -4   7   8  172.48   26.40
   4  -7  -8  231.68   41.20
  -3   7   8  629.64   49.10
  -3   7   8  486.75   47.20
  -3   7   8  633.64   52.09
   3  -7  -8  681.73   50.29
   3  -7  -8  610.04   60.69
  -2   7   8  138.69   26.80
  -2   7   8  167.68   25.00
   2  -7  -8  167.78   35.60
   2  -7  -8  224.98   32.50
  -1   7   8  354.66   36.60
  -1   7   8  362.96   39.00
   1  -7  -8  374.06   53.89
   1  -7  -8  431.36   42.80
   1  -7  -8  351.46   32.40
   0   7   8  782.52   67.99
   0   7   8  827.82   62.89
   0   7   8  840.12   68.79
   0  -7  -8  868.01   70.79
   1   7   8   -9.20   18.00
   1   7   8    8.70   21.20
  -1  -7  -8   53.69   24.50
   2   7   8  660.23   64.29
   2   7   8  518.95   59.99
  -2  -7  -8  524.95   65.09
  -7   7   9  262.07   31.60
  -7   7   9  225.58   34.70
   7  -7  -9  151.78   40.20
  -6   7   9   44.20   16.90
  -6   7   9   36.20   25.50
   6  -7  -9  126.49   34.70
  -5   7   9  213.08   37.00
  -5   7   9  219.58   30.60
   5  -7  -9  327.77   32.30
   5  -7  -9  283.47   43.50
  -4   7   9  390.36   43.40
  -4   7   9  404.26   39.50
   4  -7  -9  476.15   41.40
   4  -7  -9  421.36   56.99
  -3   7   9  127.99   25.30
  -3   7   9  160.68   24.20
   3  -7  -9  152.38   34.20
  -2   7   9  591.94   55.69
  -2   7   9  653.93   58.19
   2  -7  -9  752.62   74.09
   2  -7  -9  785.32   60.69
  -1   7   9   -7.50   15.80
  -1   7   9    0.30   17.40
   1  -7  -9   36.30   19.40
   1  -7  -9   33.90   31.30
   0   7   9  641.24   54.49
   0   7   9  590.04   58.99
   0   7   9  601.64   60.99
   0  -7  -9  716.83   61.49
   1   7   9  157.48   28.80
   1   7   9   86.59   26.00
  -6   7  10  296.67   44.90
  -6   7  10  366.16   37.80
   6  -7 -10  367.86   65.59
  -5   7  10    7.50   16.00
  -5   7  10    0.40   21.50
   5  -7 -10   35.60   20.70
   5  -7 -10    8.10   28.90
  -4   7  10  650.53   58.49
  -4   7  10  602.34   51.99
   4  -7 -10  618.44   72.19
  -3   7  10   52.59   19.90
  -3   7  10   61.49   22.50
   3  -7 -10   71.79   20.80
   3  -7 -10   71.49   32.80
  -2   7  10  338.77   43.00
  -2   7  10  262.97   39.90
   2  -7 -10  445.36   48.00
   2  -7 -10  363.66   60.19
  -1   7  10  231.88   40.70
  -1   7  10  240.08   39.40
   1  -7 -10  264.17   42.00
   1  -7 -10  277.37   48.20
   0   7  10  254.27   38.50
   0   7  10  176.98   34.40
   0  -7 -10  274.17   46.30
  -5   7  11   88.19   21.40
  -5   7  11   95.99   28.30
   5  -7 -11   78.89   35.70
   5  -7 -11  146.69   35.60
  -4   7  11  145.39   26.60
  -4   7  11  176.18   32.40
   4  -7 -11  165.38   37.00
  -3   7  11  400.36   52.19
  -3   7  11  484.65   49.50
   3  -7 -11  510.55   70.19
  -2   7  11   54.89   25.50
  -2   7  11    0.80   20.70
   2  -7 -11   99.99   25.70
   2  -7 -11   43.40   36.50
  -1   7  11  494.55   57.89
  -1   7  11  641.64   60.69
   1  -7 -11  587.54   58.69
   1  -7 -11  413.46   77.79
   0   8 -12  348.17   50.29
   0  -8  12  359.96   64.29
   0  -8  12  260.37   77.29
   1   8 -12    7.20   25.80
  -1  -8  12   27.20   55.39
  -1  -8  12   64.69   51.49
   2   8 -12  166.48   34.90
  -2  -8  12   80.49   56.69
  -2  -8  12  183.98   58.79
  -2   8 -11  470.65   54.79
  -2   8 -11  513.95   49.30
   2  -8  11  585.74   76.09
  -1   8 -11  112.39   28.60
   1  -8  11   66.59   47.80
   1  -8  11   95.99   57.19
   0   8 -11  169.28   32.90
   0  -8  11  154.78   58.99
   0  -8  11  295.37   44.50
   0  -8  11  203.38   52.29
   1   8 -11  174.58   31.60
  -1  -8  11  184.08   53.39
   2   8 -11  -21.20   22.00
  -2  -8  11   74.29   42.10
  -2  -8  11   -5.40   40.10
   3   8 -11  303.57   39.30
  -3  -8  11  241.78   52.39
  -3  -8  11  163.98   54.69
  -3   8 -10  341.37   47.10
  -3   8 -10  284.17   38.00
   3  -8  10  291.97   52.59
  -2   8 -10   94.79   19.60
  -2   8 -10   72.69   24.40
   2  -8  10  160.98   38.70
  -1   8 -10  600.14   58.09
   1  -8  10  683.63   68.89
   1  -8  10  533.75   80.59
   0   8 -10  -19.60   19.20
   0  -8  10   14.40   40.60
   0  -8  10   23.80   41.70
   0  -8  10    1.40   27.40
   1   8 -10  553.04   53.69
  -1  -8  10  418.66   74.89
  -1  -8  10  677.43   58.39
   2   8 -10   10.70   20.50
  -2  -8  10  -13.50   36.70
  -2  -8  10   15.30   36.40
   3   8 -10  181.68   30.10
  -3  -8  10   93.39   44.00
  -3  -8  10  148.49   48.10
   4   8 -10  135.59   29.60
  -4  -8  10  111.39   50.29
  -4  -8  10  208.18   55.99
  -4   8  -9   13.50   19.70
  -4   8  -9   55.29   22.20
   4  -8   9  118.59   40.90
  -3   8  -9  643.04   56.69
  -3   8  -9  564.24   51.79
   3  -8   9  611.74   73.59
  -2   8  -9    8.80    9.90
  -2   8  -9   -1.70   19.50
   2  -8   9   11.90   40.20
   2  -8   9  -48.40   29.00
  -1   8  -9  538.75   51.79
   1  -8   9  507.05   80.29
   1  -8   9  549.05   75.39
   1  -8   9  644.54   64.99
   0   8  -9  398.76   46.80
   0   8  -9  480.25   46.00
   0  -8   9  565.84   52.79
   0  -8   9  340.87   64.39
   0  -8   9  438.56   65.59
   1   8  -9  155.58   26.00
  -1  -8   9  166.48   27.10
  -1  -8   9  139.99   37.70
   2   8  -9  253.97   36.70
   2   8  -9  267.67   27.20
  -2  -8   9  232.38   46.70
   3   8  -9   24.00   19.90
   3   8  -9   19.10   16.60
  -3  -8   9    2.10   32.80
  -3  -8   9   72.59   42.00
   4   8  -9  583.34   57.79
   4   8  -9  586.34   58.09
  -4  -8   9  500.85   84.49
  -4   8  -8  106.59   22.20
  -4   8  -8  138.69   24.40
   4  -8   8  126.39   38.80
  -3   8  -8  348.27   41.80
  -3   8  -8  395.46   38.00
   3  -8   8  399.46   59.89
  -2   8  -8  389.96   40.10
   2  -8   8  260.07   56.79
  -1   8  -8  165.98   25.90
   1  -8   8  147.59   39.30
   1  -8   8  128.99   43.00
   1  -8   8  212.18   32.40
   0   8  -8  719.03   57.19
   0   8  -8  721.43   57.69
   0  -8   8  746.93   60.59
   0  -8   8  545.65   73.29
   1   8  -8    7.20   13.70
   1   8  -8   15.30   14.60
   1   8  -8    7.30    9.10
   1   8  -8    3.40   10.50
  -1  -8   8   14.90   18.70
  -1  -8   8   31.90   31.00
  -1  -8   8  -17.30   28.10
   2   8  -8  413.76   41.50
   2   8  -8  404.56   33.70
  -2  -8   8  286.37   52.79
   3   8  -8   90.89   18.70
   3   8  -8   90.49   22.90
  -3  -8   8   75.29   38.30
  -3  -8   8   35.10   29.70
   4   8  -8  256.67   42.10
   4   8  -8  228.38   32.90
  -4  -8   8  165.58   46.70
  -4  -8   8  127.59   40.10
   5   8  -8  193.08   34.20
   5   8  -8  233.38   38.60
  -5  -8   8  137.39   51.59
  -5  -8   8  133.89   45.40
  -5   8  -7  191.88   32.60
  -5   8  -7  231.68   34.50
   5  -8   7  122.99   39.50
  -4   8  -7  449.06   43.90
  -4   8  -7  512.65   45.60
  -4   8  -7  525.25   44.60
   4  -8   7  562.34   66.49
  -3   8  -7   15.40   10.60
  -3   8  -7   -7.80   13.40
   3  -8   7   18.70   28.40
  -2   8  -7 1108.89   80.49
   2  -8   7 1108.79   91.89
  -1   8  -7   74.79   16.70
  -1   8  -7   65.59   23.20
   1  -8   7   74.69   23.30
   1  -8   7   41.90   34.40
   0   8  -7  617.14   49.99
   0   8  -7  687.33   51.69
   0  -8   7  593.84   52.69
   0  -8   7  487.75   66.09
   1   8  -7  303.67   24.70
   1   8  -7  299.47   34.00
   1   8  -7  278.87   28.60
   1   8  -7  334.47   31.20
  -1  -8   7  299.87   33.70
  -1  -8   7  209.18   43.70
   2   8  -7  127.69   20.80
   2   8  -7  109.99   19.70
  -2  -8   7  114.49   17.00
  -2  -8   7   97.59   36.20
  -2  -8   7   92.19   31.10
   3   8  -7  452.65   40.20
  -3  -8   7  349.37   35.80
  -3  -8   7  258.27   49.50
  -3  -8   7  267.57   52.09
   4   8  -7   22.60   22.00
   4   8  -7   -3.30   18.20
  -4  -8   7   76.49   37.10
  -4  -8   7   30.20   27.80
   5   8  -7  259.37   41.90
   5   8  -7  348.67   54.49
  -5  -8   7  208.88   54.79
  -5  -8   7  164.88   51.09
  -5   8  -6   34.70   17.70
  -5   8  -6   28.80   16.10
   5  -8   6   26.80   36.40
  -4   8  -6  474.65   37.10
  -4   8  -6  412.86   39.10
  -4   8  -6  383.26   38.60
   4  -8   6  379.96   56.89
  -3   8  -6  341.57   31.10
  -3   8  -6  303.17   32.30
   3  -8   6  426.16   50.59
   3  -8   6  310.97   31.00
  -2   8  -6  508.75   41.20
   2  -8   6  424.06   69.39
   2  -8   6  490.75   40.20
   2  -8   6  497.55   53.79
  -1   8  -6  557.14   52.29
  -1   8  -6  599.04   45.90
   1  -8   6  561.94   44.80
   1  -8   6  579.84   53.09
   0   8  -6   91.79   15.70
   0   8  -6   80.29   18.60
   0  -8   6  122.29   21.50
   0  -8   6   61.59   32.40
   0  -8   6   75.69   32.50
   1   8  -6 1215.18   82.49
   1   8  -6 1210.58   77.79
   1   8  -6 1223.88   80.49
  -1  -8   6  927.21   95.69
  -1  -8   6 1061.59   80.59
   2   8  -6   39.60   14.90
   2   8  -6   23.70   10.30
   2   8  -6   19.10   11.30
  -2  -8   6   32.20   12.60
  -2  -8   6   23.60   25.30
  -2  -8   6   36.50   31.80
   3   8  -6  567.54   46.20
   3   8  -6  496.45   45.10
  -3  -8   6  340.07   65.39
   4   8  -6  145.19   25.80
   4   8  -6  133.29   28.70
  -4  -8   6  138.09   35.10
  -4  -8   6   96.29   40.20
   5   8  -6  165.48   35.10
   5   8  -6  153.78   26.50
  -5  -8   6  103.09   38.70
  -5  -8   6   58.69   45.90
  -6   8  -5  601.74   49.99
  -6   8  -5  515.75   53.89
   6  -8   5  612.14   80.19
  -5   8  -5  399.46   39.60
  -5   8  -5  479.15   35.60
  -5   8  -5  358.06   38.40
   5  -8   5  367.66   61.59
  -4   8  -5  143.09   18.60
  -4   8  -5  116.49   19.30
  -4   8  -5   94.19   18.40
   4  -8   5   84.59   15.20
   4  -8   5  106.09   29.50
  -3   8  -5  497.55   39.30
  -3   8  -5  486.85   41.90
   3  -8   5  536.15   56.59
   3  -8   5  488.05   39.30
  -2   8  -5   28.40   10.60
   2  -8   5   11.00    9.90
   2  -8   5   60.39   20.60
   2  -8   5   -1.30   30.80
  -1   8  -5  873.11   63.39
  -1   8  -5  855.61   68.09
   1  -8   5  978.00   70.39
   1  -8   5  868.81   62.99
   0   8  -5  141.79   23.60
   0   8  -5  141.89   19.60
   0   8  -5  131.89   14.80
   0   8  -5  130.09   17.80
   0  -8   5   88.89   32.60
   0  -8   5  139.89   20.60
   0  -8   5  142.29   23.00
   1   8  -5  439.26   39.30
   1   8  -5  567.74   42.20
   1   8  -5  474.05   39.90
   1   8  -5  464.05   36.60
  -1  -8   5  406.56   55.59
  -1  -8   5  478.55   41.00
   2   8  -5  178.88   22.10
   2   8  -5  216.08   24.50
   2   8  -5  228.48   28.10
   2   8  -5  207.88   18.70
  -2  -8   5  194.88   38.50
  -2  -8   5  224.18   25.40
  -2  -8   5  192.38   37.60
   3   8  -5   97.09   19.10
  -3  -8   5   93.19   32.90
  -3  -8   5   94.79   32.30
   4   8  -5  595.24   50.79
  -4  -8   5  498.45   60.59
  -4  -8   5  479.85   68.79
   5   8  -5   -0.70   26.30
   5   8  -5  -37.60   18.20
  -5  -8   5   -8.40   43.60
  -5  -8   5   -8.40   28.30
  -6   8  -4   15.00   13.90
  -6   8  -4   14.60   15.30
   6  -8   4   14.20   37.70
  -5   8  -4  893.81   68.19
  -5   8  -4  898.41   66.59
  -5   8  -4  877.81   61.39
   5  -8   4  900.41   65.69
   5  -8   4  840.02   82.39
  -4   8  -4  122.89   20.40
  -4   8  -4   60.69   13.90
  -4   8  -4   68.29   12.60
   4  -8   4   78.19   14.20
   4  -8   4   74.19   26.20
   4  -8   4   81.69   12.80
  -3   8  -4 1066.09   74.79
  -3   8  -4 1077.69   77.49
  -3   8  -4 1106.79   78.89
   3  -8   4 1120.59   74.69
   3  -8   4 1114.99   88.39
  -2   8  -4  575.54   41.70
  -2   8  -4  526.05   51.39
   2  -8   4  576.54   52.39
   2  -8   4  568.74   41.50
   2  -8   4  456.35   68.19
  -1   8  -4  503.65   46.20
  -1   8  -4  551.74   37.50
  -1   8  -4  569.84   41.10
  -1   8  -4  576.44   38.30
   1  -8   4  421.16   63.29
   1  -8   4  517.25   40.80
   1  -8   4  535.45   47.90
   0   8  -4  705.03   56.49
   0   8  -4  637.94   68.69
   0   8  -4  752.62   51.09
   0   8  -4  798.92   54.09
   0   8  -4  816.92   54.89
   0  -8   4  748.03   57.39
   0  -8   4  743.73   53.59
   0  -8   4  575.84   72.69
   1   8  -4   43.30   14.10
   1   8  -4   46.90   10.10
   1   8  -4   27.10   26.40
   1   8  -4   61.59   13.50
   1   8  -4   10.30   24.60
   1   8  -4   60.49   15.60
  -1  -8   4   60.49   26.00
   2   8  -4  571.24   44.70
   2   8  -4  543.35   45.10
   2   8  -4  551.94   38.70
   2   8  -4  558.74   41.60
   2   8  -4  599.54   59.09
  -2  -8   4  415.26   56.69
   3   8  -4    7.70   12.40
   3   8  -4   12.00   14.90
   3   8  -4   32.20   26.80
  -3  -8   4    9.30   21.60
  -3  -8   4  -13.00   25.50
   4   8  -4  528.65   63.29
   4   8  -4  435.16   42.90
   4   8  -4  438.46   48.30
  -4  -8   4  328.07   51.39
  -4  -8   4  322.87   60.19
   5   8  -4  138.69   27.50
   5   8  -4  159.98   32.70
  -5  -8   4   73.79   36.20
  -7   8  -3  423.56   46.40
  -7   8  -3  425.96   43.40
   7  -8   3  529.35   84.29
  -6   8  -3  213.28   28.80
  -6   8  -3  189.08   27.10
   6  -8   3  261.07   46.90
   6  -8   3  201.28   35.10
  -5   8  -3  546.15   45.00
  -5   8  -3  622.94   48.50
  -5   8  -3  610.54   49.60
   5  -8   3  624.94   49.80
   5  -8   3  657.93   67.69
  -4   8  -3  134.79   19.40
  -4   8  -3  128.89   17.70
  -4   8  -3  171.18   15.70
  -4   8  -3  150.28   21.80
   4  -8   3  152.58   16.80
   4  -8   3  147.69   21.20
   4  -8   3  115.69   27.80
  -3   8  -3   11.90    7.90
  -3   8  -3    3.60    6.60
  -3   8  -3    9.40    9.20
  -3   8  -3    5.40    7.80
   3  -8   3    3.00   20.20
   3  -8   3    3.30    7.70
   3  -8   3   24.50   11.30
  -2   8  -3 1498.15  114.69
  -2   8  -3 1668.33  107.29
  -2   8  -3 1742.63  108.19
   2  -8   3 1703.43  107.99
   2  -8   3 1392.36  129.59
   2  -8   3 1686.23  116.59
  -1   8  -3   11.50   14.30
  -1   8  -3    3.80   21.20
  -1   8  -3   12.10    7.80
  -1   8  -3   39.40   18.90
  -1   8  -3    7.30    8.70
  -1   8  -3   16.80    5.80
   1  -8   3   12.70   15.20
   1  -8   3    5.00   30.10
   0   8  -3  928.11   68.89
   0   8  -3  974.70   65.89
   0   8  -3  783.82   75.39
   0   8  -3  804.92   73.39
   0   8  -3 1076.89   68.89
   0   8  -3 1030.60   64.99
   0  -8   3  815.92   83.99
   0  -8   3  973.00   69.89
   1   8  -3  178.98   32.10
   1   8  -3  158.88   27.00
   1   8  -3  156.18   19.80
   1   8  -3  169.18   19.80
   1   8  -3  120.89   27.40
   1   8  -3  190.88   24.70
   1   8  -3  168.28   15.90
  -1  -8   3  121.09   31.90
   2   8  -3  485.45   40.20
   2   8  -3  481.45   41.40
   2   8  -3  527.35   41.90
   2   8  -3  494.65   35.80
   2   8  -3  505.75   51.79
   2   8  -3  518.35   49.99
  -2  -8   3  391.16   52.49
   3   8  -3  579.94   49.10
   3   8  -3  546.55   40.50
   3   8  -3  465.05   43.50
   3   8  -3  482.75   50.19
   3   8  -3  468.85   38.30
  -3  -8   3  430.86   54.39
   4   8  -3  115.49   25.40
   4   8  -3   68.49   18.50
  -4  -8   3   92.39   29.40
   5   8  -3  382.46   45.00
   5   8  -3  417.06   55.89
  -5  -8   3  290.87   54.59
  -7   8  -2  188.98   33.60
  -7   8  -2  184.48   30.40
   7  -8   2  133.79   31.70
   7  -8   2  140.29   48.80
  -6   8  -2  607.14   52.19
  -6   8  -2  674.63   52.09
   6  -8   2  649.34   77.19
   6  -8   2  608.54   55.89
  -5   8  -2  157.58   23.30
  -5   8  -2  181.88   21.80
  -5   8  -2  176.18   22.80
   5  -8   2  188.48   27.70
   5  -8   2  171.98   37.90
  -4   8  -2 1326.27   95.29
  -4   8  -2 1375.86   98.09
  -4   8  -2 1508.85   97.69
   4  -8   2 1411.16  108.99
   4  -8   2 1441.86   97.39
  -3   8  -2   86.59   12.80
  -3   8  -2   90.89   14.80
  -3   8  -2  104.99   16.20
  -3   8  -2   71.09   14.80
  -3   8  -2   62.99   11.60
   3  -8   2   74.59   22.30
   3  -8   2   78.79   14.20
  -2   8  -2  838.82   67.79
  -2   8  -2  703.33   75.19
  -2   8  -2  967.40   62.19
  -2   8  -2  937.61   61.69
  -2   8  -2  928.71   59.69
  -2   8  -2  821.62   64.09
   2  -8   2  922.41   69.39
   2  -8   2  781.92   62.09
   2  -8   2  875.01   85.49
  -1   8  -2  402.56   30.50
  -1   8  -2  329.97   45.30
  -1   8  -2  441.06   39.00
  -1   8  -2  402.56   34.20
  -1   8  -2  423.36   31.40
  -1   8  -2  395.56   38.40
   1  -8   2  346.47   56.89
   1  -8   2  427.46   39.30
   0   8  -2  280.37   29.70
   0   8  -2  292.67   30.50
   0   8  -2  299.27   24.50
   0   8  -2  276.37   24.40
   0   8  -2  251.67   34.30
   0   8  -2  226.88   39.70
   0  -8   2  277.07   48.20
   0  -8   2  289.07   32.30
   1   8  -2  560.84   47.00
   1   8  -2  459.55   50.49
   1   8  -2  511.35   40.70
   1   8  -2  541.85   41.40
   1   8  -2  504.55   43.10
   1   8  -2  554.54   38.30
   1   8  -2  496.45   51.39
   2   8  -2   28.70   14.30
   2   8  -2   24.90   11.20
   2   8  -2   19.50   20.70
   2   8  -2    5.20   21.40
   2   8  -2   11.30   11.10
   2   8  -2   14.80    8.40
  -2  -8   2   12.90   20.70
   3   8  -2  818.52   59.39
   3   8  -2  766.22   60.89
   3   8  -2  784.82   63.79
   3   8  -2  765.32   56.89
   3   8  -2  903.01   66.49
  -3  -8   2  633.24   69.29
   4   8  -2   33.20   20.20
   4   8  -2   15.40   16.40
   4   8  -2   30.60   17.10
  -4  -8   2   16.60   22.60
   5   8  -2  323.87   54.29
   5   8  -2  329.27   42.30
  -5  -8   2  332.77   53.89
  -7   8  -1   57.19   19.60
  -7   8  -1   46.50   17.70
   7  -8   1    9.00   36.60
   7  -8   1   11.30   25.60
  -6   8  -1  538.65   45.20
  -6   8  -1  494.05   44.50
   6  -8   1  519.15   50.29
   6  -8   1  536.35   67.39
  -5   8  -1  203.58   25.30
  -5   8  -1  225.48   25.40
  -5   8  -1  221.58   23.90
   5  -8   1  219.38   37.10
   5  -8   1  221.88   29.20
  -4   8  -1  356.36   30.60
  -4   8  -1  357.76   30.90
  -4   8  -1  333.87   30.70
   4  -8   1  343.67   46.70
   4  -8   1  349.07   33.30
  -3   8  -1  600.44   41.40
  -3   8  -1  595.44   44.30
  -3   8  -1  637.14   44.40
  -3   8  -1  511.05   40.10
  -3   8  -1  572.44   44.10
   3  -8   1  554.74   53.59
   3  -8   1  592.64   45.80
  -2   8  -1  159.88   32.60
  -2   8  -1  196.58   17.50
  -2   8  -1  214.18   31.30
  -2   8  -1  195.08   19.90
  -2   8  -1  215.28   22.90
  -2   8  -1  179.68   22.70
   2  -8   1  232.18   47.80
   2  -8   1  225.78   25.20
   2  -8   1  218.08   29.60
  -1   8  -1 2439.26  157.28
  -1   8  -1 2462.95  158.28
  -1   8  -1 2399.66  160.78
  -1   8  -1 2281.87  162.38
  -1   8  -1 2464.95  161.18
   1  -8   1 2179.58  174.78
   1  -8   1 2603.44  163.68
   0   8  -1   18.20    7.80
   0   8  -1    6.30    6.30
   0   8  -1   12.00    7.20
   0   8  -1   10.80    7.10
   0   8  -1   24.40   14.10
   0   8  -1   37.80   13.10
   0   8  -1   11.20   13.20
   0   8  -1   18.10   19.90
   0  -8   1   17.70   25.30
   1   8  -1  581.94   54.79
   1   8  -1  688.63   45.50
   1   8  -1  593.44   54.19
   1   8  -1  650.23   47.30
   1   8  -1  654.43   50.89
   1   8  -1  649.83   48.40
  -1  -8   1  489.25   61.09
   2   8  -1  173.58   27.30
   2   8  -1  180.48   34.20
   2   8  -1  186.38   26.00
   2   8  -1  173.48   24.00
   2   8  -1  181.08   21.10
  -2  -8   1  146.99   30.30
   3   8  -1  280.87   32.60
   3   8  -1  278.77   36.90
   3   8  -1  303.07   30.10
   3   8  -1  201.08   33.00
   3   8  -1  293.67   33.10
  -3  -8   1  241.18   40.60
   4   8  -1  303.67   44.00
   4   8  -1  330.87   38.70
   4   8  -1  314.77   37.30
  -4  -8   1  215.58   43.50
   5   8  -1   57.29   22.10
   5   8  -1   29.60   28.30
  -5  -8   1   49.70   28.60
  -7   8   0  197.28   31.20
  -7   8   0  201.78   29.30
   7  -8   0  201.38   46.30
   7  -8   0  167.78   32.40
  -6   8   0   90.09   18.00
  -6   8   0  103.69   19.10
   6  -8   0  100.99   24.10
   6  -8   0   58.19   31.10
  -5   8   0  906.91   64.89
  -5   8   0  766.22   64.99
  -5   8   0  897.61   64.49
   5  -8   0  929.81   68.19
   5  -8   0  903.61   79.39
  -4   8   0   49.00   12.90
  -4   8   0   45.10   12.70
  -4   8   0   51.59   11.20
   4  -8   0   29.10   23.20
   4  -8   0   50.39   14.10
  -3   8   0  892.11   60.79
  -3   8   0  867.21   60.69
  -3   8   0  888.51   56.49
  -3   8   0  693.43   67.59
  -3   8   0  842.72   61.99
  -3   8   0  821.52   56.29
   3  -8   0  900.31   63.99
   3  -8   0  860.81   69.39
  -2   8   0  172.68   18.50
  -2   8   0  133.49   21.80
  -2   8   0  178.88   17.70
  -2   8   0  143.19   14.40
  -2   8   0  121.29   22.40
   2  -8   0  159.88   36.90
   2  -8   0  176.28   27.70
   2  -8   0  168.78   24.20
  -1   8   0  817.92   57.19
  -1   8   0  778.82   59.59
  -1   8   0  772.72   54.49
  -1   8   0  740.03   60.79
  -1   8   0  649.24   64.59
  -1   8   0  764.62   53.79
   1  -8   0  872.91   61.59
   1  -8   0  838.42   62.49
   1  -8   0  713.53   76.79
   0   8   0  692.73   66.59
   0   8   0  812.02   65.59
   0   8   0  926.51   63.59
   0   8   0  860.31   65.09
   0   8   0  882.01   58.59
   0   8   0  844.92   60.29
   0   8   0  857.21   58.19
   0   8   0  866.71   58.99
   0  -8   0  745.53   76.99
   1   8   0  344.77   39.30
   1   8   0  375.36   32.30
   1   8   0  336.77   37.60
   1   8   0  344.57   35.80
   1   8   0  354.06   30.20
   1   8   0  299.77   40.80
   1   8   0  324.97   26.80
   1   8   0  372.06   29.20
  -1  -8   0  317.77   47.00
   2   8   0  533.65   48.90
   2   8   0  592.54   47.60
   2   8   0  548.55   44.10
   2   8   0  493.95   37.00
   2   8   0  540.15   46.10
  -2  -8   0  423.26   54.19
   3   8   0   -7.50   14.40
   3   8   0   -3.00   12.80
   3   8   0  -10.70   14.30
   3   8   0   -3.80   15.00
   3   8   0    0.10    5.90
   3   8   0   -9.60   18.20
  -3  -8   0   -4.70   18.60
   4   8   0  590.94   55.99
   4   8   0  685.93   63.29
   4   8   0  627.34   57.79
  -4  -8   0  601.44   62.89
   5   8   0   95.29   25.80
   5   8   0   73.79   29.80
  -5  -8   0   55.99   30.00
  -7   8   1  729.63   58.29
  -7   8   1  708.13   57.79
   7  -8  -1  651.03   64.99
   7  -8  -1  610.74   78.39
  -6   8   1   65.59   14.30
  -6   8   1   72.99   17.60
   6  -8  -1   54.19   23.60
   6  -8  -1   85.29   31.20
  -5   8   1  751.02   56.89
  -5   8   1  772.52   57.59
   5  -8  -1  709.63   70.29
   5  -8  -1  804.12   62.09
  -4   8   1  104.69   15.40
  -4   8   1   94.59   18.30
  -4   8   1  101.59   17.50
   4  -8  -1   92.39   27.30
   4  -8  -1  107.09   19.40
  -3   8   1  629.04   45.00
  -3   8   1  660.83   44.80
  -3   8   1  723.93   49.40
  -3   8   1  679.53   53.09
  -3   8   1  701.23   49.90
   3  -8  -1  680.93   54.29
   3  -8  -1  655.93   59.29
  -2   8   1 1286.27   83.99
  -2   8   1 1150.28   92.39
  -2   8   1 1224.58   90.39
  -2   8   1 1266.87   84.89
  -2   8   1 1294.87   86.39
   2  -8  -1 1251.47  102.49
   2  -8  -1 1350.96   91.79
   2  -8  -1 1325.17   93.89
  -1   8   1   38.40    9.00
  -1   8   1   41.50    9.20
  -1   8   1   31.60   17.50
  -1   8   1   55.39   11.20
  -1   8   1   32.10   13.50
  -1   8   1   47.00    9.10
   1  -8  -1   35.70   28.30
   1  -8  -1   57.89   17.10
   0   8   1 1297.87   89.09
   0   8   1 1312.97   85.79
   0   8   1 1326.47   93.09
   0   8   1 1306.17   89.39
   0   8   1 1215.18   93.49
   0   8   1 1421.26   87.39
   0  -8  -1 1120.69   92.69
   0  -8  -1 1184.28  101.29
   1   8   1    0.50    8.70
   1   8   1   -6.50   16.30
   1   8   1    8.30    5.70
   1   8   1    1.90    9.90
   1   8   1   15.70   16.70
  -1  -8  -1   17.40   18.60
  -1  -8  -1  -23.20   21.00
   2   8   1  738.83   64.59
   2   8   1  791.32   63.59
   2   8   1  779.22   53.99
   2   8   1  920.11   65.99
   2   8   1  880.01   60.79
  -2  -8  -1  766.02   70.59
  -2  -8  -1  676.43   73.29
   3   8   1  277.67   45.50
   3   8   1  294.67   34.80
   3   8   1  259.87   19.40
   3   8   1  250.37   38.50
  -3  -8  -1  165.88   35.90
  -3  -8  -1  182.18   39.70
   4   8   1  286.97   39.10
   4   8   1  298.47   41.00
   4   8   1  311.57   48.50
  -4  -8  -1  303.17   44.20
   5   8   1  371.96   59.09
   5   8   1  309.47   48.50
  -5  -8  -1  323.67   51.79
  -7   8   2  294.17   36.10
  -7   8   2  269.77   32.10
   7  -8  -2  339.27   54.09
   7  -8  -2  237.08   45.10
  -6   8   2  555.64   46.70
  -6   8   2  570.54   47.60
   6  -8  -2  598.14   56.29
   6  -8  -2  568.44   65.59
  -5   8   2  309.27   27.70
  -5   8   2  304.37   30.20
   5  -8  -2  271.37   36.70
   5  -8  -2  334.77   47.40
  -4   8   2  808.82   67.99
  -4   8   2  896.31   64.79
  -4   8   2  931.61   63.49
   4  -8  -2  864.71   69.19
   4  -8  -2  982.80   76.29
  -3   8   2    1.80   12.60
  -3   8   2   10.00    6.00
  -3   8   2   -3.10    4.90
  -3   8   2   -6.80    6.90
  -3   8   2   13.70    5.20
   3  -8  -2   -8.50   17.00
   3  -8  -2    5.00   11.80
  -2   8   2  868.91   60.29
  -2   8   2  842.62   58.79
  -2   8   2  837.32   70.39
  -2   8   2  875.71   60.49
  -2   8   2  832.12   66.39
   2  -8  -2  900.01   67.59
   2  -8  -2  844.22   76.19
  -1   8   2  289.97   33.90
  -1   8   2  268.87   25.30
  -1   8   2  310.77   24.50
  -1   8   2  318.37   25.60
  -1   8   2  266.57   36.90
   1  -8  -2  236.78   41.00
   1  -8  -2  279.27   34.50
   1  -8  -2  266.17   32.20
   0   8   2  766.32   55.59
   0   8   2  610.34   61.99
   0   8   2  699.33   53.89
   0   8   2  798.42   61.59
   0   8   2  750.72   50.89
   0   8   2  797.32   53.59
   0  -8  -2  630.74   69.39
   0  -8  -2  702.33   59.59
   1   8   2  149.59   25.00
   1   8   2  183.48   15.80
   1   8   2  157.78   25.00
   1   8   2  174.08   21.30
   1   8   2  148.29   26.00
  -1  -8  -2  120.99   29.80
  -1  -8  -2  157.68   28.80
   2   8   2  116.49   21.70
   2   8   2  123.09   22.90
   2   8   2  121.29   23.00
   2   8   2  109.99   12.70
  -2  -8  -2  113.09   30.10
  -2  -8  -2  104.89   27.50
   3   8   2  726.93   62.69
   3   8   2  816.02   61.09
  -3  -8  -2  577.24   62.19
  -3  -8  -2  546.15   68.79
   4   8   2  -17.60   29.50
   4   8   2   10.20   22.30
  -4  -8  -2   22.80   36.80
  -4  -8  -2  -27.10   22.00
  -7   8   3   25.20   12.80
  -7   8   3   14.80   18.90
   7  -8  -3    3.70   25.10
   7  -8  -3   19.20   38.30
  -6   8   3  722.63   58.59
  -6   8   3  737.43   57.19
   6  -8  -3  752.12   75.09
   6  -8  -3  801.62   67.99
  -5   8   3  213.28   26.70
  -5   8   3  211.08   22.70
   5  -8  -3  337.27   44.60
   5  -8  -3  259.97   38.60
  -4   8   3  766.92   57.59
  -4   8   3  770.72   54.99
   4  -8  -3  763.92   62.79
  -3   8   3  333.77   40.50
  -3   8   3  365.96   27.40
  -3   8   3  397.96   29.40
  -3   8   3  399.86   32.40
   3  -8  -3  355.16   39.30
  -2   8   3  589.14   43.60
  -2   8   3  599.94   53.89
  -2   8   3  619.64   45.50
  -2   8   3  622.14   43.20
  -2   8   3  655.43   45.80
   2  -8  -3  626.54   54.29
   2  -8  -3  577.64   48.30
  -1   8   3 1247.08  100.19
  -1   8   3 1426.96   92.89
  -1   8   3 1486.25   91.69
  -1   8   3 1159.88   98.99
  -1   8   3 1343.27   91.69
   1  -8  -3 1357.36  103.79
   1  -8  -3 1457.25  101.79
   1  -8  -3 1306.27   96.09
   0   8   3   54.29   13.60
   0   8   3   47.30   13.70
   0   8   3    2.80   20.90
   0   8   3   42.00   12.70
   0   8   3   55.29    9.80
   0  -8  -3   25.90   28.10
   0  -8  -3   62.69   19.20
   1   8   3  886.31   67.59
   1   8   3  966.30   65.39
   1   8   3  873.81   58.79
  -1  -8  -3  705.13   74.99
  -1  -8  -3  842.22   73.49
   2   8   3   33.80   18.40
   2   8   3   28.30   15.00
   2   8   3   38.00   18.90
  -2  -8  -3   -8.00   22.00
  -2  -8  -3   14.50   23.00
   3   8   3  605.54   56.49
   3   8   3  588.54   56.89
  -3  -8  -3  485.75   64.79
  -3  -8  -3  427.26   54.99
   4   8   3  135.39   39.90
   4   8   3  167.08   34.70
  -4  -8  -3   82.99   30.00
  -4  -8  -3  108.19   40.20
  -7   8   4   83.19   20.60
  -7   8   4   51.49   14.60
   7  -8  -4   80.39   40.20
   7  -8  -4   34.60   27.70
  -6   8   4  613.14   47.80
  -6   8   4  571.64   49.90
   6  -8  -4  507.45   65.19
   6  -8  -4  642.24   60.59
  -5   8   4  558.04   42.40
  -5   8   4  542.75   45.70
   5  -8  -4  427.76   58.49
   5  -8  -4  597.54   54.89
  -4   8   4  142.59   23.30
  -4   8   4  184.18   18.50
   4  -8  -4  184.58   33.80
   4  -8  -4  187.78   35.70
  -3   8   4  844.92   60.79
  -3   8   4  974.40   61.69
  -3   8   4  928.01   65.09
  -3   8   4  879.51   63.89
   3  -8  -4  906.21   72.49
   3  -8  -4  862.21   64.19
  -2   8   4   60.99   12.90
  -2   8   4   82.09   13.00
  -2   8   4   74.59   11.50
  -2   8   4   63.59   10.00
   2  -8  -4   77.89   14.50
   2  -8  -4   90.59   17.10
   2  -8  -4   88.39   21.30
  -1   8   4  940.11   62.29
  -1   8   4  883.71   64.29
  -1   8   4  835.12   62.29
   1  -8  -4  942.21   75.19
   1  -8  -4  887.11   67.59
   1  -8  -4  818.82   72.69
   0   8   4  436.66   40.70
   0   8   4  488.25   38.90
   0   8   4  431.86   33.90
   0  -8  -4  345.57   53.49
   0  -8  -4  476.45   45.40
   1   8   4  412.56   30.50
   1   8   4  388.66   40.30
   1   8   4  311.67   38.90
   1   8   4  441.36   41.00
  -1  -8  -4  359.96   55.49
  -1  -8  -4  398.66   49.50
   2   8   4  338.37   39.10
   2   8   4  262.97   39.10
  -2  -8  -4  246.48   48.90
  -2  -8  -4  299.57   48.70
   3   8   4  115.09   30.30
   3   8   4   91.09   30.90
  -3  -8  -4   38.70   31.80
  -3  -8  -4   79.29   28.20
   4   8   4  740.23   81.29
  -4  -8  -4  586.04   62.79
  -4  -8  -4  447.36   81.29
  -7   8   5  604.94   51.19
  -7   8   5  536.05   54.49
   7  -8  -5  661.93   76.59
   7  -8  -5  660.83   67.79
  -6   8   5    8.60    9.80
  -6   8   5   -7.40   15.00
   6  -8  -5   52.69   30.60
  -5   8   5  632.44   46.10
  -5   8   5  577.24   49.80
   5  -8  -5  579.94   58.79
  -4   8   5   18.70   10.80
  -4   8   5    4.00    7.10
  -4   8   5   24.60   13.10
  -4   8   5   16.60    7.80
   4  -8  -5   11.10   19.50
   4  -8  -5    7.00   12.10
  -3   8   5 1978.20  133.99
  -3   8   5 2133.69  130.79
  -3   8   5 2017.80  134.89
  -3   8   5 1784.82  130.89
   3  -8  -5 2074.69  143.59
   3  -8  -5 2014.40  134.09
  -2   8   5  237.18   26.30
  -2   8   5  228.78   22.50
  -2   8   5  254.67   24.70
  -2   8   5  236.18   18.50
   2  -8  -5  212.88   23.40
   2  -8  -5  277.97   30.30
   2  -8  -5  235.88   40.30
  -1   8   5  170.28   22.90
  -1   8   5  179.98   20.10
  -1   8   5  143.29   23.80
   1  -8  -5  180.38   26.90
   1  -8  -5  145.09   18.50
   1  -8  -5  178.08   32.60
   0   8   5 1001.70   76.49
   0   8   5 1044.40   70.19
   0   8   5 1027.20   75.19
   0  -8  -5  941.41   79.79
   1   8   5    2.60    9.10
   1   8   5    7.90   14.70
   1   8   5   -0.90   16.40
  -1  -8  -5   -2.70   21.20
   2   8   5  424.76   46.40
   2   8   5  365.56   44.40
  -2  -8  -5  326.67   54.29
   3   8   5   26.70   24.50
   3   8   5   19.80   30.90
  -3  -8  -5   68.69   32.90
  -7   8   6  380.56   47.30
  -7   8   6  506.85   43.10
   7  -8  -6  474.35   62.59
  -6   8   6  246.88   29.00
  -6   8   6  256.87   27.60
  -6   8   6  246.38   34.80
   6  -8  -6  294.87   47.50
  -5   8   6  259.87   27.80
  -5   8   6  286.97   26.20
  -5   8   6  255.67   31.90
   5  -8  -6  271.27   43.30
  -4   8   6  607.14   48.20
  -4   8   6  557.04   44.50
  -4   8   6  634.44   50.79
  -4   8   6  647.74   45.00
   4  -8  -6  677.53   61.09
   4  -8  -6  637.64   48.00
  -3   8   6   15.30   13.30
  -3   8   6   13.00   10.90
   3  -8  -6   13.80   12.80
   3  -8  -6   12.50   18.90
  -2   8   6 1230.88   86.09
  -2   8   6 1282.17   86.99
  -2   8   6 1128.29   83.99
   2  -8  -6 1256.47   88.49
   2  -8  -6 1238.28   98.29
  -1   8   6   55.39   16.30
  -1   8   6   40.00   13.30
   1  -8  -6   50.59   12.20
   1  -8  -6   63.49   19.90
   1  -8  -6   45.20   23.60
   0   8   6 1075.49   79.29
   0   8   6 1087.69   73.89
   0   8   6  957.20   78.79
   0  -8  -6 1042.20   83.49
   1   8   6  179.38   20.90
   1   8   6  156.68   28.90
   1   8   6  177.88   29.40
  -1  -8  -6  106.39   27.90
   2   8   6  297.27   46.30
   2   8   6  291.57   44.00
  -2  -8  -6  325.47   54.49
   3   8   6  390.76   57.59
   3   8   6  409.16   62.99
  -3  -8  -6  363.36   66.09
  -7   8   7  104.49   20.10
  -7   8   7   93.29   19.50
  -7   8   7  100.49   27.10
   7  -8  -7   64.19   32.10
  -6   8   7  507.15   51.99
  -6   8   7  612.24   47.00
  -6   8   7  525.25   46.40
   6  -8  -7  601.34   63.89
  -5   8   7   13.80   11.00
  -5   8   7   -4.50   11.60
  -5   8   7   14.10   15.60
   5  -8  -7   20.90   13.20
   5  -8  -7  -10.50   22.30
  -4   8   7  548.95   46.20
  -4   8   7  637.44   52.49
  -4   8   7  642.84   49.90
   4  -8  -7  704.43   62.99
   4  -8  -7  652.43   49.90
  -3   8   7   17.90   13.00
  -3   8   7   45.00   16.20
  -3   8   7   32.10   13.40
   3  -8  -7   66.79   15.50
   3  -8  -7   85.49   25.10
  -2   8   7  624.44   52.09
  -2   8   7  632.74   51.89
   2  -8  -7  658.53   66.29
   2  -8  -7  681.03   54.89
  -1   8   7  568.64   48.90
  -1   8   7  583.84   46.60
   1  -8  -7  584.84   64.89
   1  -8  -7  503.95   42.80
   1  -8  -7  609.84   55.09
   0   8   7   67.49   16.20
   0   8   7   56.19   20.30
   0   8   7   49.00   18.90
   0  -8  -7   53.09   23.10
   1   8   7  670.23   65.19
   1   8   7  742.53   64.29
  -1  -8  -7  727.03   71.09
   2   8   7  -21.00   26.20
   2   8   7   43.60   24.00
  -2  -8  -7   21.60   28.00
  -7   8   8   65.39   19.10
  -7   8   8   79.69   19.00
  -7   8   8   48.90   26.80
   7  -8  -8   82.29   37.70
  -6   8   8  499.15   47.80
  -6   8   8  586.24   55.69
   6  -8  -8  695.23   69.19
  -5   8   8  216.78   34.10
  -5   8   8  202.58   29.10
   5  -8  -8  258.87   40.90
   5  -8  -8  245.88   33.30
  -4   8   8  138.79   23.60
  -4   8   8  192.48   29.50
   4  -8  -8  234.78   29.80
   4  -8  -8  207.68   35.70
  -3   8   8  498.15   47.00
  -3   8   8  531.05   45.30
   3  -8  -8  524.95   60.09
   3  -8  -8  559.74   47.80
  -2   8   8  120.09   21.60
  -2   8   8  163.78   25.80
   2  -8  -8  125.49   33.00
   2  -8  -8  139.19   25.10
  -1   8   8  912.61   70.89
  -1   8   8  945.21   73.79
   1  -8  -8 1057.19   77.79
   1  -8  -8  775.12   86.89
   0   8   8   37.70   19.70
   0   8   8   49.20   16.30
   0   8   8    4.60   20.90
   0  -8  -8   46.60   24.30
   1   8   8  484.15   53.99
   1   8   8  417.66   52.09
  -1  -8  -8  537.05   62.19
  -6   8   9   31.10   17.50
  -6   8   9  -10.20   21.60
   6  -8  -9   -9.00   32.60
  -5   8   9  462.15   43.30
  -5   8   9  409.56   49.40
   5  -8  -9  565.84   63.19
  -4   8   9    1.30   18.20
  -4   8   9   26.80   15.10
   4  -8  -9   30.90   26.50
   4  -8  -9   60.79   19.10
  -3   8   9  633.24   58.69
  -3   8   9  678.43   55.19
   3  -8  -9  713.53   60.19
   3  -8  -9  669.63   73.29
  -2   8   9  196.78   29.40
  -2   8   9  182.78   29.80
   2  -8  -9  113.09   24.90
   2  -8  -9  164.88   40.20
  -1   8   9  260.27   37.90
  -1   8   9  260.17   40.60
   1  -8  -9  237.28   48.50
   1  -8  -9  303.47   44.30
   0   8   9  433.56   52.19
   0   8   9  382.06   51.29
   0  -8  -9  544.65   59.59
  -5   8  10  394.86   40.50
  -5   8  10  268.37   45.60
   5  -8 -10  366.86   62.29
  -4   8  10  296.07   35.50
  -4   8  10  285.17   42.10
   4  -8 -10  404.56   59.89
  -3   8  10  100.09   28.00
  -3   8  10  123.29   23.40
   3  -8 -10   74.39   35.10
   3  -8 -10  138.09   25.90
  -2   8  10  628.84   59.29
  -2   8  10  669.03   60.59
   2  -8 -10  643.34   61.79
   2  -8 -10  602.24   77.59
  -1   8  10   12.90   23.70
  -1   8  10  -23.90   22.80
   1  -8 -10   55.69   24.40
   1  -8 -10   13.40   38.90
  -4   8  11  328.57   49.60
  -4   8  11  372.66   42.60
   4  -8 -11  320.47   55.89
  -3   8  11   26.70   26.30
  -3   8  11   28.50   24.30
   3  -8 -11   85.89   26.60
   3  -8 -11   47.60   41.10
  -1   9 -11  -18.60   25.80
   1  -9  11   75.59   38.80
   1  -9  11    2.10   62.69
   0   9 -11  233.78   35.90
   0  -9  11  283.37   61.69
   0  -9  11  199.18   63.89
  -1  -9  11    1.90   46.10
  -1  -9  11  -52.39   45.90
   2   9 -11  279.17   44.70
  -2  -9  11  270.77   57.19
  -2  -9  11  133.69   60.99
  -2   9 -10  531.85   49.00
  -2   9 -10  403.26   52.59
   2  -9  10  620.04   74.19
  -1   9 -10   15.20   25.00
   1  -9  10   76.39   54.19
   1  -9  10  165.58   37.70
   0   9 -10  233.48   40.80
   0  -9  10  352.86   56.89
   0  -9  10  141.39   56.49
   0  -9  10  201.08   48.70
  -1  -9  10  101.29   49.90
  -1  -9  10  133.69   45.90
   2   9 -10   71.79   25.70
  -2  -9  10   50.39   47.30
  -2  -9  10  167.38   50.19
   3   9 -10  191.58   32.30
  -3  -9  10  140.99   57.29
  -3  -9  10  230.98   52.09
  -3   9  -9  208.08   32.80
  -3   9  -9  234.58   40.30
   3  -9   9  215.48   46.50
  -2   9  -9  275.07   38.40
   2  -9   9  172.08   58.39
  -1   9  -9  380.56   43.20
   1  -9   9  261.47   63.29
   0   9  -9   37.40   19.30
   0  -9   9  -19.90   41.20
   0  -9   9    3.40   25.50
   0  -9   9   16.60   39.60
   1   9  -9  450.75   46.00
  -1  -9   9  484.55   50.39
  -1  -9   9  312.37   55.79
   2   9  -9   -5.70   19.60
  -2  -9   9   30.70   38.00
  -2  -9   9   20.10   39.20
  -3  -9   9  200.08   49.50
  -3  -9   9  153.58   50.19
   4   9  -9   63.69   27.30
   4   9  -9  113.79   34.00
  -4  -9   9   48.70   44.40
  -4  -9   9  178.88   52.09
  -4   9  -8  131.59   25.20
  -4   9  -8  133.89   28.30
   4  -9   8  108.89   39.50
  -3   9  -8  669.23   55.89
  -3   9  -8  622.74   56.89
   3  -9   8  649.54   77.19
  -2   9  -8   -8.90   18.80
   2  -9   8   27.40   29.40
   2  -9   8   29.10   43.20
  -1   9  -8  674.23   59.99
   1  -9   8  820.22   71.89
   0   9  -8   92.79   21.00
   0   9  -8   82.49   23.90
   0  -9   8   56.99   36.90
   0  -9   8   38.30   38.40
   0  -9   8  128.49   27.10
   1   9  -8  152.28   24.10
  -1  -9   8  121.49   42.30
  -1  -9   8   74.19   40.80
  -1  -9   8  186.38   27.80
   2   9  -8  350.16   41.30
   2   9  -8  383.86   33.70
  -2  -9   8  265.17   52.79
   3   9  -8   73.09   23.80
   3   9  -8  104.19   20.50
  -3  -9   8  131.99   43.00
  -3  -9   8   48.80   36.40
   4   9  -8  359.36   47.10
  -4  -9   8  307.07   58.49
  -4  -9   8  229.38   56.79
  -5   9  -7  425.86   46.60
  -5   9  -7  413.66   44.80
   5  -9   7  435.46   63.59
  -4   9  -7  102.99   19.30
  -4   9  -7   58.59   18.80
  -4   9  -7   22.30   15.00
   4  -9   7   46.90   34.40
  -3   9  -7  476.65   44.80
  -3   9  -7  514.35   45.90
   3  -9   7  569.04   66.49
  -2   9  -7  300.87   34.30
   2  -9   7  340.07   52.29
   2  -9   7  204.88   54.49
  -1   9  -7  296.37   34.30
   1  -9   7  360.66   46.40
   1  -9   7  257.17   57.99
   0   9  -7  478.75   44.00
   0   9  -7  445.86   45.90
   0  -9   7  534.55   49.20
   0  -9   7  392.56   65.09
   1   9  -7   37.50   17.10
   1   9  -7   18.10   15.70
   1   9  -7   50.79   15.90
   1   9  -7   46.40    9.90
  -1  -9   7    5.70   31.80
  -1  -9   7   23.60   29.60
  -1  -9   7   21.60   20.00
   2   9  -7  720.23   50.39
   2   9  -7  599.54   54.19
  -2  -9   7  491.85   76.99
   3   9  -7   36.20   19.20
   3   9  -7   72.39   20.10
  -3  -9   7   57.69   34.30
  -3  -9   7   60.09   40.70
  -4  -9   7  157.58   46.20
  -4  -9   7  141.29   42.70
  -5   9  -6  367.46   42.70
  -5   9  -6  333.67   39.60
   5  -9   6  541.65   67.39
  -4   9  -6  498.85   40.60
  -4   9  -6  464.05   44.40
  -4   9  -6  460.75   43.50
   4  -9   6  498.15   66.39
  -3   9  -6   18.70   10.90
  -3   9  -6   17.10   13.80
   3  -9   6   15.90   12.70
   3  -9   6   30.00   28.50
  -2   9  -6  998.50   71.69
   2  -9   6 1036.00   85.79
   2  -9   6  952.80   71.09
  -1   9  -6  -23.60   21.80
  -1   9  -6  -18.50   11.30
   1  -9   6   11.50   32.10
   1  -9   6    1.80   19.90
   0   9  -6  417.06   44.60
   0   9  -6  536.55   36.10
   0   9  -6  483.55   35.10
   0   9  -6  482.75   42.80
   0  -9   6  467.95   47.70
   1   9  -6  319.37   33.40
   1   9  -6  272.07   25.50
   1   9  -6  249.48   31.20
   1   9  -6  328.57   33.00
  -1  -9   6  180.38   45.80
  -1  -9   6  323.27   35.10
  -1  -9   6  262.17   48.30
   2   9  -6  427.06   36.50
   2   9  -6  384.36   29.50
   2   9  -6  405.56   45.40
   2   9  -6  398.86   39.40
  -2  -9   6  333.27   63.89
  -2  -9   6  298.97   54.89
   3   9  -6  395.66   41.20
   3   9  -6  409.26   42.00
  -3  -9   6  309.77   53.29
  -3  -9   6  247.88   52.89
   4   9  -6   93.29   23.90
   4   9  -6  102.39   28.10
  -4  -9   6  148.49   45.10
  -4  -9   6   47.90   39.20
   5   9  -6  277.87   45.80
  -6   9  -5  671.13   56.99
  -6   9  -5  656.73   59.99
   6  -9   5  691.73   87.49
  -5   9  -5    8.40   12.60
  -5   9  -5   29.10   16.70
   5  -9   5    8.80   33.90
  -4   9  -5  451.15   35.00
  -4   9  -5  406.16   39.50
  -4   9  -5  398.06   38.50
   4  -9   5  412.26   59.79
  -3   9  -5   76.79   15.80
  -3   9  -5   62.99   15.00
   3  -9   5  122.19   19.90
   3  -9   5   97.49   30.60
  -2   9  -5  645.64   50.09
   2  -9   5  686.63   63.99
   2  -9   5  659.73   49.50
  -1   9  -5  367.96   43.20
  -1   9  -5  443.06   35.70
   1  -9   5  287.47   59.09
   1  -9   5  430.56   45.40
   1  -9   5  431.66   36.10
   0   9  -5  249.28   26.20
   0   9  -5  233.78   24.30
   0   9  -5  187.18   19.10
   0   9  -5  193.08   29.50
   0  -9   5  212.18   31.70
   0  -9   5  202.28   44.50
   1   9  -5  535.05   46.90
   1   9  -5  585.14   48.00
   1   9  -5  614.64   43.30
   1   9  -5  544.75   45.90
  -1  -9   5  446.66   62.99
   2   9  -5  -32.60   21.50
   2   9  -5   -3.70    8.00
   2   9  -5    0.20   13.10
   2   9  -5  -18.10   11.70
   2   9  -5   -5.60   11.90
  -2  -9   5   10.00   25.20
  -2  -9   5  -24.60   34.10
   3   9  -5  396.16   43.20
   3   9  -5  340.77   37.60
  -3  -9   5  241.18   50.99
  -3  -9   5  263.47   51.29
   4   9  -5  174.68   32.10
   4   9  -5  112.99   26.50
  -4  -9   5   57.89   44.30
   5   9  -5  155.78   29.90
  -5  -9   5  169.38   48.70
  -6   9  -4  515.95   48.10
  -6   9  -4  530.95   52.59
   6  -9   4  620.84   80.79
  -5   9  -4  342.87   34.40
  -5   9  -4  312.87   33.70
   5  -9   4  235.68   45.30
  -4   9  -4  499.65   36.80
  -4   9  -4  500.95   43.00
  -4   9  -4  464.05   42.10
   4  -9   4  493.45   40.80
   4  -9   4  467.95   60.19
  -3   9  -4  811.32   58.99
  -3   9  -4  899.71   66.99
  -3   9  -4  992.50   66.39
  -3   9  -4  868.31   62.59
   3  -9   4  905.61   62.59
   3  -9   4 1019.00   80.29
   3  -9   4  752.72   89.79
  -2   9  -4   -1.80    5.70
  -2   9  -4   -1.90    8.80
  -2   9  -4   10.50    5.70
   2  -9   4   -6.80   19.00
   2  -9   4   31.60   32.20
   2  -9   4   17.60   10.60
  -1   9  -4 1225.68   79.79
  -1   9  -4 1152.48   88.19
  -1   9  -4 1259.47   81.29
  -1   9  -4 1240.58   82.89
   1  -9   4 1225.58   89.59
   1  -9   4 1008.30  104.39
   0   9  -4   16.30   10.40
   0   9  -4    7.90    7.50
   0   9  -4   28.10   28.60
   0   9  -4   52.99   16.60
   0   9  -4   31.90   13.20
   0  -9   4   11.70   16.50
   0  -9   4   22.70   29.60
   1   9  -4  475.45   43.30
   1   9  -4  419.66   38.90
   1   9  -4  457.55   37.00
   1   9  -4  459.35   33.20
   1   9  -4  464.55   40.00
  -1  -9   4  376.36   56.29
   2   9  -4  229.28   28.10
   2   9  -4  265.57   45.50
   2   9  -4  196.28   20.30
   2   9  -4  185.18   27.30
   2   9  -4  222.18   28.40
  -2  -9   4  184.88   39.50
   3   9  -4  497.25   38.80
   3   9  -4  579.44   50.89
   3   9  -4  468.15   44.20
  -3  -9   4  353.06   55.69
   4   9  -4  278.77   39.80
   4   9  -4  327.77   47.20
  -4  -9   4  270.27   52.49
   5   9  -4    8.00   30.70
   5   9  -4   14.30   24.40
  -5  -9   4  -13.00   36.60
  -6   9  -3   73.79   18.50
  -6   9  -3   88.39   20.90
   6  -9   3  105.69   41.20
  -5   9  -3  746.53   58.39
  -5   9  -3  702.93   56.69
   5  -9   3  707.13   76.69
   5  -9   3  745.13   58.59
  -4   9  -3   78.09   16.30
  -4   9  -3   77.79   12.70
  -4   9  -3   46.00   10.90
  -4   9  -3   60.99   14.60
   4  -9   3   56.79   14.90
   4  -9   3   78.09   28.30
  -3   9  -3  619.84   44.80
  -3   9  -3  577.44   44.70
  -3   9  -3  687.73   49.50
  -3   9  -3  642.94   49.50
   3  -9   3  644.04   48.90
   3  -9   3  543.35   74.59
   3  -9   3  602.94   62.39
  -2   9  -3  534.75   40.10
  -2   9  -3  458.85   45.80
  -2   9  -3  479.45   37.00
  -2   9  -3  482.05   34.90
  -2   9  -3  487.05   36.90
   2  -9   3  402.76   66.09
   2  -9   3  517.35   49.99
  -1   9  -3  997.50   76.29
  -1   9  -3  929.41   67.89
  -1   9  -3 1147.79   71.49
  -1   9  -3 1009.20   69.89
  -1   9  -3  954.60   76.99
   1  -9   3 1024.60   76.29
   1  -9   3  927.31   94.29
   0   9  -3  652.03   46.80
   0   9  -3  704.23   51.69
   0   9  -3  625.64   59.39
   0   9  -3  635.74   47.70
   0   9  -3  645.94   52.69
   0  -9   3  597.64   53.29
   0  -9   3  510.75   67.19
   1   9  -3   53.79   10.40
   1   9  -3   40.50   16.60
   1   9  -3   48.50   12.90
   1   9  -3   77.09   19.10
   1   9  -3   52.29   13.70
   1   9  -3   30.70   29.40
  -1  -9   3   73.39   29.60
   2   9  -3  527.75   45.40
   2   9  -3  591.24   47.20
   2   9  -3  531.25   60.79
   2   9  -3  533.75   40.00
   2   9  -3  597.04   45.30
  -2  -9   3  397.96   58.69
   3   9  -3    5.80   13.60
   3   9  -3   12.70   18.10
   3   9  -3   -2.30   12.60
   3   9  -3   55.19   28.80
  -3  -9   3   15.00   25.00
   4   9  -3  654.23   61.09
   4   9  -3  521.15   51.89
  -4  -9   3  473.35   62.79
   5   9  -3   15.00   21.60
   5   9  -3   22.40   30.40
  -5  -9   3   -7.90   37.10
  -7   9  -2  411.76   42.80
  -7   9  -2  400.26   44.20
   7  -9   2  379.26   61.19
  -6   9  -2   33.40   13.30
  -6   9  -2   50.99   18.60
   6  -9   2   68.19   22.90
   6  -9   2   81.89   36.50
  -5   9  -2  543.75   47.60
  -5   9  -2  639.94   50.79
  -5   9  -2  646.54   50.09
   5  -9   2  662.13   53.09
   5  -9   2  632.74   69.09
  -4   9  -2  487.35   41.40
  -4   9  -2  614.44   44.70
  -4   9  -2  519.35   38.30
  -4   9  -2  531.05   44.00
   4  -9   2  548.15   45.80
   4  -9   2  598.84   61.19
  -3   9  -2  234.48   25.10
  -3   9  -2  209.28   23.00
  -3   9  -2  219.68   22.80
  -3   9  -2  177.08   23.60
  -3   9  -2  199.08   19.30
   3  -9   2  309.37   40.10
   3  -9   2  229.78   28.20
  -2   9  -2  716.93   67.69
  -2   9  -2  845.42   59.79
  -2   9  -2  786.62   56.69
  -2   9  -2  792.62   61.39
  -2   9  -2  880.51   59.99
   2  -9   2  728.03   82.49
   2  -9   2  824.52   67.49
   2  -9   2  917.71   62.09
  -1   9  -2   79.59   20.50
  -1   9  -2   72.29   13.10
  -1   9  -2   78.69   18.10
  -1   9  -2   73.19   12.40
  -1   9  -2   91.19   15.00
  -1   9  -2   73.09   13.50
   1  -9   2   85.99   22.00
   1  -9   2   92.39   36.40
   0   9  -2  934.71   66.89
   0   9  -2  872.81   62.09
   0   9  -2  928.91   60.29
   0   9  -2  936.71   62.49
   0   9  -2  839.32   69.29
   0   9  -2  775.72   75.89
   0   9  -2  871.01   65.99
   0  -9   2  695.93   80.09
   1   9  -2   97.39   15.10
   1   9  -2   81.39   21.60
   1   9  -2   82.99   18.00
   1   9  -2   74.99   14.80
   1   9  -2   96.99   27.80
   1   9  -2   97.19   16.50
  -1  -9   2   56.89   27.40
   2   9  -2  425.76   40.90
   2   9  -2  448.26   50.59
   2   9  -2  452.15   41.60
   2   9  -2  423.46   34.60
   2   9  -2  412.56   38.30
  -2  -9   2  343.47   51.69
   3   9  -2  288.67   33.20
   3   9  -2  354.96   44.80
   3   9  -2  276.57   39.50
   3   9  -2  240.58   29.60
  -3  -9   2  220.18   46.20
   4   9  -2  170.78   27.10
   4   9  -2  130.69   28.00
  -4  -9   2  125.49   35.30
   5   9  -2  107.19   28.00
   5   9  -2  211.68   39.40
  -7   9  -1  369.16   41.70
  -7   9  -1  346.97   43.80
   7  -9   1  418.66   54.99
   7  -9   1  471.55   76.59
  -6   9  -1  606.94   48.40
  -6   9  -1  527.05   47.70
   6  -9   1  485.95   71.59
   6  -9   1  598.54   55.69
  -5   9  -1   58.69   13.70
  -5   9  -1   48.80   14.70
  -5   9  -1   51.19   15.20
   5  -9   1   59.89   29.00
   5  -9   1   79.49   18.80
  -4   9  -1  812.42   62.89
  -4   9  -1  901.01   64.19
  -4   9  -1  920.61   64.09
   4  -9   1  768.52   75.69
   4  -9   1  902.51   66.39
  -3   9  -1    5.20    9.20
  -3   9  -1   -1.90    6.60
  -3   9  -1    6.30    8.40
  -3   9  -1   -2.40   10.10
  -3   9  -1   10.70    8.10
   3  -9   1   -2.80   12.90
   3  -9   1   10.60   19.50
  -2   9  -1 1049.49   73.69
  -2   9  -1 1051.89   75.39
  -2   9  -1 1048.80   74.19
  -2   9  -1 1006.40   70.89
  -2   9  -1  941.71   82.29
   2  -9   1 1161.28   82.09
   2  -9   1  943.31   96.19
   2  -9   1 1191.98   78.39
  -1   9  -1  496.45   42.60
  -1   9  -1  512.25   37.90
  -1   9  -1  466.25   46.30
  -1   9  -1  506.35   38.10
  -1   9  -1  380.86   55.39
  -1   9  -1  488.75   36.90
  -1   9  -1  517.45   42.40
   1  -9   1  391.86   62.89
   1  -9   1  561.04   48.10
   0   9  -1  724.53   51.79
   0   9  -1  736.53   58.59
   0   9  -1  832.42   60.19
   0   9  -1  589.14   64.69
   0   9  -1  720.23   58.79
   0   9  -1  726.93   53.39
   0   9  -1  781.12   51.49
   0   9  -1  712.43   52.39
   0  -9   1  567.54   70.19
   1   9  -1  691.73   49.90
   1   9  -1  707.13   52.29
   1   9  -1  630.24   62.89
   1   9  -1  751.62   54.19
   1   9  -1  572.14   60.29
   1   9  -1  744.43   56.69
   1   9  -1  735.83   49.80
  -1  -9   1  576.64   66.29
   2   9  -1    2.30    7.50
   2   9  -1   12.90   15.40
   2   9  -1   24.70   12.20
   2   9  -1   19.10   23.40
   2   9  -1   50.69   19.00
   2   9  -1    8.30   12.40
  -2  -9   1   18.80   24.50
   3   9  -1  487.35   44.70
   3   9  -1  602.84   53.19
   3   9  -1  493.15   37.80
   3   9  -1  499.55   46.90
  -3  -9   1  494.15   58.69
   4   9  -1  -26.30   17.80
  -4  -9   1    7.90   23.30
  -7   9   0    4.20   18.30
  -7   9   0    3.50   14.80
   7  -9   0    8.40   26.50
   7  -9   0  -14.50   39.40
  -6   9   0  599.64   49.50
  -6   9   0  572.34   49.60
   6  -9   0  620.24   58.89
   6  -9   0  570.64   73.09
  -5   9   0  125.09   22.80
  -5   9   0  172.68   21.40
  -5   9   0  205.98   24.90
   5  -9   0  233.78   32.20
   5  -9   0  204.78   38.80
  -4   9   0  625.44   48.40
  -4   9   0  685.43   49.60
  -4   9   0  593.44   50.39
   4  -9   0  641.74   63.59
   4  -9   0  610.04   52.99
  -3   9   0  407.46   38.70
  -3   9   0  422.36   32.00
  -3   9   0  485.75   32.20
  -3   9   0  451.15   36.90
  -3   9   0  432.96   36.10
   3  -9   0  491.65   50.39
   3  -9   0  459.15   42.00
  -2   9   0  370.46   29.80
  -2   9   0  307.67   33.40
  -2   9   0  338.97   29.40
  -2   9   0  325.47   26.40
   2  -9   0  317.87   40.70
   2  -9   0  385.26   57.59
   2  -9   0  404.76   37.80
  -1   9   0 1025.20   71.09
  -1   9   0 1085.79   70.19
  -1   9   0  959.30   77.99
  -1   9   0 1054.59   69.59
  -1   9   0 1029.80   75.89
  -1   9   0 1123.29   72.69
  -1   9   0 1007.30   70.19
  -1   9   0  818.82   81.99
   1  -9   0  888.71   91.89
   0   9   0    1.90    6.60
   0   9   0   29.90   21.30
   0   9   0   11.60    9.00
   0   9   0   36.10   15.30
   0   9   0   21.60   18.80
   0   9   0   -1.30    7.60
   0   9   0    3.10    8.20
   0   9   0   15.60   17.40
   0  -9   0    8.30   28.30
   1   9   0  858.21   61.29
   1   9   0  712.13   67.19
   1   9   0  881.01   66.59
   1   9   0  857.71   59.89
   1   9   0  845.82   57.69
   1   9   0  899.71   63.69
  -1  -9   0  674.23   75.49
   2   9   0   66.39   22.70
   2   9   0   54.09   15.80
   2   9   0   85.49   13.30
   2   9   0   81.19   19.50
   2   9   0   98.89   25.50
  -2  -9   0   47.30   25.10
   3   9   0  374.36   39.50
   3   9   0  347.77   43.70
   3   9   0  360.06   38.50
   3   9   0  311.17   26.00
  -3  -9   0  322.27   47.70
   4   9   0  266.67   43.00
   4   9   0  315.87   50.29
   4   9   0  311.07   40.60
  -4  -9   0  242.88   47.30
  -7   9   1  184.28   29.00
  -7   9   1  214.78   33.40
   7  -9  -1  171.68   32.90
   7  -9  -1  180.18   48.50
  -6   9   1  209.68   29.50
  -6   9   1  243.58   27.10
   6  -9  -1  270.77   41.90
   6  -9  -1  222.38   43.80
  -5   9   1  839.82   64.89
  -5   9   1  878.41   64.19
   5  -9  -1  891.61   70.49
   5  -9  -1  871.71   80.59
  -4   9   1   34.10   16.40
  -4   9   1   47.00   11.10
  -4   9   1   61.99   14.70
   4  -9  -1   40.70   26.60
   4  -9  -1   43.20   16.80
  -3   9   1  669.33   50.19
  -3   9   1  683.83   49.00
  -3   9   1  617.64   44.90
  -3   9   1  662.33   44.90
  -3   9   1  632.94   53.59
   3  -9  -1  714.33   62.19
   3  -9  -1  690.73   55.69
  -2   9   1  117.69   16.30
  -2   9   1  124.69   15.70
  -2   9   1   98.99   12.50
  -2   9   1   67.09   17.90
   2  -9  -1   87.69   33.90
   2  -9  -1  108.79   20.90
   2  -9  -1  120.39   24.90
  -1   9   1  893.61   79.59
  -1   9   1 1002.60   69.29
  -1   9   1 1083.29   70.49
  -1   9   1  967.60   68.89
  -1   9   1  980.30   68.39
  -1   9   1  916.91   76.29
   1  -9  -1 1093.29   79.09
   0   9   1  306.97   30.00
   0   9   1  326.07   26.10
   0   9   1  315.87   27.90
   0   9   1  234.58   38.90
   0   9   1  297.87   27.40
   0   9   1  303.37   42.00
   0   9   1  339.97   33.10
   0  -9  -1  251.17   51.89
   1   9   1  293.07   42.10
   1   9   1  345.37   35.30
   1   9   1  376.26   31.60
   1   9   1  293.17   43.10
   1   9   1  297.37   25.70
  -1  -9  -1  312.77   48.40
  -1  -9  -1  321.97   51.19
   2   9   1  512.15   37.90
   2   9   1  531.35   50.89
   2   9   1  541.05   46.50
   2   9   1  535.85   50.39
   3   9   1   31.30   22.70
   3   9   1   16.10   17.00
   3   9   1   38.00   22.00
  -3  -9  -1   19.30   23.30
   4   9   1  440.66   48.70
   4   9   1  402.76   61.29
   4   9   1  465.35   57.69
  -4  -9  -1  367.26   55.89
  -7   9   2  431.66   45.80
  -7   9   2  463.55   44.10
   7  -9  -2  544.45   73.69
   7  -9  -2  496.55   59.29
  -6   9   2   12.90    9.30
  -6   9   2   23.20   14.50
   6  -9  -2    7.90   33.60
   6  -9  -2   28.00   21.80
  -5   9   2 1032.20   75.89
  -5   9   2 1025.60   74.39
   5  -9  -2 1079.29   83.59
   5  -9  -2 1038.10   90.09
  -4   9   2  436.36   36.40
  -4   9   2  501.95   39.70
   4  -9  -2  453.55   46.70
   4  -9  -2  458.45   53.39
  -3   9   2  348.17   26.20
  -3   9   2  368.16   26.60
  -3   9   2  383.46   32.20
  -3   9   2  381.56   29.80
  -3   9   2  318.67   39.80
   3  -9  -2  362.36   40.20
   3  -9  -2  309.67   46.50
  -2   9   2  727.93   50.79
  -2   9   2  700.63   50.49
  -2   9   2  623.24   58.59
  -2   9   2  629.74   47.50
  -2   9   2  703.73   48.70
   2  -9  -2  678.43   70.99
   2  -9  -2  724.23   60.19
  -1   9   2  148.49   18.30
  -1   9   2  104.59   15.40
  -1   9   2  107.99   17.40
   1  -9  -2   94.09   36.30
   1  -9  -2   81.99   20.60
   1  -9  -2  146.89   27.00
   0   9   2  777.42   53.79
   0   9   2  567.24   59.69
   0   9   2  777.82   56.19
   0   9   2  757.52   50.49
   0  -9  -2  665.73   61.39
   0  -9  -2  593.04   73.29
   1   9   2    1.80    7.10
   1   9   2    7.90   13.30
   1   9   2   40.60   22.40
   1   9   2   -3.00   12.20
  -1  -9  -2   -7.20   23.30
  -1  -9  -2   18.80   28.80
   2   9   2  401.56   30.80
   2   9   2  432.06   44.70
   2   9   2  494.95   45.00
  -2  -9  -2  369.36   53.29
  -2  -9  -2  379.16   57.39
   3   9   2  250.17   38.40
   3   9   2  239.08   37.70
  -3  -9  -2  174.78   36.60
  -3  -9  -2  215.28   44.60
   4   9   2  251.07   44.70
   4   9   2  313.27   53.59
  -4  -9  -2  235.38   42.80
  -4  -9  -2  203.88   50.99
  -7   9   3  508.05   48.10
  -7   9   3  469.55   43.80
   7  -9  -3  440.76   73.89
   7  -9  -3  516.25   62.49
  -6   9   3  215.58   30.20
  -6   9   3  243.28   26.30
   6  -9  -3  226.38   41.70
   6  -9  -3  265.07   43.60
  -5   9   3  316.07   32.20
  -5   9   3  315.47   28.50
   5  -9  -3  304.77   44.70
   5  -9  -3  305.07   51.99
  -4   9   3  918.01   62.89
  -4   9   3  875.11   65.49
   4  -9  -3  865.81   77.89
   4  -9  -3  869.41   73.39
  -3   9   3   42.30    8.90
  -3   9   3   46.20    8.30
  -3   9   3   29.60    6.50
  -3   9   3   35.00   11.60
  -3   9   3   48.60   13.70
   3  -9  -3   39.90   18.90
  -2   9   3  981.10   66.29
  -2   9   3  953.80   66.29
  -2   9   3  989.40   68.49
  -2   9   3 1006.20   69.09
   2  -9  -3 1009.50   78.99
   2  -9  -3  855.21   71.69
  -1   9   3  117.19   17.80
  -1   9   3   93.69   15.50
  -1   9   3  101.49   17.50
   1  -9  -3   58.19   20.50
   1  -9  -3   93.39   34.10
   1  -9  -3  115.69   27.50
   0   9   3  746.33   51.59
   0   9   3  767.92   56.19
   0   9   3  744.03   58.19
   0  -9  -3  567.44   74.39
   0  -9  -3  704.53   65.29
   1   9   3  354.46   39.40
   1   9   3  401.36   41.10
   1   9   3  445.06   31.00
   1   9   3  334.17   44.70
  -1  -9  -3  327.77   61.29
  -1  -9  -3  399.16   52.89
   2   9   3  183.78   31.60
   2   9   3  142.79   27.00
  -2  -9  -3  167.58   35.60
  -2  -9  -3  114.79   34.00
   3   9   3  345.77   48.20
   3   9   3  343.07   54.29
  -3  -9  -3  406.86   63.99
  -3  -9  -3  302.37   52.19
  -7   9   4   68.19   17.00
  -7   9   4   69.49   21.90
   7  -9  -4   36.00   41.30
   7  -9  -4  114.29   32.50
  -6   9   4  572.54   45.40
  -6   9   4  546.05   49.40
   6  -9  -4  494.95   66.69
   6  -9  -4  573.34   60.29
  -5   9   4   19.50    8.70
  -5   9   4   28.20   13.70
   5  -9  -4   58.99   29.50
   5  -9  -4   19.10   21.30
  -4   9   4  620.64   48.60
  -4   9   4  634.14   50.99
  -4   9   4  640.64   46.80
   4  -9  -4  645.54   60.99
  -3   9   4  364.46   32.30
  -3   9   4  400.96   34.70
  -3   9   4  340.87   28.50
  -3   9   4  382.86   28.80
   3  -9  -4  354.36   36.30
   3  -9  -4  313.57   45.60
  -2   9   4  652.43   44.30
  -2   9   4  662.43   48.50
  -2   9   4  592.74   45.90
   2  -9  -4  589.14   51.99
   2  -9  -4  659.83   62.69
  -1   9   4  518.55   41.90
  -1   9   4  569.14   40.30
  -1   9   4  535.15   43.50
   1  -9  -4  494.25   48.60
   1  -9  -4  491.05   56.79
   1  -9  -4  417.26   58.29
   0   9   4   53.09   11.70
   0   9   4   47.10   15.10
   0   9   4   57.59   18.00
   0  -9  -4   25.20   33.40
   0  -9  -4   50.79   24.50
   1   9   4  683.43   58.59
   1   9   4  719.83   49.00
   1   9   4  718.43   58.69
  -1  -9  -4  688.83   67.99
  -1  -9  -4  516.45   73.89
   2   9   4    1.20   22.80
   2   9   4   14.80   20.00
  -2  -9  -4   -4.00   30.20
  -2  -9  -4   -7.30   28.10
   3   9   4  272.57   45.10
   3   9   4  345.37   49.90
  -3  -9  -4  363.46   64.09
  -3  -9  -4  186.58   40.40
  -7   9   5   51.29   15.40
  -7   9   5   64.49   23.00
   7  -9  -5  -13.60   40.70
   7  -9  -5   93.89   33.50
  -6   9   5  310.87   39.50
  -6   9   5  386.26   34.00
   6  -9  -5  334.17   53.99
   6  -9  -5  457.55   65.09
  -5   9   5  296.77   27.00
  -5   9   5  281.17   29.10
  -5   9   5  285.27   32.80
   5  -9  -5  258.47   40.20
  -4   9   5  149.99   26.20
  -4   9   5  188.08   23.20
  -4   9   5  192.98   19.80
   4  -9  -5  170.78   32.50
   4  -9  -5  191.28   27.70
  -3   9   5  970.20   68.29
  -3   9   5  824.92   64.39
  -3   9   5  987.10   69.59
  -3   9   5 1009.40   63.89
   3  -9  -5  912.31   79.39
   3  -9  -5  903.71   70.09
  -2   9   5    2.00   10.70
  -2   9   5    4.50   11.60
  -2   9   5   10.20   10.70
   2  -9  -5   10.30   22.60
   2  -9  -5   18.50   15.50
  -1   9   5  654.33   52.09
  -1   9   5  631.34   48.10
   1  -9  -5  666.83   64.79
   1  -9  -5  568.94   56.69
   0   9   5  174.58   29.50
   0   9   5  179.48   22.10
   0   9   5  199.28   30.30
   0  -9  -5  171.38   32.20
   1   9   5  407.46   44.50
   1   9   5  378.56   32.30
   1   9   5  334.57   43.30
  -1  -9  -5  341.07   54.19
   2   9   5  192.48   32.10
   2   9   5  156.28   34.20
  -2  -9  -5  205.28   38.70
  -7   9   6  352.96   35.30
  -7   9   6  269.67   35.30
  -7   9   6  305.37   43.60
   7  -9  -6  372.66   50.89
  -6   9   6   91.29   19.40
  -6   9   6   54.39   21.60
  -6   9   6   87.49   16.90
   6  -9  -6   78.59   30.70
  -5   9   6  617.74   46.50
  -5   9   6  600.94   52.09
  -5   9   6  571.04   47.80
   5  -9  -6  630.74   63.69
  -4   9   6   -9.40   12.90
  -4   9   6   14.40   11.40
  -4   9   6   16.80   12.10
   4  -9  -6   11.40   21.60
   4  -9  -6  -21.30   15.30
  -3   9   6  642.04   51.69
  -3   9   6  678.03   50.69
  -3   9   6  520.45   46.50
   3  -9  -6  714.53   54.19
   3  -9  -6  652.73   64.39
  -2   9   6  308.57   32.90
  -2   9   6  347.77   33.00
   2  -9  -6  269.77   38.80
   2  -9  -6  306.17   49.00
  -1   9   6  454.25   41.90
  -1   9   6  444.16   38.90
   1  -9  -6  535.45   59.39
   1  -9  -6  439.56   51.69
   0   9   6  564.74   52.09
   0   9   6  571.34   51.79
   0   9   6  559.44   44.30
   0  -9  -6  501.35   59.99
   1   9   6   45.90   23.00
   1   9   6   16.90   21.00
  -1  -9  -6   46.10   28.20
   2   9   6  521.55   56.89
   2   9   6  463.45   60.19
  -2  -9  -6  529.55   69.39
  -7   9   7  328.77   37.10
   7  -9  -7  403.06   65.49
  -6   9   7  181.38   30.00
  -6   9   7  170.18   28.30
  -6   9   7  163.08   25.50
   6  -9  -7  226.28   39.00
  -5   9   7  354.06   35.60
  -5   9   7  328.07   39.50
   5  -9  -7  404.36   54.29
  -4   9   7  341.37   36.10
  -4   9   7  277.77   32.50
   4  -9  -7  350.36   50.99
  -3   9   7   23.10   15.50
  -3   9   7   39.80   15.10
   3  -9  -7   40.40   18.00
   3  -9  -7   36.30   26.90
  -2   9   7  636.74   52.79
  -2   9   7  604.14   52.49
   2  -9  -7  646.44   59.09
   2  -9  -7  617.24   68.89
  -1   9   7   47.00   20.00
  -1   9   7   15.10   15.30
   1  -9  -7   23.40   22.70
   1  -9  -7    9.20   27.80
   0   9   7  501.45   44.80
   0   9   7  543.75   52.69
   0   9   7  550.34   53.79
   0  -9  -7  476.75   59.99
   1   9   7  103.69   25.60
   1   9   7  139.59   31.40
  -1  -9  -7   96.39   30.80
  -6   9   8  268.47   33.30
  -6   9   8  223.38   39.40
  -5   9   8   20.20   15.50
  -5   9   8   10.00   19.40
   5  -9  -8   11.50   28.60
  -4   9   8  401.26   40.60
  -4   9   8  393.06   44.40
   4  -9  -8  500.15   57.69
   4  -9  -8  494.05   46.90
  -3   9   8   46.90   18.00
  -3   9   8   51.49   20.00
   3  -9  -8   84.49   23.50
   3  -9  -8   70.29   31.00
  -2   9   8  506.25   50.59
  -2   9   8  571.74   50.59
   2  -9  -8  660.33   70.89
   2  -9  -8  578.84   57.69
  -1   9   8  234.78   35.90
  -1   9   8  272.17   39.40
   1  -9  -8  267.07   49.10
   1  -9  -8  335.97   49.10
   0   9   8  152.68   32.70
   0   9   8  152.88   29.20
   0  -9  -8  141.99   33.40
  -5   9   9  124.69   24.40
   5  -9  -9  123.99   36.90
  -4   9   9  227.48   31.80
  -4   9   9  178.18   30.90
   4  -9  -9  237.28   43.00
   4  -9  -9  214.38   41.10
  -3   9   9  397.46   43.90
  -3   9   9  467.75   49.50
   3  -9  -9  519.85   67.89
   3  -9  -9  615.04   54.89
  -2   9   9  115.29   26.10
  -2   9   9  132.59   27.20
   2  -9  -9   60.69   35.70
   2  -9  -9  141.09   29.70
  -1   9   9  545.85   54.89
  -1   9   9  550.34   53.09
  -1   9   9  517.05   56.69
   1  -9  -9  593.34   64.69
   1  -9  -9  585.84   76.49
  -4   9  10   46.90   25.70
  -4   9  10   40.80   18.90
   4  -9 -10   13.70   36.10
  -3   9  10  447.96   46.60
  -3   9  10  317.87   49.30
   3  -9 -10  443.36   74.39
   3  -9 -10  503.15   54.49
  -2   9  10   94.99   29.00
  -2   9  10  122.69   29.20
   2  -9 -10   74.39   43.40
   2  -9 -10  142.19   30.00
  -1  10 -10   43.70   26.60
   1 -10  10   43.70   56.99
   0  10 -10  280.17   38.60
   0 -10  10  187.28   67.09
   0 -10  10  295.77   53.49
   1  10 -10  -21.00   22.50
  -1 -10  10   -2.20   58.79
  -1 -10  10  -40.80   43.60
   2  10 -10  271.07   38.10
  -2 -10  10  224.48   58.79
  -3  10  -9   31.90   22.60
  -3  10  -9    8.00   17.20
   3 -10   9   93.09   43.80
  -2  10  -9  425.86   48.00
   2 -10   9  262.67   68.59
  -1  10  -9  -19.50   20.70
   1 -10   9   -7.50   32.10
   1 -10   9  -56.79   49.10
   0  10  -9  240.08   39.70
   0 -10   9  189.88   58.49
   1  10  -9  150.98   26.80
  -1 -10   9   55.69   51.69
  -1 -10   9  117.89   47.10
   2  10  -9   59.89   23.80
  -2 -10   9   35.50   43.30
  -2 -10   9   31.60   43.60
   3  10  -9  204.58   34.30
  -3 -10   9  176.68   54.99
  -3 -10   9  122.99   53.89
  -3  10  -8  138.39   25.90
  -3  10  -8  150.58   31.30
   3 -10   8  194.88   42.90
  -2  10  -8  256.17   39.40
   2 -10   8  202.78   62.79
  -1  10  -8  443.86   46.30
   1 -10   8  470.55   62.19
   0  10  -8   45.60   20.00
   0 -10   8    4.90   41.40
   0 -10   8   99.39   29.10
   1  10  -8  368.26   42.60
  -1 -10   8  305.37   58.29
  -1 -10   8  311.57   48.20
   2  10  -8  -20.60   20.10
  -2 -10   8  -11.10   37.00
  -2 -10   8   -5.90   41.10
  -3 -10   8  231.78   60.39
  -3 -10   8  221.18   51.49
  -4  10  -7   29.80   18.10
  -4  10  -7   57.79   20.70
   4 -10   7    2.90   36.30
  -3  10  -7  429.36   42.60
  -3  10  -7  408.26   42.90
   3 -10   7  510.35   66.99
  -2  10  -7   -4.30   18.50
   2 -10   7    9.40   29.50
   2 -10   7   12.30   38.70
  -1  10  -7  513.55   47.20
   1 -10   7  469.95   60.99
   0  10  -7   26.00   16.80
   0  10  -7   11.80   23.90
   0 -10   7   13.70   23.70
   0 -10   7   19.50   40.80
   1  10  -7  346.57   39.20
   1  10  -7  293.97   27.80
  -1 -10   7  256.97   42.30
   2  10  -7  365.26   42.10
   2  10  -7  346.67   35.50
  -2 -10   7  289.67   57.09
   3  10  -7  144.59   28.00
   3  10  -7   92.09   23.80
  -3 -10   7   91.19   49.70
  -3 -10   7   87.99   44.00
   4  10  -7  148.89   31.90
   4  10  -7  196.38   35.40
  -4 -10   7  195.48   58.99
  -4 -10   7  138.99   46.30
  -5  10  -6  714.23   60.49
  -5  10  -6  665.83   62.79
   5 -10   6  779.72   90.59
  -4  10  -6   49.70   17.60
  -4  10  -6    6.60   15.70
  -4  10  -6   24.60   15.20
   4 -10   6   46.80   36.30
  -3  10  -6  540.65   47.60
  -3  10  -6  497.35   44.90
   3 -10   6  550.64   67.39
  -2  10  -6  180.28   27.70
   2 -10   6  273.97   40.60
   2 -10   6  121.29   44.10
  -1  10  -6  290.07   33.10
   1 -10   6  217.58   52.89
   1 -10   6  303.77   46.00
   0  10  -6  208.38   31.10
   0  10  -6  220.08   20.60
   0 -10   6  195.18   30.80
   1  10  -6   44.30   18.60
   1  10  -6   54.09   12.80
  -1 -10   6   29.30   33.10
   2  10  -6  581.14   51.69
   2  10  -6  609.04   48.30
  -2 -10   6  439.56   67.19
   3  10  -6    2.10   20.70
   3  10  -6    5.10   20.30
  -3 -10   6   10.20   34.40
   4  10  -6  297.57   52.89
   4  10  -6  254.27   45.20
  -4 -10   6  242.78   58.49
  -5  10  -5  277.67   37.60
  -5  10  -5  298.97   35.80
   5 -10   5  275.57   47.90
  -4  10  -5  338.77   38.00
  -4  10  -5  410.56   33.90
  -4  10  -5  373.76   38.40
   4 -10   5  412.76   64.99
  -3  10  -5   72.79   17.10
  -3  10  -5   56.59   16.50
  -3  10  -5   95.09   18.70
   3 -10   5  108.49   32.40
   3 -10   5   26.70   38.20
  -2  10  -5 1071.79   78.69
   2 -10   5 1093.69   78.59
   2 -10   5 1215.48   94.69
  -1  10  -5   -1.40    7.90
  -1  10  -5    5.20   12.70
  -1  10  -5   -2.10    7.80
   1 -10   5  -18.00   31.70
   1 -10   5   29.00   21.50
   0  10  -5  621.74   51.39
   0  10  -5  608.64   45.20
   0  10  -5  669.73   49.00
   0  10  -5  563.84   54.49
   0 -10   5  628.34   56.19
   1  10  -5   63.89   14.20
   1  10  -5   89.59   19.80
   1  10  -5   86.49   14.10
   1  10  -5   71.19   17.20
   1  10  -5   41.60   19.90
  -1 -10   5   13.00   30.10
   2  10  -5  364.66   37.30
   2  10  -5  285.97   26.60
   2  10  -5  329.97   36.60
  -2 -10   5  248.28   48.30
   3  10  -5  242.18   37.90
   3  10  -5  249.88   42.20
  -3 -10   5  205.48   44.60
   4  10  -5   94.69   30.00
   4  10  -5   73.69   24.80
  -4 -10   5   86.79   44.10
  -6  10  -4  316.67   39.80
  -6  10  -4  329.77   38.50
   6 -10   4  201.88   52.79
  -5  10  -4   52.59   17.30
  -5  10  -4   49.80   17.20
   5 -10   4   65.49   38.00
  -4  10  -4  686.53   56.79
  -4  10  -4  673.53   55.49
  -4  10  -4  727.43   50.09
   4 -10   4  698.73   73.29
  -3  10  -4   22.50    8.50
  -3  10  -4   15.00   10.80
  -3  10  -4   -7.90   10.80
  -3  10  -4    8.90    8.90
  -3  10  -4   12.50   12.00
   3 -10   4   -6.00   26.60
   3 -10   4   -2.70   31.50
  -2  10  -4  384.86   30.50
  -2  10  -4  363.86   48.60
  -2  10  -4  421.66   29.80
  -2  10  -4  399.26   34.20
   2 -10   4  373.16   69.79
   2 -10   4  415.36   52.59
  -1  10  -4  488.95   37.40
  -1  10  -4  481.15   57.69
  -1  10  -4  444.86   37.70
  -1  10  -4  444.36   33.90
   1 -10   4  306.37   63.49
   1 -10   4  503.75   48.60
   0  10  -4  228.58   23.40
   0  10  -4  248.88   34.80
   0  10  -4  214.18   26.80
   0  10  -4  221.28   30.00
   0 -10   4  196.58   46.80
   0 -10   4  241.08   32.80
   1  10  -4  274.37   40.60
   1  10  -4  282.47   25.10
   1  10  -4  277.27   32.40
   1  10  -4  315.67   30.00
   1  10  -4  301.87   34.90
  -1 -10   4  203.48   44.10
   2  10  -4   30.80   16.70
   2  10  -4   13.70   16.20
   2  10  -4   39.00   11.40
  -2 -10   4    3.90   28.50
   3  10  -4  598.44   52.29
  -3 -10   4  517.05   68.49
   4  10  -4  -14.00   25.70
   4  10  -4   -8.90   19.70
  -4 -10   4  -12.60   36.00
  -6  10  -3  451.35   48.80
  -6  10  -3  455.45   45.70
   6 -10   3  427.36   73.09
  -5  10  -3   86.09   18.00
  -5  10  -3   95.89   19.60
   5 -10   3  122.19   38.70
  -4  10  -3  550.64   40.80
  -4  10  -3  546.35   47.00
  -4  10  -3  577.04   48.30
   4 -10   3  629.44   50.29
   4 -10   3  614.34   65.69
  -3  10  -3  758.92   55.89
  -3  10  -3  767.12   60.49
  -3  10  -3  774.72   55.69
  -3  10  -3  812.52   59.99
  -3  10  -3  814.32   61.49
   3 -10   3  824.72   73.79
   3 -10   3  791.22   60.79
   3 -10   3  747.23   89.09
  -2  10  -3  103.69   18.70
  -2  10  -3   86.69   16.60
  -2  10  -3   79.49   13.40
  -2  10  -3  105.89   13.80
  -2  10  -3   72.09   20.40
   2 -10   3   60.19   37.40
   2 -10   3   88.99   26.20
  -1  10  -3  865.81   71.09
  -1  10  -3  871.61   59.39
  -1  10  -3  940.61   62.89
  -1  10  -3  721.13   69.39
  -1  10  -3  847.42   60.89
   1 -10   3  665.03   86.19
   1 -10   3  907.91   70.49
   0  10  -3   27.70   19.80
   0  10  -3    9.10    9.60
   0  10  -3   -1.10   10.50
   0  10  -3    7.70   15.80
   0 -10   3  -27.30   29.60
   1  10  -3  429.26   48.40
   1  10  -3  428.96   41.00
   1  10  -3  362.26   35.90
   1  10  -3  369.76   35.90
   1  10  -3  357.36   30.90
  -1 -10   3  277.77   54.49
   2  10  -3   94.29   15.60
   2  10  -3  156.98   24.20
   2  10  -3   90.69   20.60
  -2 -10   3   75.69   30.50
   3  10  -3  258.87   35.50
   3  10  -3  263.27   41.60
  -3 -10   3  168.78   40.10
   4  10  -3  308.97   42.00
   4  10  -3  306.77   43.90
  -4 -10   3  208.48   52.89
  -6  10  -2   85.19   20.30
  -6  10  -2   72.89   19.20
   6 -10   2   44.90   40.30
  -5  10  -2  384.16   35.50
  -5  10  -2  330.87   34.90
   5 -10   2  379.86   42.40
   5 -10   2  276.57   46.70
  -4  10  -2   40.60   13.20
  -4  10  -2   28.30   12.40
  -4  10  -2   23.50   12.70
   4 -10   2   38.70   27.50
   4 -10   2   42.20   18.80
  -3  10  -2  963.60   66.79
  -3  10  -2  859.41   63.29
  -3  10  -2  931.21   68.59
  -3  10  -2  932.41   66.49
  -3  10  -2  930.41   68.09
   3 -10   2  957.70   81.19
   3 -10   2  849.81   93.29
   3 -10   2  981.70   70.89
  -2  10  -2  123.49   17.10
  -2  10  -2   97.59   15.90
  -2  10  -2  149.88   21.40
  -2  10  -2  120.59   21.40
  -2  10  -2  165.08   26.30
   2 -10   2  115.19   29.70
   2 -10   2  106.19   41.30
  -1  10  -2  621.04   52.49
  -1  10  -2  495.15   54.79
  -1  10  -2  622.94   43.80
  -1  10  -2  549.45   45.40
  -1  10  -2  598.74   48.30
  -1  10  -2  559.04   43.90
   1 -10   2  627.74   55.69
   1 -10   2  505.05   71.69
   0  10  -2  442.96   35.90
   0  10  -2  476.25   45.70
   0  10  -2  406.46   36.10
   0  10  -2  456.05   36.70
   0  10  -2  418.26   43.70
   0  10  -2  434.26   34.00
   0 -10   2  292.97   60.19
   1  10  -2  327.47   36.40
   1  10  -2  263.57   30.20
   1  10  -2  233.38   28.80
   1  10  -2  225.78   23.70
  -1 -10   2  159.38   38.00
   2  10  -2  676.03   53.89
   2  10  -2  591.14   46.10
   2  10  -2  599.64   56.19
   2  10  -2  538.25   66.89
   2  10  -2  561.64   49.20
  -2 -10   2  433.46   65.49
   3  10  -2   17.10   11.60
   3  10  -2   -5.20   18.00
   3  10  -2    8.90   17.00
   3  10  -2  -12.50   19.90
  -3 -10   2   -2.30   27.30
   4  10  -2  346.77   44.50
   4  10  -2  338.47   53.69
  -4 -10   2  308.37   59.19
  -6  10  -1    1.80   11.40
  -6  10  -1   -5.30   14.70
   6 -10   1   38.70   36.60
   6 -10   1   -3.60   25.30
  -5  10  -1  382.06   36.80
  -5  10  -1  378.46   37.30
   5 -10   1  443.56   60.29
   5 -10   1  437.16   45.50
  -4  10  -1  216.38   24.00
  -4  10  -1  207.28   25.60
  -4  10  -1  184.48   26.00
   4 -10   1  216.28   33.20
   4 -10   1  228.28   38.80
  -3  10  -1  496.65   40.40
  -3  10  -1  571.74   45.60
  -3  10  -1  544.05   46.10
  -3  10  -1  553.94   45.50
  -3  10  -1  616.64   43.10
   3 -10   1  637.74   51.69
   3 -10   1  671.93   61.99
  -2  10  -1  562.44   43.80
  -2  10  -1  525.65   45.10
  -2  10  -1  513.15   39.50
  -2  10  -1  495.95   42.70
   2 -10   1  623.34   49.90
   2 -10   1  533.85   55.99
   2 -10   1  468.15   69.69
  -1  10  -1   99.99   18.80
  -1  10  -1  138.29   18.70
  -1  10  -1  179.38   27.20
  -1  10  -1  131.09   17.90
  -1  10  -1  124.89   21.90
   1 -10   1  125.49   41.00
   0  10  -1  692.83   59.19
   0  10  -1  582.54   58.49
   0  10  -1  648.94   48.80
   0  10  -1  681.23   50.79
   0  10  -1  674.23   48.30
   0  10  -1  666.33   49.50
   0 -10   1  534.05   70.29
   1  10  -1    5.20    9.70
   1  10  -1  -22.00   21.00
   1  10  -1   61.19   30.40
   1  10  -1   10.60   12.20
   1  10  -1    7.20   10.90
   1  10  -1   -1.50   13.50
  -1 -10   1  -11.50   28.40
   2  10  -1  692.23   48.80
   2  10  -1  680.13   52.89
   2  10  -1  638.94   66.09
   2  10  -1  666.43   60.59
   2  10  -1  761.52   59.79
   2  10  -1  640.14   54.29
  -2 -10   1  518.45   68.49
   3  10  -1  136.09   19.10
   3  10  -1  107.69   23.00
   3  10  -1  148.09   28.30
   3  10  -1  123.79   22.80
  -3 -10   1   90.59   32.00
   4  10  -1  167.98   36.50
   4  10  -1  152.58   28.00
  -4 -10   1  119.59   39.30
  -7  10   0  212.28   35.40
  -7  10   0  211.28   35.20
   7 -10   0  225.38   39.90
   7 -10   0  173.28   53.69
  -6  10   0  358.36   36.70
  -6  10   0  342.17   38.30
   6 -10   0  495.65   54.09
   6 -10   0  375.06   58.69
  -5  10   0  100.49   19.70
  -5  10   0   91.89   17.60
   5 -10   0  106.09   23.70
   5 -10   0  107.09   33.40
  -4  10   0  642.44   56.29
  -4  10   0  696.83   54.79
  -4  10   0  676.03   53.49
   4 -10   0  765.82   59.99
   4 -10   0  787.82   70.79
  -3  10   0   39.30   12.80
  -3  10   0   56.79   11.90
  -3  10   0   55.39   15.00
  -3  10   0   28.90    8.40
   3 -10   0   62.99   19.00
   3 -10   0   46.90   26.20
  -2  10   0  894.31   71.49
  -2  10   0  896.11   64.49
  -2  10   0  934.61   67.69
  -2  10   0  962.70   66.39
   2 -10   0 1008.60   74.79
   2 -10   0 1008.40   79.69
   2 -10   0  890.61   92.09
  -1  10   0  228.78   22.90
  -1  10   0  227.48   24.50
  -1  10   0  240.08   34.90
  -1  10   0  250.47   24.00
  -1  10   0  268.17   28.80
  -1  10   0  188.38   22.70
   1 -10   0  213.18   47.00
   0  10   0  343.07   29.60
   0  10   0  310.47   31.80
   0  10   0  356.16   28.60
   0  10   0  297.17   29.50
   0 -10   0  255.37   49.60
   1  10   0  238.58   26.10
   1  10   0  220.48   26.60
   1  10   0  185.58   30.40
   1  10   0  213.58   21.40
   1  10   0  150.68   32.40
   1  10   0  154.08   34.10
  -1 -10   0  148.99   37.60
   2  10   0  184.68   29.30
   2  10   0  199.58   30.70
   2  10   0  154.88   24.50
   2  10   0  180.48   19.30
  -2 -10   0  152.88   36.70
   3  10   0  566.54   53.49
   3  10   0  635.64   60.09
   3  10   0  596.14   53.89
  -3 -10   0  422.16   62.19
   4  10   0   -8.70   23.00
   4  10   0  -24.00   28.40
  -4 -10   0  -15.70   29.90
  -7  10   1   55.39   21.00
  -7  10   1   44.60   17.60
   7 -10  -1   75.99   45.80
   7 -10  -1   89.59   31.00
  -6  10   1  531.65   46.30
  -6  10   1  476.65   44.00
   6 -10  -1  485.25   70.09
   6 -10  -1  565.14   57.49
  -5  10   1   57.09   14.20
  -5  10   1   74.49   17.90
   5 -10  -1   74.09   32.20
   5 -10  -1   62.39   23.00
  -4  10   1  903.81   69.79
  -4  10   1  920.31   68.49
   4 -10  -1 1066.19   84.79
   4 -10  -1  981.20   75.99
  -3  10   1  302.67   40.70
  -3  10   1  386.36   33.60
  -3  10   1  381.76   31.20
  -3  10   1  334.37   26.80
  -3  10   1  383.26   27.60
   3 -10  -1  356.06   49.10
   3 -10  -1  341.67   41.70
  -2  10   1  384.16   30.90
  -2  10   1  330.27   43.00
  -2  10   1  361.46   32.70
  -2  10   1  384.96   32.70
  -2  10   1  342.47   28.90
   2 -10  -1  387.06   43.40
   2 -10  -1  391.86   61.39
  -1  10   1  700.43   52.29
  -1  10   1  692.03   50.09
  -1  10   1  667.03   49.00
  -1  10   1  648.14   51.29
  -1  10   1  694.53   50.39
   1 -10  -1  514.85   73.19
   0  10   1   40.90   13.60
   0  10   1   -0.40   26.50
   0  10   1   47.10   15.60
   0  10   1   44.00   11.50
   0  10   1   46.10   13.00
   0 -10  -1   25.30   33.30
   1  10   1  557.14   41.40
   1  10   1  557.64   46.40
   1  10   1  555.64   45.90
   1  10   1  562.54   49.50
   1  10   1  524.45   55.99
  -1 -10  -1  517.15   65.69
   2  10   1   -2.50   16.70
   2  10   1   -4.70   15.00
   2  10   1  -10.40   18.10
   2  10   1   -1.20    9.00
  -2 -10  -1   16.60   29.80
   3  10   1  416.96   52.39
   3  10   1  390.16   50.59
   3  10   1  362.16   44.10
  -3 -10  -1  258.37   54.19
  -7  10   2   55.99   20.90
  -7  10   2  101.19   21.10
   7 -10  -2  104.39   33.20
   7 -10  -2  142.79   50.09
  -6  10   2  376.06   39.50
  -6  10   2  374.76   36.20
   6 -10  -2  387.86   58.99
   6 -10  -2  478.85   53.29
  -5  10   2  234.18   24.20
  -5  10   2  206.38   28.30
   5 -10  -2  198.28   39.20
   5 -10  -2  251.67   43.40
  -4  10   2  117.59   20.20
  -4  10   2  103.19   15.80
   4 -10  -2  117.39   27.00
   4 -10  -2   80.09   30.90
  -3  10   2 1117.09   76.39
  -3  10   2 1074.99   76.19
  -3  10   2 1157.88   79.39
  -3  10   2 1186.68   81.49
   3 -10  -2 1252.47   90.89
   3 -10  -2 1116.09   92.89
  -2  10   2   18.50   10.40
  -2  10   2    1.50   10.30
  -2  10   2   35.80    9.20
  -2  10   2   12.20    8.10
   2 -10  -2    2.40   33.50
   2 -10  -2   -5.40   20.20
  -1  10   2  851.21   61.29
  -1  10   2  816.42   62.79
  -1  10   2  895.41   62.59
  -1  10   2  855.81   64.59
  -1  10   2  853.21   60.69
   1 -10  -2  818.22   86.59
   0  10   2  120.09   20.90
   0  10   2  126.39   29.30
   0  10   2  198.48   25.30
   0  10   2  156.48   18.60
   0 -10  -2  116.29   30.90
   0 -10  -2  143.19   41.40
   1  10   2  398.86   32.00
   1  10   2  412.16   51.09
   1  10   2  447.86   41.50
   1  10   2  443.66   42.60
  -1 -10  -2  271.17   59.49
  -1 -10  -2  317.17   54.49
   2  10   2  343.17   45.80
   2  10   2  384.26   44.80
  -2 -10  -2  333.77   60.59
  -2 -10  -2  286.07   57.49
   3  10   2  103.39   33.30
   3  10   2   75.59   28.40
  -3 -10  -2   33.30   31.30
  -7  10   3  449.16   48.20
  -7  10   3  487.15   44.40
   7 -10  -3  394.26   60.19
   7 -10  -3  584.54   65.39
  -6  10   3   92.99   18.90
  -6  10   3   59.09   19.60
   6 -10  -3   97.29   29.20
   6 -10  -3   85.39   39.60
  -5  10   3  691.73   51.29
  -5  10   3  652.13   54.19
   5 -10  -3  553.74   70.99
   5 -10  -3  747.13   65.89
  -4  10   3   51.29   10.90
  -4  10   3   49.00   15.40
   4 -10  -3   66.59   25.10
   4 -10  -3   46.40   27.50
  -3  10   3  757.62   52.39
  -3  10   3  748.73   51.99
  -3  10   3  770.12   57.49
  -3  10   3  774.52   54.09
  -3  10   3  758.92   56.29
   3 -10  -3  677.63   69.59
  -2  10   3  278.97   24.00
  -2  10   3  237.98   27.20
  -2  10   3  234.58   26.80
   2 -10  -3  250.67   38.70
   2 -10  -3  200.68   35.20
  -1  10   3  107.69   18.90
  -1  10   3  148.79   22.90
   1 -10  -3  120.49   29.80
   1 -10  -3  123.89   26.30
   1 -10  -3  129.39   42.30
   0  10   3  441.16   42.20
   0  10   3  491.55   41.30
   0  10   3  426.96   34.70
   0 -10  -3  340.47   69.99
   0 -10  -3  348.77   55.39
   1  10   3    2.30    9.30
   1  10   3   13.00   16.10
   1  10   3    2.80   18.40
  -1 -10  -3    2.80   36.60
  -1 -10  -3   21.40   28.60
   2  10   3  518.85   55.59
   2  10   3  557.94   55.59
  -2 -10  -3  559.94   70.59
  -2 -10  -3  382.86   65.79
   3  10   3  -16.70   26.00
   3  10   3   33.60   34.10
  -3 -10  -3    6.80   41.40
  -3 -10  -3  -24.30   30.70
  -7  10   4  420.16   46.50
  -7  10   4  446.56   40.70
   7 -10  -4  268.57   57.29
   7 -10  -4  501.25   66.09
  -6  10   4  171.28   24.30
  -6  10   4  217.18   32.00
   6 -10  -4  150.98   34.00
   6 -10  -4  115.29   44.70
  -5  10   4  223.88   22.90
  -5  10   4  161.08   29.00
   5 -10  -4  186.28   42.70
   5 -10  -4  252.27   39.20
  -4  10   4  489.95   41.00
  -4  10   4  519.85   43.20
  -4  10   4  513.65   38.40
  -4  10   4  437.96   34.50
   4 -10  -4  552.24   56.89
  -3  10   4  138.69   23.00
  -3  10   4  138.99   18.80
  -3  10   4  165.38   24.30
  -3  10   4  173.78   18.40
   3 -10  -4  180.68   32.90
   3 -10  -4  275.97   43.30
  -2  10   4 1977.80  126.99
  -2  10   4 1976.40  131.49
  -2  10   4 1982.70  130.89
  -2  10   4 1734.93  128.09
   2 -10  -4 1756.72  134.39
   2 -10  -4 2181.68  143.79
  -1  10   4   -1.80   13.70
  -1  10   4    4.50   10.70
   1 -10  -4    1.60   24.90
   1 -10  -4    8.50   36.50
   1 -10  -4   31.50   22.90
   0  10   4  397.56   32.90
   0  10   4  363.16   38.90
   0  10   4  416.36   40.90
   0  10   4  309.97   50.19
   0 -10  -4  339.47   66.89
   0 -10  -4  398.86   52.49
   1  10   4  232.98   34.10
   1  10   4  195.08   23.40
   1  10   4  266.77   35.80
  -1 -10  -4  133.89   37.60
   2  10   4  312.17   49.60
   2  10   4  270.17   43.60
  -2 -10  -4  207.58   45.90
  -7  10   5  116.09   26.80
  -7  10   5   99.39   20.20
   7 -10  -5  169.38   40.20
   7 -10  -5   67.99   47.30
  -6  10   5  437.16   42.70
  -6  10   5  455.35   47.90
  -6  10   5  501.95   41.20
   6 -10  -5  563.94   63.09
  -5  10   5   -1.00   16.40
  -5  10   5    6.20    9.30
  -5  10   5   11.50   12.50
   5 -10  -5  -20.00   25.40
  -4  10   5  496.95   43.30
  -4  10   5  524.65   39.90
  -4  10   5  514.45   45.90
   4 -10  -5  531.15   59.29
  -3  10   5   62.79   13.00
  -3  10   5   73.19   13.80
  -3  10   5   97.19   19.50
  -3  10   5   99.49   19.10
   3 -10  -5   80.59   22.20
   3 -10  -5   79.89   27.00
  -2  10   5  417.86   37.50
  -2  10   5  344.97   36.60
   2 -10  -5  394.06   53.79
   2 -10  -5  381.96   44.40
  -1  10   5  455.25   39.70
  -1  10   5  490.05   43.60
   1 -10  -5  461.55   58.69
   1 -10  -5  415.36   55.49
   0  10   5  173.08   28.20
   0  10   5  133.29   22.10
   0  10   5  168.38   28.10
   0 -10  -5  126.19   33.70
   1  10   5  669.33   61.79
   1  10   5  666.23   63.39
  -1 -10  -5  637.34   74.59
   2  10   5    9.90   25.60
   2  10   5   28.40   29.60
  -2 -10  -5   39.90   36.90
  -6  10   6  505.45   41.50
  -6  10   6  431.16   47.90
  -6  10   6  430.16   42.10
   6 -10  -6  541.55   64.19
  -5  10   6  117.79   19.70
  -5  10   6  157.08   22.90
  -5  10   6  133.29   24.60
   5 -10  -6  116.09   32.40
  -4  10   6  344.67   34.70
  -4  10   6  312.57   36.40
   4 -10  -6  349.07   50.99
   4 -10  -6  344.47   46.60
  -3  10   6  615.24   51.49
  -3  10   6  564.64   50.39
   3 -10  -6  691.63   67.19
   3 -10  -6  607.44   57.19
  -2  10   6   66.29   19.00
  -2  10   6   50.19   17.60
   2 -10  -6   45.60   28.20
   2 -10  -6   49.80   24.50
  -1  10   6  525.45   49.00
  -1  10   6  545.35   46.50
   1 -10  -6  581.94   59.19
   1 -10  -6  522.45   66.59
   0  10   6  -24.70   18.70
   0  10   6   17.30   18.60
   0 -10  -6   10.10   28.40
   1  10   6  267.57   44.50
   1  10   6  278.37   47.30
  -1 -10  -6  393.56   63.29
  -6  10   7   66.39   17.90
  -6  10   7   61.09   25.00
   6 -10  -7   23.30   33.00
  -5  10   7  618.04   52.09
  -5  10   7  611.04   56.49
   5 -10  -7  662.43   70.99
  -4  10   7   -6.50   15.60
  -4  10   7   -8.40   13.50
   4 -10  -7  -16.10   27.10
  -3  10   7  432.16   42.70
  -3  10   7  442.36   42.70
   3 -10  -7  486.45   52.19
   3 -10  -7  407.26   60.49
  -2  10   7  216.78   33.10
  -2  10   7  162.38   30.20
   2 -10  -7  150.78   31.80
   2 -10  -7  222.78   41.70
  -1  10   7  442.06   48.60
  -1  10   7  419.66   47.50
  -1  10   7  446.46   43.50
   1 -10  -7  475.25   56.89
   0  10   7  265.07   43.10
   0  10   7  324.67   45.60
   0 -10  -7  359.46   49.40
  -5  10   8  224.08   38.30
  -5  10   8  246.08   32.80
   5 -10  -8  210.68   40.50
  -4  10   8  265.67   37.90
  -4  10   8  235.98   32.50
   4 -10  -8  302.37   55.59
  -3  10   8  100.79   25.10
  -3  10   8   94.19   21.80
   3 -10  -8  157.18   32.90
   3 -10  -8  150.58   40.20
  -2  10   8  715.63   60.99
  -2  10   8  637.74   60.19
   2 -10  -8  807.22   71.59
   2 -10  -8  729.53   80.49
  -1  10   8   11.60   22.80
  -1  10   8   28.60   22.10
  -1  10   8   63.49   23.20
   1 -10  -8    5.20   28.50
  -4  10   9  497.15   46.80
  -4  10   9  368.26   49.50
   4 -10  -9  506.35   71.79
  -3  10   9   -3.80   17.20
  -3  10   9   -1.00   22.60
   3 -10  -9   44.80   38.90
   3 -10  -9   74.39   29.40
  -2  10   9  273.47   44.10
  -2  10   9  404.36   45.40
   2 -10  -9  336.77   56.59
  -2  11  -9   29.60   26.20
   2 -11   9   67.19   66.19
   2 -11   9  158.88   46.40
   1 -11   9  100.79   68.09
   1 -11   9  141.09   42.90
   0  11  -9  228.08   40.70
   0 -11   9  100.49   64.59
   1  11  -9  -19.00   22.40
  -1 -11   9  -20.70   55.49
  -3  11  -8   59.49   20.70
  -3  11  -8    8.70   22.20
   3 -11   8   35.40   42.10
  -2  11  -8  452.35   50.39
  -1  11  -8   -9.10   19.10
   1 -11   8   43.30   34.20
   1 -11   8    6.30   55.69
   0  11  -8  320.17   42.70
   0 -11   8  334.57   54.69
   0 -11   8  178.78   61.29
   1  11  -8   73.39   24.50
  -1 -11   8   48.60   43.70
   2  11  -8  252.07   44.00
  -4  11  -7  464.65   50.09
  -4  11  -7  526.25   52.39
   4 -11   7  653.73   83.39
  -3  11  -7  108.39   24.80
  -3  11  -7  144.39   26.00
   3 -11   7  133.79   42.50
  -2  11  -7  206.68   35.30
   2 -11   7   91.39   59.39
   2 -11   7  357.16   57.99
  -1  11  -7  194.98   28.90
   1 -11   7   97.89   49.40
   1 -11   7  255.97   39.50
   0  11  -7   76.29   21.50
   0 -11   7   94.49   31.10
   0 -11   7   23.30   43.40
   1  11  -7  329.37   42.20
   2  11  -7  -20.00   20.50
  -2 -11   7    2.80   41.30
   3  11  -7  452.25   53.89
  -4  11  -6  281.37   39.20
  -4  11  -6  230.58   34.50
   4 -11   6  233.98   46.80
  -3  11  -6  371.66   40.00
  -3  11  -6  403.26   38.50
  -3  11  -6  301.07   37.70
   3 -11   6  429.96   66.99
  -2  11  -6   80.19   20.20
   2 -11   6   68.59   41.30
   2 -11   6   97.49   35.40
  -1  11  -6  583.44   47.70
   1 -11   6  360.46   72.69
   1 -11   6  445.86   59.69
   0  11  -6   11.40   17.00
   0 -11   6   -5.60   34.70
   0 -11   6   19.30   25.90
   1  11  -6  389.06   44.60
   1  11  -6  450.55   38.00
   1  11  -6  420.36   33.70
   2  11  -6  117.09   25.70
   2  11  -6  169.68   25.40
  -2 -11   6   89.09   46.00
   3  11  -6  162.08   29.00
   3  11  -6  110.59   25.90
  -3 -11   6  118.29   55.99
  -5  11  -5  513.75   51.99
  -5  11  -5  597.64   55.89
   5 -11   5  721.43   82.69
  -4  11  -5   -4.40   14.80
  -4  11  -5   10.20   15.70
   4 -11   5   22.70   37.80
  -3  11  -5  535.55   45.10
  -3  11  -5  451.85   41.40
  -3  11  -5  484.45   44.80
   3 -11   5  311.57   70.79
   3 -11   5  649.54   69.09
  -2  11  -5  139.09   21.90
   2 -11   5  189.98   38.60
   2 -11   5   87.49   47.10
  -1  11  -5  343.47   36.30
  -1  11  -5  311.87   26.30
   1 -11   5  276.97   59.89
   1 -11   5  296.77   49.50
   0  11  -5  382.26   32.30
   0  11  -5  386.16   39.10
   0  11  -5  281.67   46.60
   0 -11   5  393.46   48.90
   1  11  -5  117.59   18.50
   1  11  -5  106.69   22.40
   1  11  -5  151.28   24.50
   2  11  -5  413.46   44.10
   2  11  -5  400.16   46.70
   3  11  -5   22.70   25.20
  -3 -11   5   26.40   42.30
  -5  11  -4  387.36   39.50
  -5  11  -4  332.57   42.10
   5 -11   4  320.07   52.59
  -4  11  -4  220.08   30.30
  -4  11  -4  213.58   29.40
   4 -11   4  234.98   44.00
  -3  11  -4  444.46   38.00
  -3  11  -4  492.05   42.40
  -3  11  -4  421.86   41.40
   3 -11   4  496.05   62.19
   3 -11   4  364.56   73.69
  -2  11  -4  397.86   30.60
  -2  11  -4  465.45   51.79
  -2  11  -4  408.86   37.40
  -2  11  -4  366.16   35.70
   2 -11   4  309.77   60.99
   2 -11   4  443.66   53.79
  -1  11  -4   -1.80    8.90
  -1  11  -4  -10.60   13.00
   1 -11   4   -4.20   24.30
   1 -11   4  -25.30   31.00
   0  11  -4  666.03   63.19
   0  11  -4  722.73   52.59
   0  11  -4  631.84   55.29
   0  11  -4  733.63   57.89
   1  11  -4   55.69   12.70
   1  11  -4   34.40   16.60
   1  11  -4   26.80   27.90
  -1 -11   4   32.00   32.80
   2  11  -4  277.47   40.50
   2  11  -4  205.68   34.50
  -2 -11   4  185.48   44.50
   3  11  -4  152.18   30.10
   3  11  -4   97.79   23.10
  -3 -11   4   40.80   42.00
  -5  11  -3   80.89   18.90
  -5  11  -3   70.79   19.80
   5 -11   3  138.29   38.90
  -4  11  -3  732.93   56.59
  -4  11  -3  703.63   57.09
   4 -11   3  575.04   74.39
  -3  11  -3   18.50   11.50
  -3  11  -3   49.80   16.30
  -3  11  -3   25.10   11.90
   3 -11   3   33.60   38.40
   3 -11   3   -0.80   28.60
  -2  11  -3  651.23   50.49
  -2  11  -3  668.53   52.69
  -2  11  -3  672.53   49.90
  -2  11  -3  697.23   47.90
  -2  11  -3  570.44   57.89
   2 -11   3  632.94   67.59
  -1  11  -3  100.19   19.50
  -1  11  -3   97.79   17.90
  -1  11  -3  111.29   18.50
  -1  11  -3   99.59   17.90
   1 -11   3   49.70   38.70
   1 -11   3   98.39   29.90
   0  11  -3  506.15   45.10
   0  11  -3  410.86   58.99
   0  11  -3  564.54   43.40
   0  11  -3  543.45   40.20
   0  11  -3  522.15   50.09
   0 -11   3  416.96   67.59
   1  11  -3  385.36   34.60
   1  11  -3  402.56   40.20
   1  11  -3  464.05   42.30
   2  11  -3   61.09   21.30
   2  11  -3   45.30   16.50
   2  11  -3   45.30   18.10
  -2 -11   3   35.60   32.80
   3  11  -3  433.16   47.50
   3  11  -3  396.76   54.89
  -3 -11   3  314.27   58.49
  -6  11  -2  429.96   49.90
  -6  11  -2  534.55   47.50
   6 -11   2  510.75   79.29
  -5  11  -2   68.39   17.80
  -5  11  -2   67.19   17.20
   5 -11   2   83.29   31.40
   5 -11   2   88.59   36.30
  -4  11  -2  393.96   39.30
  -4  11  -2  437.26   39.80
   4 -11   2  511.85   49.00
   4 -11   2  352.66   59.69
  -3  11  -2  275.07   32.60
  -3  11  -2  320.07   31.60
  -3  11  -2  361.16   32.90
  -3  11  -2  305.47   27.70
   3 -11   2  362.06   53.79
   3 -11   2  280.27   57.59
   3 -11   2  331.37   42.20
  -2  11  -2  190.78   23.70
  -2  11  -2  226.88   29.50
  -2  11  -2  208.58   26.40
  -2  11  -2  265.27   32.90
  -2  11  -2  240.38   24.50
   2 -11   2  186.08   52.39
   2 -11   2  272.77   42.20
  -1  11  -2  426.96   37.60
  -1  11  -2  437.16   38.90
  -1  11  -2  481.05   37.50
  -1  11  -2  446.96   44.10
   1 -11   2  517.65   54.99
   1 -11   2  328.37   64.39
   0  11  -2   23.50   13.10
   0  11  -2   -1.30   11.70
   0  11  -2   -2.20   10.40
   0  11  -2   -9.10   12.20
   0  11  -2    4.10   22.10
   0 -11   2   -8.10   32.40
   1  11  -2  699.03   52.89
   1  11  -2  742.93   60.19
   1  11  -2  739.73   56.59
   1  11  -2  718.23   54.49
   1  11  -2  661.33   64.49
  -1 -11   2  539.75   72.69
   2  11  -2   95.59   24.00
   2  11  -2   79.19   19.20
   2  11  -2   60.89   18.80
   2  11  -2   56.89   16.30
  -2 -11   2   34.30   34.00
   3  11  -2  282.87   48.00
   3  11  -2  219.28   38.30
  -3 -11   2  184.18   44.70
  -6  11  -1  255.77   34.20
  -6  11  -1  251.27   33.50
   6 -11   1  190.88   55.89
   6 -11   1  169.78   50.39
  -5  11  -1  511.35   44.70
  -5  11  -1  513.25   45.80
   5 -11   1  511.75   54.79
   5 -11   1  461.15   66.89
  -4  11  -1    5.60    8.90
  -4  11  -1   -7.70   12.40
  -4  11  -1  -16.30   23.60
   4 -11   1  -17.00   26.80
   4 -11   1    9.80   21.10
  -3  11  -1  674.73   53.99
  -3  11  -1  633.24   48.50
  -3  11  -1  694.43   53.79
  -3  11  -1  781.62   51.99
  -3  11  -1  602.74   54.59
   3 -11   1  689.23   69.09
   3 -11   1  806.92   62.19
   3 -11   1  594.24   83.59
  -2  11  -1   -5.30    9.60
  -2  11  -1   26.70   14.90
  -2  11  -1   -2.90   10.90
  -2  11  -1   -8.40    9.20
  -2  11  -1   -0.40   16.60
   2 -11   1   -0.70   26.00
   2 -11   1   -8.10   36.40
  -1  11  -1  493.95   51.09
  -1  11  -1  528.35   42.50
  -1  11  -1  556.84   43.80
  -1  11  -1  548.55   44.00
  -1  11  -1  490.15   51.89
  -1  11  -1  553.44   43.10
   0  11  -1  161.68   23.50
   0  11  -1  142.79   22.50
   0  11  -1  175.88   26.10
   0  11  -1  139.49   21.60
   0 -11   1  129.09   42.00
   1  11  -1  238.68   30.90
   1  11  -1  249.97   26.60
   1  11  -1  251.37   35.50
   1  11  -1  250.47   29.10
  -1 -11   1  210.38   45.80
   2  11  -1  429.76   35.10
   2  11  -1  448.66   49.00
   2  11  -1  410.66   41.10
   2  11  -1  384.76   41.70
  -2 -11   1  324.07   59.09
   3  11  -1   66.39   26.50
  -3 -11   1   60.69   34.00
  -6  11   0    5.80   17.70
  -6  11   0    4.30   12.50
   6 -11   0  -25.10   35.90
   6 -11   0   17.60   28.90
  -5  11   0  538.45   46.90
  -5  11   0  565.64   49.40
   5 -11   0  635.54   59.69
   5 -11   0  529.95   70.59
  -4  11   0  270.47   30.20
  -4  11   0  233.78   26.80
   4 -11   0  249.78   35.50
   4 -11   0  299.67   43.90
  -3  11   0  598.24   47.20
  -3  11   0  534.85   42.50
  -3  11   0  656.03   44.20
  -3  11   0  585.84   48.90
   3 -11   0  650.93   58.79
   3 -11   0  572.24   63.39
  -2  11   0  302.27   31.30
  -2  11   0  300.77   28.20
  -2  11   0  388.86   31.90
   2 -11   0  329.07   65.99
   2 -11   0  307.27   44.70
   2 -11   0  306.17   50.29
  -1  11   0   58.49   13.70
  -1  11   0   77.49   15.50
  -1  11   0   62.79   18.90
  -1  11   0   58.49   14.90
  -1  11   0   77.59   16.50
   1 -11   0   30.70   38.60
   0  11   0  682.43   55.09
   0  11   0  702.53   52.19
   0  11   0  666.93   52.39
   0  11   0  672.53   50.69
   0 -11   0  487.15   74.59
   1  11   0    8.20   16.40
   1  11   0   -1.60   13.30
   1  11   0    2.70   11.10
   1  11   0    1.40   15.90
  -1 -11   0    1.90   33.90
   2  11   0  443.96   46.00
   2  11   0  399.46   32.40
   2  11   0  413.06   48.00
   2  11   0  324.87   41.10
  -2 -11   0  274.97   58.99
   3  11   0   82.29   22.80
   3  11   0   81.49   28.20
  -3 -11   0   46.70   35.20
  -6  11   1  150.08   25.10
  -6  11   1  140.99   24.80
   6 -11  -1  125.19   32.90
   6 -11  -1  105.79   43.70
  -5  11   1  311.07   31.70
  -5  11   1  348.87   35.80
   5 -11  -1  385.46   49.90
   5 -11  -1  320.77   52.39
  -4  11   1  837.72   62.29
  -4  11   1  835.42   63.89
   4 -11  -1  854.11   74.59
   4 -11  -1  830.72   79.29
  -3  11   1   18.10   13.30
  -3  11   1    2.60    8.20
  -3  11   1   10.50    7.90
   3 -11  -1   58.89   29.50
   3 -11  -1   -7.60   21.30
  -2  11   1  551.24   46.10
  -2  11   1  594.24   47.00
  -2  11   1  619.14   44.70
  -2  11   1  561.94   43.60
   2 -11  -1  616.64   61.09
   2 -11  -1  541.65   74.29
  -1  11   1    6.60   12.70
  -1  11   1    4.70   10.30
  -1  11   1   14.30   12.10
  -1  11   1    8.70   12.70
   1 -11  -1   15.00   36.20
   0  11   1  472.65   40.40
   0  11   1  461.55   37.60
   0  11   1  420.86   42.70
   0  11   1  418.96   40.50
   0 -11  -1  446.16   69.89
   1  11   1  154.98   28.80
   1  11   1  203.78   23.30
   1  11   1  181.18   30.90
   1  11   1  204.38   33.10
  -1 -11  -1  152.18   42.50
   2  11   1  246.88   42.60
   2  11   1  245.68   41.40
   2  11   1  267.87   35.70
  -2 -11  -1  186.68   43.90
   3  11   1  232.08   40.40
   3  11   1  250.37   41.90
  -6  11   2  395.16   39.20
  -6  11   2  444.06   43.30
   6 -11  -2  476.65   57.99
   6 -11  -2  434.16   71.69
  -5  11   2   -7.40   14.00
   5 -11  -2   27.50   32.20
   5 -11  -2   31.10   23.90
  -4  11   2  612.34   51.49
  -4  11   2  636.84   48.20
   4 -11  -2  590.84   67.79
   4 -11  -2  644.64   63.59
  -3  11   2  264.57   29.50
  -3  11   2  296.17   26.70
  -3  11   2  284.87   23.80
  -3  11   2  268.47   30.60
   3 -11  -2  299.27   47.90
  -2  11   2  409.46   38.70
  -2  11   2  431.86   38.50
  -2  11   2  391.46   35.00
  -2  11   2  505.45   36.40
   2 -11  -2  415.46   70.09
   2 -11  -2  542.05   57.99
  -1  11   2  317.77   31.40
  -1  11   2  297.07   33.20
  -1  11   2  379.26   33.20
  -1  11   2  361.56   36.20
   1 -11  -2  263.17   55.39
   0  11   2   30.20   13.10
   0  11   2   51.49   18.00
   0  11   2   28.30   14.10
   0  11   2   39.40   17.10
   0 -11  -2   73.79   42.70
   1  11   2  505.05   49.70
   1  11   2  478.25   45.20
   1  11   2  537.45   49.40
   1  11   2  501.65   39.50
  -1 -11  -2  424.96   70.69
   2  11   2    4.20   26.10
   2  11   2   19.20   21.90
   2  11   2   14.60   18.40
  -2 -11  -2   23.00   35.70
  -6  11   3  388.96   43.80
  -6  11   3  420.96   38.40
   6 -11  -3  381.66   59.69
   6 -11  -3  499.15   61.69
  -5  11   3  240.98   33.50
  -5  11   3  278.27   27.40
   5 -11  -3  323.57   48.70
   5 -11  -3  233.28   46.20
  -4  11   3   88.29   19.70
  -4  11   3  106.89   20.00
  -4  11   3   98.39   16.20
   4 -11  -3   82.59   28.80
  -3  11   3  609.74   50.29
  -3  11   3  621.04   46.00
  -3  11   3  644.34   49.80
  -3  11   3  583.34   44.00
   3 -11  -3  619.84   64.59
  -2  11   3   66.09   13.30
  -2  11   3   28.20   13.50
  -2  11   3   14.50   10.00
  -2  11   3   41.90   15.40
   2 -11  -3   27.40   26.60
  -1  11   3  620.34   47.00
  -1  11   3  565.14   49.70
  -1  11   3  572.44   48.40
   1 -11  -3  493.25   78.19
   1 -11  -3  468.85   60.59
   0  11   3   51.79   18.20
   0  11   3   53.19   14.10
   0  11   3   55.29   19.70
   0 -11  -3   46.70   29.50
   1  11   3  345.87   43.00
   1  11   3  314.67   41.70
  -1 -11  -3  351.86   63.19
  -1 -11  -3  227.88   51.39
   2  11   3  287.87   46.30
  -2 -11  -3  179.78   46.20
  -2 -11  -3  220.38   49.60
  -6  11   4  111.59   24.60
  -6  11   4   99.09   19.90
   6 -11  -4   50.09   42.20
   6 -11  -4   36.30   30.30
  -5  11   4  401.36   42.80
  -5  11   4  434.66   36.50
  -5  11   4  395.86   40.40
   5 -11  -4  528.55   59.19
  -4  11   4   15.60    9.30
  -4  11   4   19.80   14.60
  -4  11   4    4.80   15.10
   4 -11  -4   29.70   27.50
  -3  11   4  651.73   53.39
  -3  11   4  688.63   48.60
  -3  11   4  649.74   53.39
  -3  11   4  651.13   47.70
   3 -11  -4  652.63   68.99
  -2  11   4  218.08   22.10
  -2  11   4  261.57   29.70
  -2  11   4  202.68   28.90
   2 -11  -4  236.88   39.70
   2 -11  -4  187.88   34.40
  -1  11   4  352.56   36.40
  -1  11   4  402.16   39.20
  -1  11   4  357.96   39.40
   1 -11  -4  343.87   54.29
   0  11   4  243.38   36.20
   0  11   4  282.87   38.70
   0  11   4  285.57   28.60
   0 -11  -4  209.38   41.10
   1  11   4   27.60   21.60
   1  11   4   30.00   25.10
  -1 -11  -4   47.40   39.00
  -6  11   5   80.69   18.60
  -6  11   5   74.39   16.10
  -6  11   5   74.69   24.50
   6 -11  -5   71.69   35.60
  -5  11   5  337.07   34.60
  -5  11   5  278.27   39.10
  -5  11   5  346.27   30.70
   5 -11  -5  354.16   57.69
  -4  11   5  306.17   36.40
  -4  11   5  290.67   34.60
  -4  11   5  346.67   29.50
   4 -11  -5  307.27   55.19
  -3  11   5  193.58   29.00
  -3  11   5  163.68   28.40
   3 -11  -5  204.88   40.60
  -2  11   5  431.16   42.20
  -2  11   5  439.36   42.40
   2 -11  -5  457.95   61.59
   2 -11  -5  421.36   56.29
  -1  11   5  -10.60   16.80
  -1  11   5  -26.80   15.70
  -1  11   5    5.20   15.90
   1 -11  -5   49.70   29.30
   0  11   5  454.05   41.00
   0  11   5  496.15   50.49
   0  11   5  401.56   48.90
   0 -11  -5  547.15   68.29
   1  11   5   25.10   29.20
  -1 -11  -5   19.70   38.30
  -6  11   6  289.07   29.90
  -6  11   6  237.68   38.90
  -6  11   6  242.08   34.40
   6 -11  -6  288.77   47.60
  -5  11   6   -7.60   18.80
  -5  11   6   -8.80   15.50
   5 -11  -6   -8.10   30.20
  -4  11   6  463.85   42.80
  -4  11   6  458.75   45.30
   4 -11  -6  414.76   64.99
  -3  11   6   38.40   17.80
  -3  11   6   50.29   18.50
   3 -11  -6  102.19   28.80
   3 -11  -6   40.90   32.10
  -2  11   6  385.76   42.40
  -2  11   6  363.06   40.60
   2 -11  -6  412.26   57.09
   2 -11  -6  358.66   62.49
  -1  11   6  155.78   24.50
  -1  11   6  109.89   24.50
  -1  11   6  133.69   26.30
   1 -11  -6  138.69   34.40
   0  11   6  181.78   31.90
   0  11   6  168.68   32.50
   0 -11  -6  244.68   42.30
  -5  11   7   60.19   21.90
  -5  11   7   82.69   20.80
   5 -11  -7   55.19   33.70
  -4  11   7  277.77   34.40
  -4  11   7  264.77   38.10
   4 -11  -7  277.77   46.60
  -3  11   7  347.57   41.60
  -3  11   7  344.77   39.10
   3 -11  -7  330.67   59.29
   3 -11  -7  404.86   61.69
  -2  11   7   75.89   21.80
  -2  11   7  116.79   24.70
   2 -11  -7   63.59   37.10
   2 -11  -7   87.99   33.60
  -1  11   7  445.06   49.80
  -1  11   7  414.36   49.50
  -1  11   7  457.45   44.80
   1 -11  -7  366.36   64.79
  -4  11   8   -1.90   21.10
  -4  11   8   -8.40   18.90
   4 -11  -8  104.09   38.30
  -3  11   8  337.77   42.30
  -3  11   8  269.87   42.80
   3 -11  -8  436.06   69.99
  -2  11   8   31.20   26.40
   2 -11  -8   34.00   41.40
  -1  12  -8   88.19   28.30
   1 -12   8   87.99   64.59
   1 -12   8  158.68   43.90
   0  12  -8  140.49   29.90
   0 -12   8  123.59   63.69
   1  12  -8    1.70   25.20
  -1 -12   8   16.70   51.49
  -3  12  -7   74.99   22.80
  -3  12  -7   93.09   24.60
   3 -12   7   82.09   42.20
  -2  12  -7  285.47   40.40
   2 -12   7  353.26   51.29
   2 -12   7  186.38   74.99
  -1  12  -7  -41.70   19.60
   1 -12   7  -32.10   52.09
   1 -12   7   -5.30   35.60
   0 -12   7  182.78   51.49
   0 -12   7  160.28   63.09
   1  12  -7   18.50   22.60
  -1 -12   7  -19.50   45.50
  -3  12  -6   -9.30   17.40
  -3  12  -6    6.50   19.90
   3 -12   6    9.40   62.69
   3 -12   6  -42.30   38.30
  -2  12  -6  212.58   28.80
   2 -12   6  125.89   59.99
   2 -12   6  225.08   42.60
  -1  12  -6  217.08   30.80
   1 -12   6  187.28   61.09
   1 -12   6  209.68   40.70
   0  12  -6  145.69   26.10
   0 -12   6   96.59   36.20
   0 -12   6  129.59   50.69
   1  12  -6  281.17   42.60
   2  12  -6   15.50   23.40
  -2 -12   6   51.29   49.70
  -4  12  -5  320.37   41.60
  -4  12  -5  412.46   46.50
   4 -12   5  404.16   57.79
  -3  12  -5  335.17   37.80
  -3  12  -5  238.28   36.70
  -3  12  -5  329.07   37.20
   3 -12   5  332.67   51.79
   3 -12   5  207.48   67.39
  -2  12  -5  174.08   28.80
  -2  12  -5  177.18   31.80
   2 -12   5  114.99   52.59
   2 -12   5  223.08   40.70
  -1  12  -5  342.07   39.70
   1 -12   5  292.87   45.20
   0  12  -5   11.30   18.30
   0 -12   5  -18.00   33.80
   1  12  -5  444.86   44.30
   1  12  -5  453.35   47.60
   2  12  -5   29.90   22.30
   2  12  -5   80.59   24.80
  -2 -12   5   25.90   44.50
  -4  12  -4   49.90   18.80
  -4  12  -4   46.90   19.90
   4 -12   4   57.69   39.70
  -3  12  -4  629.04   54.49
  -3  12  -4  699.23   54.99
  -3  12  -4  622.54   49.60
   3 -12   4  644.24   73.39
   3 -12   4  449.95   87.79
  -2  12  -4   68.69   18.40
  -2  12  -4   81.09   18.10
   2 -12   4   92.99   35.00
   2 -12   4   63.69   44.00
  -1  12  -4  293.47   33.30
  -1  12  -4  303.67   37.40
  -1  12  -4  341.27   30.20
   1 -12   4  239.58   53.79
   1 -12   4  291.87   43.90
   0  12  -4  205.18   34.50
   0  12  -4  268.47   30.30
   0  12  -4  261.27   27.90
   1  12  -4  247.48   28.30
   1  12  -4  298.37   38.80
   1  12  -4  296.47   38.50
   2  12  -4  272.67   44.90
   2  12  -4  277.87   40.50
  -2 -12   4  181.58   56.29
  -5  12  -3  300.97   38.30
  -5  12  -3  304.17   41.40
   5 -12   3  274.57   49.99
  -4  12  -3   60.49   18.10
  -4  12  -3   63.79   18.80
   4 -12   3   70.59   38.00
  -3  12  -3  398.36   38.10
  -3  12  -3  308.57   32.30
  -3  12  -3  376.66   36.70
   3 -12   3  264.77   63.09
   3 -12   3  436.56   60.39
  -2  12  -3  347.67   37.20
  -2  12  -3  391.46   32.30
  -2  12  -3  366.46   35.50
   2 -12   3  256.47   58.79
   2 -12   3  443.06   58.79
  -1  12  -3   56.79   18.40
  -1  12  -3   52.49   14.40
  -1  12  -3   36.70   16.10
   1 -12   3   28.60   38.40
   1 -12   3   49.20   33.30
   0  12  -3  403.36   39.70
   0  12  -3  361.86   35.40
   0  12  -3  396.66   39.00
   0  12  -3  378.86   40.10
   1  12  -3   24.70   17.40
   1  12  -3   -8.20   14.90
   1  12  -3   -9.10   18.70
   1  12  -3   -7.00   13.60
  -1 -12   3   12.10   37.70
   2  12  -3  412.36   45.10
   2  12  -3  442.06   52.89
   2  12  -3  444.86   41.10
  -2 -12   3  305.67   61.39
  -5  12  -2  164.28   29.60
  -5  12  -2  123.89   24.30
   5 -12   2  188.48   43.60
  -4  12  -2  492.85   45.60
  -4  12  -2  486.55   46.30
   4 -12   2  552.54   68.59
  -3  12  -2    8.20   11.60
  -3  12  -2    0.40   14.80
   3 -12   2   22.70   33.40
   3 -12   2  -15.20   42.20
  -2  12  -2  515.85   42.00
  -2  12  -2  529.45   44.60
  -2  12  -2  556.44   41.90
   2 -12   2  357.56   71.49
   2 -12   2  433.86   62.09
  -1  12  -2   26.90   15.00
  -1  12  -2   16.60   13.00
  -1  12  -2   34.60   13.80
  -1  12  -2   34.40   15.70
   1 -12   2   35.10   36.20
   0  12  -2  324.57   34.40
   0  12  -2  301.47   33.40
   0  12  -2  314.67   38.10
   0  12  -2  284.57   32.50
   0 -12   2  217.38   52.19
   1  12  -2  282.37   41.70
   1  12  -2  293.27   35.60
   1  12  -2  267.77   32.70
   1  12  -2  255.47   31.80
   2  12  -2  161.48   31.40
   2  12  -2  174.08   27.80
   2  12  -2  135.99   26.00
  -2 -12   2   82.29   41.80
  -5  12  -1   26.10   14.30
  -5  12  -1   41.60   17.80
   5 -12   1   89.49   38.30
   5 -12   1   19.40   40.00
  -4  12  -1  581.54   52.39
  -4  12  -1  604.94   51.49
   4 -12   1  702.43   65.09
   4 -12   1  617.44   72.79
  -3  12  -1  235.68   29.50
  -3  12  -1  203.48   25.80
  -3  12  -1  184.98   23.50
   3 -12   1  144.29   50.89
   3 -12   1  332.97   47.40
   3 -12   1  217.68   41.70
  -2  12  -1  306.47   33.60
  -2  12  -1  326.27   30.90
  -2  12  -1  319.97   33.80
   2 -12   1  330.27   55.59
   2 -12   1  348.77   71.89
  -1  12  -1  346.47   35.10
  -1  12  -1  390.86   36.40
  -1  12  -1  370.66   36.20
  -1  12  -1  418.16   37.80
   1 -12   1  254.07   59.49
   0  12  -1   29.40   15.30
   0  12  -1   -3.70   14.40
   0  12  -1   39.40   16.60
   0  12  -1   20.40   16.90
   0 -12   1   24.70   38.20
   1  12  -1  507.55   47.50
   1  12  -1  549.65   52.09
   1  12  -1  458.85   46.90
   1  12  -1  505.85   44.20
   2  12  -1  -11.80   24.30
   2  12  -1  -13.00   17.80
   2  12  -1  -16.10   33.20
  -2 -12   1   31.70   37.70
  -6  12   0  194.48   35.80
  -6  12   0  267.57   35.30
   6 -12   0  119.89   53.49
  -5  12   0  298.07   35.10
  -5  12   0  268.87   31.40
   5 -12   0  303.17   52.69
   5 -12   0  267.97   43.00
  -4  12   0   90.39   21.00
  -4  12   0  113.49   20.40
   4 -12   0  133.59   37.20
   4 -12   0  101.59   32.00
  -3  12   0  863.31   65.09
  -3  12   0  814.72   59.19
  -3  12   0  848.42   63.69
   3 -12   0  693.43   80.29
   3 -12   0  981.80   77.79
  -2  12   0  -19.10   10.50
  -2  12   0    3.50   13.80
  -2  12   0   14.10   12.80
  -2  12   0    0.50   12.90
   2 -12   0    0.30   41.90
  -1  12   0  434.86   42.60
  -1  12   0  456.05   39.10
  -1  12   0  439.26   39.00
  -1  12   0  429.86   39.50
   1 -12   0  311.47   61.49
   0  12   0   88.49   18.20
   0  12   0  116.19   21.00
   0  12   0  112.29   21.90
   0  12   0   93.69   18.80
   0 -12   0   52.79   42.90
   1  12   0  289.37   32.90
   1  12   0  305.87   38.00
   1  12   0  300.37   37.10
   1  12   0  377.46   43.60
  -1 -12   0  214.68   51.29
   2  12   0  202.68   36.00
   2  12   0  184.68   33.60
   2  12   0  168.28   31.40
  -2 -12   0  120.19   45.00
  -6  12   1   17.10   16.10
  -6  12   1   29.90   20.50
   6 -12  -1   99.39   34.20
   6 -12  -1   26.30   45.10
  -5  12   1  467.45   46.00
  -5  12   1  486.35   42.40
   5 -12  -1  417.26   68.49
   5 -12  -1  520.75   62.19
  -4  12   1   31.30   16.10
   4 -12  -1    8.80   32.60
   4 -12  -1   29.40   28.00
  -3  12   1  528.25   43.00
  -3  12   1  506.85   41.10
  -3  12   1  470.85   37.70
  -3  12   1  465.15   43.80
   3 -12  -1  523.65   61.19
  -2  12   1  297.27   35.40
  -2  12   1  335.97   33.20
  -2  12   1  326.87   29.80
  -2  12   1  314.87   33.10
   2 -12  -1  219.98   57.29
  -1  12   1   72.39   17.00
  -1  12   1   81.69   19.70
  -1  12   1   98.09   20.60
  -1  12   1  102.09   19.20
   1 -12  -1   15.00   42.80
   0  12   1  427.26   39.20
   0  12   1  367.06   39.60
   0  12   1  418.06   41.50
   0  12   1  410.06   43.10
   1  12   1   17.50   13.80
   1  12   1   -1.60   20.50
   1  12   1   10.90   20.80
   1  12   1   -8.30   16.70
  -1 -12  -1   -8.00   41.00
   2  12   1  494.35   55.29
   2  12   1  342.17   45.30
   2  12   1  362.06   52.49
  -2 -12  -1  361.36   68.99
  -6  12   2  118.79   25.90
  -6  12   2  145.19   24.70
   6 -12  -2  108.29   46.30
   6 -12  -2  171.88   38.50
  -5  12   2  330.27   39.90
  -5  12   2  389.76   34.90
   5 -12  -2  431.06   68.89
   5 -12  -2  352.86   56.29
  -4  12   2  523.75   44.30
  -4  12   2  533.85   48.90
   4 -12  -2  648.34   64.39
  -3  12   2  114.69   20.70
  -3  12   2   86.29   17.30
  -3  12   2  107.09   16.80
  -3  12   2   73.79   17.70
   3 -12  -2   57.59   29.90
  -2  12   2  664.73   52.89
  -2  12   2  667.53   52.69
  -2  12   2  637.04   49.30
   2 -12  -2  550.44   84.29
   2 -12  -2  672.03   71.49
  -1  12   2   17.80   14.60
  -1  12   2    5.30   13.50
  -1  12   2   10.00   15.20
  -1  12   2   19.10   16.20
   1 -12  -2  -31.20   42.50
   0  12   2  363.46   41.70
   0  12   2  343.17   37.00
   0  12   2  331.47   35.50
   0  12   2  371.46   40.20
   0 -12  -2  284.37   58.89
   1  12   2  141.39   24.70
   1  12   2  156.18   30.40
   1  12   2  152.28   28.70
  -1 -12  -2   96.39   47.20
  -6  12   3  264.37   49.99
  -6  12   3  300.97   32.90
   6 -12  -3  365.86   60.59
  -5  12   3   -0.20   16.50
  -5  12   3    5.30   10.80
   5 -12  -3   52.29   31.80
  -4  12   3  555.14   43.10
  -4  12   3  498.45   46.80
  -4  12   3  513.85   47.90
   4 -12  -3  596.94   65.19
  -3  12   3   80.29   16.40
  -3  12   3   99.39   18.80
  -3  12   3   73.79   12.90
  -3  12   3   69.79   19.50
   3 -12  -3   45.60   30.80
  -2  12   3  436.56   37.90
  -2  12   3  445.16   41.50
  -2  12   3  422.06   42.20
  -2  12   3  431.06   36.20
   2 -12  -3  482.65   63.19
  -1  12   3  467.15   44.80
  -1  12   3  454.05   41.50
  -1  12   3  491.35   42.40
  -1  12   3  446.06   46.70
   1 -12  -3  367.46   65.89
   0  12   3  182.38   27.90
   0  12   3  185.48   28.30
   0  12   3  180.88   29.90
   0  12   3  160.98   24.90
   0 -12  -3  106.29   51.09
   1  12   3  424.66   53.79
   1  12   3  338.47   45.40
   1  12   3  496.95   50.99
  -5  12   4  165.68   22.50
  -5  12   4  116.69   23.90
  -5  12   4  137.39   23.90
   5 -12  -4  184.68   38.60
  -4  12   4  161.58   25.90
  -4  12   4  181.58   31.80
  -4  12   4  172.48   21.40
   4 -12  -4  203.28   39.40
  -3  12   4  321.47   29.10
  -3  12   4  335.87   30.80
  -3  12   4  339.57   37.30
  -3  12   4  304.67   38.20
   3 -12  -4  342.97   59.09
  -2  12   4   92.59   18.30
  -2  12   4   72.59   20.30
  -2  12   4  100.29   20.00
   2 -12  -4   60.59   34.90
  -1  12   4  331.07   34.90
  -1  12   4  315.17   38.90
  -1  12   4  269.37   39.30
   1 -12  -4  201.98   41.60
   0  12   4   -9.70   21.50
   0  12   4   21.30   21.40
   0 -12  -4   10.00   34.90
  -5  12   5  640.04   50.69
  -5  12   5  551.04   55.79
  -5  12   5  544.15   52.79
   5 -12  -5  742.43   77.09
  -4  12   5  -19.80   18.10
  -4  12   5    3.90   15.60
   4 -12  -5   30.90   33.40
  -3  12   5  606.64   53.59
  -3  12   5  620.94   54.79
   3 -12  -5  646.94   75.49
  -2  12   5  137.79   24.10
  -2  12   5  155.78   25.80
   2 -12  -5   68.29   35.90
   2 -12  -5  156.88   39.50
  -1  12   5  172.28   30.40
  -1  12   5  272.17   37.70
  -1  12   5  251.77   33.30
   1 -12  -5  144.89   40.30
   0  12   5  192.88   33.70
   0  12   5  159.18   31.00
  -4  12   6  215.98   36.50
  -4  12   6  283.37   39.80
   4 -12  -6  426.16   63.39
  -3  12   6  102.29   23.00
  -3  12   6  151.58   27.60
   3 -12  -6  173.98   42.60
  -2  12   6  288.27   39.90
  -2  12   6  247.08   38.10
   2 -12  -6  245.58   46.00
   2 -12  -6  283.77   48.60
  -2  13  -6  104.99   26.30
  -2  13  -6  142.79   25.90
   2 -13   6  147.69   42.00
   2 -13   6   43.30   56.89
  -1  13  -6   15.30   22.80
   1 -13   6  -46.20   37.40
   1 -13   6   -0.90   52.29
   0  13  -6  442.46   51.99
  -3  13  -5  -19.50   18.90
  -3  13  -5   12.10   15.90
   3 -13   5    0.70   55.99
   3 -13   5    1.80   38.50
  -2  13  -5  531.95   50.59
  -2  13  -5  525.05   50.69
   2 -13   5  617.34   71.89
  -1  13  -5   52.49   18.50
  -1  13  -5   29.40   22.40
   1 -13   5   24.20   53.19
   1 -13   5   19.60   37.50
   0  13  -5  201.08   28.00
   0  13  -5  210.28   32.10
   0 -13   5   96.99   56.99
   1  13  -5  320.97   45.70
  -3  13  -4  104.29   22.00
  -3  13  -4  102.39   24.50
   3 -13   4  113.99   41.40
   3 -13   4   90.29   58.69
  -2  13  -4   78.69   20.70
  -2  13  -4   48.30   20.20
   2 -13   4   93.69   38.10
   2 -13   4  -12.40   51.99
  -1  13  -4  428.46   42.10
  -1  13  -4  390.66   44.60
   1 -13   4  389.26   63.59
   1 -13   4  301.57   70.59
   0  13  -4   13.50   15.80
   0  13  -4   32.30   20.70
   0  13  -4  -10.40   17.50
   0 -13   4    1.40   52.39
   1  13  -4  596.54   57.09
   1  13  -4  459.05   53.19
   1  13  -4  540.25   50.19
  -4  13  -3   48.60   21.30
  -4  13  -3   47.60   20.70
   4 -13   3    3.20   40.70
  -3  13  -3  385.36   40.30
  -3  13  -3  376.96   40.70
   3 -13   3  283.27   75.69
   3 -13   3  398.96   56.69
  -2  13  -3   24.50   18.30
  -2  13  -3   -8.50   16.30
   2 -13   3   30.10   45.10
   2 -13   3  -17.00   35.30
  -1  13  -3  314.77   38.20
  -1  13  -3  349.87   35.60
  -1  13  -3  350.76   36.70
  -1  13  -3  356.96   40.80
   0  13  -3   73.09   18.40
   0  13  -3   70.69   22.60
   0  13  -3   96.99   23.50
   0  13  -3   97.69   21.70
   0 -13   3   18.00   44.00
   1  13  -3  147.89   27.10
   1  13  -3  153.58   28.20
   1  13  -3  153.68   27.00
  -1 -13   3   78.59   53.39
  -4  13  -2  103.79   23.40
  -4  13  -2  151.58   29.10
   4 -13   2  143.49   43.10
  -3  13  -2  229.68   32.40
  -3  13  -2  185.38   28.30
   3 -13   2  219.58   45.20
   3 -13   2  141.59   59.79
  -2  13  -2  143.19   21.80
  -2  13  -2  158.98   29.10
  -2  13  -2  201.48   27.00
   2 -13   2  136.29   41.50
   2 -13   2   85.49   51.09
  -1  13  -2  173.68   27.80
  -1  13  -2  196.88   31.90
  -1  13  -2  143.39   23.90
  -1  13  -2  112.69   23.10
   1 -13   2  123.99   51.29
   0  13  -2  585.14   52.39
   0  13  -2  471.45   45.60
   0  13  -2  495.85   46.80
   0  13  -2  504.05   48.80
   1  13  -2   24.20   16.80
   1  13  -2   -3.20   19.70
   1  13  -2   11.00   19.50
   1  13  -2   22.90   24.90
  -1 -13   2    0.70   44.30
  -5  13  -1  124.49   25.30
  -5  13  -1   64.49   26.90
   5 -13   1  128.29   50.69
  -4  13  -1  423.16   41.40
  -4  13  -1  443.16   43.90
   4 -13   1  365.66   55.69
  -3  13  -1   28.90   15.70
  -3  13  -1   15.40   12.40
  -3  13  -1   29.20   17.50
   3 -13   1   24.90   38.10
  -2  13  -1  426.26   41.30
  -2  13  -1  394.16   38.40
  -2  13  -1  392.46   40.20
  -2  13  -1  396.56   37.00
   2 -13   1  272.57   65.99
  -1  13  -1   -7.40   16.10
  -1  13  -1   -4.80   14.80
  -1  13  -1   -6.60   15.50
  -1  13  -1    1.30   17.40
   1 -13   1    9.50   44.50
   0  13  -1  236.38   41.60
   0  13  -1  241.78   36.20
   0  13  -1  294.07   35.20
   0  13  -1  325.67   36.10
   1  13  -1  156.08   29.70
   1  13  -1  150.48   26.60
   1  13  -1  181.08   28.10
   1  13  -1  180.48   32.90
  -1 -13   1   78.29   48.70
  -5  13   0   15.10   19.30
  -5  13   0    7.80   15.90
   5 -13   0   17.20   42.10
  -4  13   0  510.25   46.70
  -4  13   0  465.35   42.70
   4 -13   0  382.06   58.49
   4 -13   0  518.45   67.09
  -3  13   0  122.49   24.00
  -3  13   0  122.19   22.10
  -2  13   0  211.28   31.60
  -2  13   0  218.98   32.50
  -2  13   0  263.57   29.00
  -2  13   0  225.58   35.50
   2 -13   0  191.58   58.09
  -1  13   0  248.68   36.20
  -1  13   0  290.97   32.80
  -1  13   0  271.67   33.30
  -1  13   0  214.58   32.30
   1 -13   0  132.89   53.89
   0  13   0   85.09   22.80
   0  13   0   72.49   18.90
   0  13   0   59.09   19.70
   0  13   0   45.00   22.10
   0 -13   0  -32.30   46.30
   1  13   0  308.07   41.50
   1  13   0  302.67   40.60
   1  13   0  364.16   43.20
  -1 -13   0  216.08   56.39
  -5  13   1  194.28   34.90
  -5  13   1  183.98   26.70
   5 -13  -1  198.98   42.60
   5 -13  -1  129.89   49.60
  -4  13   1  315.87   31.20
  -4  13   1  232.98   35.60
   4 -13  -1  324.97   53.19
   4 -13  -1  298.37   48.50
  -3  13   1  451.95   38.90
  -3  13   1  400.06   42.30
  -3  13   1  422.56   43.60
   3 -13  -1  509.65   65.29
  -2  13   1   -1.10   12.90
  -2  13   1    8.60   16.40
  -2  13   1   25.60   18.00
  -2  13   1  -10.40   15.40
   2 -13  -1  -29.50   47.90
  -1  13   1  426.16   42.00
  -1  13   1  428.86   42.90
  -1  13   1  427.36   41.50
  -1  13   1  438.66   45.20
   1 -13  -1  288.57   64.89
   0  13   1   37.20   22.60
   0  13   1   48.10   18.40
   0  13   1   47.50   18.30
   0  13   1   22.50   21.50
   0 -13  -1  -13.40   46.40
  -5  13   2  382.96   45.90
  -5  13   2  429.46   39.40
   5 -13  -2  528.75   69.89
   5 -13  -2  403.26   64.29
  -4  13   2  -17.80   15.40
  -4  13   2    7.60   10.60
  -4  13   2   -3.80   17.10
   4 -13  -2  -17.20   31.60
  -3  13   2  291.67   36.10
  -3  13   2  347.77   31.80
  -3  13   2  336.47   38.90
   3 -13  -2  346.17   59.09
  -2  13   2   59.69   20.70
  -2  13   2   50.59   19.70
  -2  13   2   46.90   18.80
  -2  13   2   52.49   16.80
   2 -13  -2  -31.60   50.39
  -1  13   2  353.36   40.40
  -1  13   2  345.97   38.50
  -1  13   2  378.26   39.00
  -1  13   2  360.56   43.00
   1 -13  -2  276.67   62.29
   0  13   2  228.88   32.90
   0  13   2  274.07   37.40
   0  13   2  249.28   36.50
   0  13   2  218.48   41.40
   0 -13  -2  193.68   58.19
  -4  13   3  218.38   32.10
  -4  13   3  228.88   35.10
  -4  13   3  223.78   26.60
   4 -13  -3  232.98   44.60
  -3  13   3   94.59   20.40
  -3  13   3  121.19   19.70
  -3  13   3   77.99   21.90
   3 -13  -3   89.69   37.20
  -2  13   3  273.97   37.10
  -2  13   3  291.97   33.00
  -2  13   3  297.97   28.60
  -2  13   3  253.47   38.90
  -2  13   3  277.47   36.20
  -1  13   3  -32.50   18.90
  -1  13   3   -4.40   20.30
  -1  13   3   25.60   17.50
  -1  13   3    8.00   16.10
   1 -13  -3   39.90   65.89
  -4  13   4  407.36   45.30
  -4  13   4  358.36   43.00
  -4  13   4  413.86   37.20
   4 -13  -4  429.46   67.19
  -3  13   4   35.80   19.90
  -3  13   4  -18.30   18.70
   3 -13  -4  -59.99   34.80
  -2  13   4  403.46   45.70
  -2  13   4  395.26   47.90
  -2  13   4  439.96   41.20
  -2  13   4  520.95   48.10
  -1  13   4   77.79   25.00
  -2  14  -3  122.89   24.40
   2 -14   3   -2.30   64.49
   2 -14   3  149.79   44.40
  -1  14  -3  241.48   37.90
  -1  14  -3  320.97   35.20
  -1  14  -3  280.07   40.60
   1 -14   3  176.88   70.69
  -3  14  -2  326.37   40.20
  -3  14  -2  324.87   42.20
   3 -14   2  335.57   56.89
  -2  14  -2  -14.40   17.00
  -2  14  -2   -0.40   19.10
   2 -14   2  -28.00   63.59
  -1  14  -2  350.96   39.40
  -1  14  -2  322.07   40.70
  -1  14  -2  295.57   41.20
   1 -14   2  199.08   69.79
  -3  14  -1  289.97   35.10
  -3  14  -1  274.07   39.70
  -2  14  -1  191.08   33.10
  -2  14  -1  236.98   35.60
  -2  14  -1  212.78   36.10
   2 -14   1  131.69   62.59
  -1  14  -1  193.18   33.60
  -1  14  -1  163.28   27.90
  -1  14  -1  136.99   26.90
  -1  14  -1  135.19   25.80
   1 -14   1   44.40   54.69
  -3  14   0  138.09   28.10
  -3  14   0  160.58   26.20
  -3  14   0  165.98   26.20
  -3  14   0  146.99   25.60
  -2  14   0  389.26   44.00
  -2  14   0  316.97   40.60
  -2  14   0  390.36   43.00
  -1  14   0   27.80   17.70
  -1  14   0   -4.20   19.50
  -1  14   0   28.70   20.40
  -1  14   0    2.10   21.90
   1 -14   0    4.20   53.49
  -3  14   1   27.50   20.00
  -3  14   1   25.90   13.70
  -3  14   1   25.30   20.20
  -3  14   1   73.29   21.50
  -2  14   1  276.97   42.00
  -2  14   1  226.88   36.30
  -2  14   1  279.77   37.90
   2 -14  -1  189.58   63.29
   0   0   0    0.00    0.00

_computing_structure_solution     'SHELXT 2014/5 (Sheldrick, 2014)'
;
_shelx_hkl_checksum              63109
loop_
_space_group_symop_operation_xyz
'x, y, z'
'-x, -y, -z'
loop_
_atom_site_label
_atom_site_type_symbol
_atom_site_fract_x
_atom_site_fract_y
_atom_site_fract_z
_atom_site_U_iso_or_equiv
_atom_site_adp_type
_atom_site_occupancy
_atom_site_site_symmetry_order
_atom_site_calc_flag
_atom_site_refinement_flags_posn
_atom_site_refinement_flags_adp
U1 U 0.21392(3) 0.63996(2) 0.88626(2) 0.01373(8) Uani 1 1 d . .
O2 O 0.0295(7) 0.4938(4) 0.8821(4) 0.0306(10) Uani 1 1 d . .
O5 O 0.5616(6) 0.3738(3) 0.9064(3) 0.0202(8) Uani 1 1 d . .
O1 O 0.4068(6) 0.7817(3) 0.8800(3) 0.0231(8) Uani 1 1 d . .
O7 O 0.1008(6) 0.2882(4) 0.2277(3) 0.0268(9) Uani 1 1 d . .
O4 O 0.4349(6) 0.5308(4) 0.8232(3) 0.0262(9) Uani 1 1 d . .
O3 O 0.1170(6) 0.7691(3) 1.0337(3) 0.0212(8) Uani 1 1 d . .
O6 O -0.0396(6) 0.3919(3) 0.3494(3) 0.0205(8) Uani 1 1 d . .
O9 O 0.7193(7) 0.1206(4) 0.4185(4) 0.0420(12) Uani 1 1 d . .
O8 O 0.9287(6) 0.1951(4) 0.6124(4) 0.0305(10) Uani 1 1 d . .
C4 C 0.4920(8) 0.4282(5) 0.8131(5) 0.0158(11) Uani 1 1 d . .
C11 C 0.1089(8) 0.3397(5) 0.3381(5) 0.0178(11) Uani 1 1 d . .
N2 N -0.0195(7) 0.9051(4) 1.1305(4) 0.0207(10) Uani 1 1 d . .
N1 N 0.7634(7) 0.1859(4) 0.5221(4) 0.0228(10) Uani 1 1 d . .
C1 C -0.0429(8) 0.8004(5) 1.0565(5) 0.0184(11) Uani 1 1 d . .
H1B H -0.1845 0.7466 1.0192 0.022 Uiso 1 1 calc R U
C7 C 0.2955(8) 0.3344(5) 0.4528(5) 0.0165(11) Uani 1 1 d . .
C5 C 0.4753(8) 0.3729(5) 0.6810(5) 0.0144(11) Uani 1 1 d . .
C8 C 0.4457(8) 0.2698(5) 0.4339(5) 0.0158(11) Uani 1 1 d . .
H8A H 0.4385 0.2368 0.3515 0.019 Uiso 1 1 calc R U
C6 C 0.3124(8) 0.3892(5) 0.5742(5) 0.0146(11) Uani 1 1 d . .
H6A H 0.2160 0.4366 0.5849 0.017 Uiso 1 1 calc R U
C10 C 0.6237(8) 0.3051(5) 0.6649(5) 0.0155(11) Uani 1 1 d . .
H10A H 0.7318 0.2929 0.7355 0.019 Uiso 1 1 calc R U
C9 C 0.6061(8) 0.2562(5) 0.5409(5) 0.0159(11) Uani 1 1 d . .
C3 C -0.2054(9) 0.9382(6) 1.1608(6) 0.0305(14) Uani 1 1 d . .
H3A H -0.1535 1.0185 1.2163 0.046 Uiso 1 1 calc R U
H3B H -0.3126 0.9444 1.0826 0.046 Uiso 1 1 calc R U
H3C H -0.2723 0.8734 1.2035 0.046 Uiso 1 1 calc R U
C2 C 0.1981(10) 0.9931(6) 1.1902(6) 0.0333(15) Uani 1 1 d . .
H2B H 0.1845 1.0644 1.2409 0.050 Uiso 1 1 calc R U
H2C H 0.2925 0.9503 1.2446 0.050 Uiso 1 1 calc R U
H2D H 0.2610 1.0225 1.1244 0.050 Uiso 1 1 calc R U
loop_
_atom_site_aniso_label
_atom_site_aniso_U_11
_atom_site_aniso_U_22
_atom_site_aniso_U_33
_atom_site_aniso_U_23
_atom_site_aniso_U_13
_atom_site_aniso_U_12
U1 0.01435(11) 0.01669(12) 0.00822(11) -0.00161(8) -0.00154(7) 0.00741(8)
O2 0.036(2) 0.036(2) 0.014(2) 0.0010(18) 0.0036(18) 0.004(2)
O5 0.0208(19) 0.026(2) 0.0140(19) 0.0029(16) 0.0006(15) 0.0130(17)
O1 0.022(2) 0.024(2) 0.019(2) -0.0009(17) 0.0010(16) 0.0069(17)
O7 0.025(2) 0.046(2) 0.0097(19) -0.0072(18) -0.0030(16) 0.0231(19)
O4 0.036(2) 0.035(2) 0.0125(19) -0.0015(17) 0.0016(17) 0.027(2)
O3 0.022(2) 0.029(2) 0.0124(19) -0.0022(16) -0.0001(15) 0.0157(17)
O6 0.0197(19) 0.030(2) 0.0139(19) -0.0008(16) 0.0005(15) 0.0165(17)
O9 0.048(3) 0.057(3) 0.025(2) -0.011(2) 0.002(2) 0.037(3)
O8 0.023(2) 0.048(3) 0.024(2) 0.006(2) 0.0026(18) 0.023(2)
C4 0.009(2) 0.022(3) 0.014(3) 0.000(2) -0.002(2) 0.006(2)
C11 0.017(3) 0.021(3) 0.012(3) 0.002(2) -0.004(2) 0.007(2)
N2 0.020(2) 0.020(2) 0.020(2) -0.004(2) 0.0019(19) 0.010(2)
N1 0.023(2) 0.030(3) 0.020(3) 0.004(2) 0.005(2) 0.016(2)
C1 0.014(3) 0.023(3) 0.015(3) -0.001(2) -0.002(2) 0.009(2)
C7 0.015(3) 0.017(3) 0.014(3) 0.000(2) -0.001(2) 0.005(2)
C5 0.014(3) 0.017(3) 0.009(3) 0.003(2) 0.000(2) 0.003(2)
C8 0.016(3) 0.019(3) 0.012(3) -0.002(2) 0.002(2) 0.008(2)
C6 0.014(2) 0.019(3) 0.013(3) 0.000(2) 0.004(2) 0.007(2)
C10 0.013(2) 0.021(3) 0.011(3) 0.000(2) 0.000(2) 0.007(2)
C9 0.014(3) 0.018(3) 0.015(3) 0.001(2) 0.002(2) 0.007(2)
C3 0.025(3) 0.034(3) 0.031(3) -0.007(3) 0.005(3) 0.015(3)
C2 0.029(3) 0.026(3) 0.040(4) -0.007(3) 0.006(3) 0.007(3)
loop_
_atom_type_symbol
_atom_type_description
_atom_type_scat_dispersion_real
_atom_type_scat_dispersion_imag
_atom_type_scat_source
C C 0.0033 0.0016 'International Tables Vol C Tables 4.2.6.8 and 6.1.1.4'
H H 0.0000 0.0000 'International Tables Vol C Tables 4.2.6.8 and 6.1.1.4'
N N 0.0061 0.0033 'International Tables Vol C Tables 4.2.6.8 and 6.1.1.4'
O O 0.0106 0.0060 'International Tables Vol C Tables 4.2.6.8 and 6.1.1.4'
U U -9.6767 9.6646 'International Tables Vol C Tables 4.2.6.8 and 6.1.1.4'
loop_
_geom_angle_atom_site_label_1
_geom_angle_atom_site_label_2
_geom_angle_atom_site_label_3
_geom_angle
_geom_angle_site_symmetry_1
_geom_angle_site_symmetry_3
O2 U1 O1 175.20(16) . .
O2 U1 O4 88.45(17) . .
O1 U1 O4 87.41(16) . .
O2 U1 O5 91.22(16) . 2_667
O1 U1 O5 90.60(15) . 2_667
O4 U1 O5 82.06(12) . 2_667
O2 U1 O3 99.46(16) . .
O1 U1 O3 85.30(15) . .
O4 U1 O3 155.04(13) . .
O5 U1 O3 74.19(12) 2_667 .
O2 U1 O7 88.00(17) . 2_566
O1 U1 O7 93.14(15) . 2_566
O4 U1 O7 134.03(12) . 2_566
O5 U1 O7 143.82(12) 2_667 2_566
O3 U1 O7 70.30(11) . 2_566
O2 U1 O6 85.37(15) . 2_566
O1 U1 O6 91.56(15) . 2_566
O4 U1 O6 80.51(12) . 2_566
O5 U1 O6 162.32(11) 2_667 2_566
O3 U1 O6 123.48(11) . 2_566
O7 U1 O6 53.52(11) 2_566 2_566
O2 U1 C11 84.82(17) . 2_566
O1 U1 C11 94.08(16) . 2_566
O4 U1 C11 107.15(14) . 2_566
O5 U1 C11 169.82(13) 2_667 2_566
O3 U1 C11 97.18(13) . 2_566
O7 U1 C11 26.92(13) 2_566 2_566
O6 U1 C11 26.68(13) 2_566 2_566
C4 O5 U1 155.7(3) . 2_667
C11 O7 U1 93.9(3) . 2_566
C4 O4 U1 149.1(4) . .
C1 O3 U1 143.4(3) . .
C11 O6 U1 92.0(3) . 2_566
O5 C4 O4 123.8(5) . .
O5 C4 C5 119.5(4) . .
O4 C4 C5 116.7(4) . .
O6 C11 O7 120.2(4) . .
O6 C11 C7 121.4(5) . .
O7 C11 C7 118.4(4) . .
O6 C11 U1 61.3(3) . 2_566
O7 C11 U1 59.1(2) . 2_566
C7 C11 U1 175.2(4) . 2_566
C1 N2 C2 120.7(4) . .
C1 N2 C3 122.5(5) . .
C2 N2 C3 116.8(4) . .
O9 N1 O8 124.1(4) . .
O9 N1 C9 118.1(4) . .
O8 N1 C9 117.8(4) . .
O3 C1 N2 122.9(5) . .
O3 C1 H1B 118.6 . .
N2 C1 H1B 118.6 . .
C6 C7 C8 121.2(5) . .
C6 C7 C11 120.7(5) . .
C8 C7 C11 118.1(5) . .
C6 C5 C10 120.3(5) . .
C6 C5 C4 120.3(4) . .
C10 C5 C4 119.4(4) . .
C9 C8 C7 117.9(5) . .
C9 C8 H8A 121.0 . .
C7 C8 H8A 121.0 . .
C7 C6 C5 119.6(4) . .
C7 C6 H6A 120.2 . .
C5 C6 H6A 120.2 . .
C9 C10 C5 118.1(5) . .
C9 C10 H10A 120.9 . .
C5 C10 H10A 120.9 . .
C8 C9 C10 122.8(5) . .
C8 C9 N1 118.4(4) . .
C10 C9 N1 118.8(4) . .
N2 C3 H3A 109.5 . .
N2 C3 H3B 109.5 . .
H3A C3 H3B 109.5 . .
N2 C3 H3C 109.5 . .
H3A C3 H3C 109.5 . .
H3B C3 H3C 109.5 . .
N2 C2 H2B 109.5 . .
N2 C2 H2C 109.5 . .
H2B C2 H2C 109.5 . .
N2 C2 H2D 109.5 . .
H2B C2 H2D 109.5 . .
H2C C2 H2D 109.5 . .
loop_
_geom_bond_atom_site_label_1
_geom_bond_atom_site_label_2
_geom_bond_distance
_geom_bond_site_symmetry_2
U1 O2 1.746(4) .
U1 O1 1.768(4) .
U1 O4 2.287(3) .
U1 O5 2.367(3) 2_667
U1 O3 2.378(3) .
U1 O7 2.421(3) 2_566
U1 O6 2.470(3) 2_566
U1 C11 2.813(5) 2_566
O5 C4 1.246(6) .
O5 U1 2.367(3) 2_667
O7 C11 1.277(6) .
O7 U1 2.421(3) 2_566
O4 C4 1.269(6) .
O3 C1 1.254(6) .
O6 C11 1.264(6) .
O6 U1 2.470(3) 2_566
O9 N1 1.218(6) .
O8 N1 1.220(6) .
C4 C5 1.489(7) .
C11 C7 1.500(7) .
C11 U1 2.813(5) 2_566
N2 C1 1.306(7) .
N2 C2 1.455(7) .
N2 C3 1.458(7) .
N1 C9 1.467(6) .
C1 H1B 0.9300 .
C7 C6 1.380(7) .
C7 C8 1.386(7) .
C5 C6 1.397(7) .
C5 C10 1.391(7) .
C8 C9 1.379(7) .
C8 H8A 0.9300 .
C6 H6A 0.9300 .
C10 C9 1.385(7) .
C10 H10A 0.9300 .
C3 H3A 0.9600 .
C3 H3B 0.9600 .
C3 H3C 0.9600 .
C2 H2B 0.9600 .
C2 H2C 0.9600 .
C2 H2D 0.9600 .
